@<TRIPOS>MOLECULE
*****
 61 64 0 0 0
SMALL
GASTEIGER

@<TRIPOS>ATOM
      1 CD1         0.8494   -0.0592   -0.2864 C.3     1  LEU1       -0.0626
      2 CG          2.3616   -0.1013   -0.1522 C.3     1  LEU1       -0.0447
      3 CD2         2.4964    0.1749    1.3085 C.3     1  LEU1       -0.0626
      4 CB          3.0764   -1.3986   -0.4715 C.3     1  LEU1       -0.0269
      5 CA          4.6406   -1.2898   -0.4933 C.3     1  LEU1        0.0629
      6 N           5.2174   -0.6980    0.7592 N.am    1  LEU1       -0.3058
      7 C           5.2460    0.6489    1.1440 C.2     0  UNK0        0.2345
      8 O           5.0707    1.5688    0.3417 O.2     0  UNK0       -0.2737
      9 C           5.3712    0.9614    2.7282 C.3     0  UNK0        0.1103
     10 C           6.8816    0.8152    2.9875 C.3     0  UNK0        0.0017
     11 C           7.3866   -0.6025    2.7600 C.ar    0  UNK0       -0.0201
     12 C           8.3847   -0.9719    1.8720 C.ar    0  UNK0        0.0060
     13 N           8.4053   -2.3433    1.7754 N.ar    0  UNK0       -0.3604
     14 C           7.4097   -2.8906    2.5538 C.ar    0  UNK0        0.0467
     15 C           6.9765   -4.2219    2.6635 C.ar    0  UNK0       -0.0378
     16 C           5.8134   -4.4764    3.3983 C.ar    0  UNK0       -0.0598
     17 C           5.1179   -3.4436    4.0085 C.ar    0  UNK0       -0.0611
     18 C           5.6007   -2.1363    3.9431 C.ar    0  UNK0       -0.0523
     19 C           6.7665   -1.8341    3.2010 C.ar    0  UNK0        0.0029
     20 N           4.6990    2.2719    3.0819 N.am    0  UNK0       -0.2445
     21 C           3.3457    2.4643    2.8535 C.2     0  UNK0        0.2521
     22 O           2.4430    1.8471    3.3827 O.2     0  UNK0       -0.2698
     23 C           3.1140    3.7126    2.0896 C.ar    0  UNK0        0.0579
     24 C           2.0365    3.8665    1.2141 C.ar    0  UNK0       -0.0478
     25 C           1.8743    5.0792    0.5574 C.ar    0  UNK0       -0.0609
     26 C           2.7734    6.1184    0.8021 C.ar    0  UNK0       -0.0600
     27 C           3.8633    5.9383    1.6686 C.ar    0  UNK0       -0.0400
     28 C           4.0659    4.7191    2.3095 C.ar    0  UNK0        0.0424
     29 N           5.0685    4.5523    3.2722 N.pl3   0  UNK0       -0.3031
     30 C           5.1536    3.2925    3.9717 C.3     0  UNK0        0.1965
     31 O           4.2806    3.4161    5.0890 O.3     0  UNK0       -0.3588
     32 C           5.1895   -2.7542   -0.8010 C.2     1  LEU1        0.0620
     33 O           4.3309   -3.6630   -1.0016 O.co2   1  LEU1       -0.5479
     34 OXT         6.4539   -2.8628   -0.7988 O.co2   1  LEU1       -0.5479
     35 HD11        0.5020    0.9530   -0.0224 H       1  LEU1        0.0232
     36 HD12        0.3917   -0.7383    0.4441 H       1  LEU1        0.0232
     37 HD13        0.4991   -0.3023   -1.2821 H       1  LEU1        0.0232
     38 HG          2.8008    0.6964   -0.7715 H       1  LEU1        0.0296
     39 HD21        1.7778   -0.2964    1.9753 H       1  LEU1        0.0232
     40 HD22        2.4020    1.2421    1.3233 H       1  LEU1        0.0232
     41 HD23        3.3978   -0.1552    1.7698 H       1  LEU1        0.0232
     42 HB1         2.7329   -1.7424   -1.4536 H       1  LEU1        0.0289
     43 HB2         2.7589   -2.1489    0.2659 H       1  LEU1        0.0289
     44 HA          4.9504   -0.6291   -1.3077 H       1  LEU1        0.0560
     45 H           5.5309   -1.4329    1.3766 H       1  LEU1        0.1494
     46 H           4.7945    0.2329    3.2952 H       0  UNK0        0.0601
     47 H           7.1677    1.1271    3.9942 H       0  UNK0        0.0337
     48 H           7.3897    1.4876    2.2813 H       0  UNK0        0.0337
     49 H           9.0058   -0.3835    1.2074 H       0  UNK0        0.0810
     50 H           8.9591   -2.8709    1.1124 H       0  UNK0        0.1653
     51 H           7.4773   -5.0271    2.1345 H       0  UNK0        0.0638
     52 H           5.4255   -5.4893    3.4628 H       0  UNK0        0.0618
     53 H           4.1767   -3.6356    4.5165 H       0  UNK0        0.0618
     54 H           5.0005   -1.3618    4.4040 H       0  UNK0        0.0624
     55 H           1.3438    3.0520    1.0273 H       0  UNK0        0.0626
     56 H           1.0462    5.2123   -0.1339 H       0  UNK0        0.0618
     57 H           2.6192    7.0804    0.3215 H       0  UNK0        0.0618
     58 H           4.5351    6.7688    1.8560 H       0  UNK0        0.0636
     59 H           5.9254    5.0729    3.1691 H       0  UNK0        0.1501
     60 H           6.1407    3.0923    4.3837 H       0  UNK0        0.1036
     61 H           3.4258    3.7039    4.7173 H       0  UNK0        0.2134
@<TRIPOS>UNITY_ATOM_ATTR
34 1
charge -1
@<TRIPOS>BOND
     1     1     2    1
     2     2     3    1
     3     2     4    1
     4     4     5    1
     5     5     6    1
     6     6     7   am
     7     7     8    2
     8     7     9    1
     9     9    10    1
    10    10    11    1
    11    11    12   ar
    12    12    13   ar
    13    13    14   ar
    14    14    15   ar
    15    15    16   ar
    16    16    17   ar
    17    17    18   ar
    18    18    19   ar
    19    11    19   ar
    20    14    19   ar
    21     9    20    1
    22    20    21   am
    23    21    22    2
    24    21    23    1
    25    23    24   ar
    26    24    25   ar
    27    25    26   ar
    28    26    27   ar
    29    27    28   ar
    30    23    28   ar
    31    28    29    1
    32    29    30    1
    33    20    30    1
    34     5    32    1
    35    32    33   ar
    36    32    34   ar
    37    30    31    1
    38     1    35    1
    39     1    36    1
    40     1    37    1
    41     2    38    1
    42     3    39    1
    43     3    40    1
    44     3    41    1
    45     4    42    1
    46     4    43    1
    47     5    44    1
    48     6    45    1
    49     9    46    1
    50    10    47    1
    51    10    48    1
    52    12    49    1
    53    13    50    1
    54    15    51    1
    55    16    52    1
    56    17    53    1
    57    18    54    1
    58    24    55    1
    59    25    56    1
    60    26    57    1
    61    27    58    1
    62    29    59    1
    63    30    60    1
    64    31    61    1
