@<TRIPOS>MOLECULE
*****
 29 29 0 0 0
SMALL
GASTEIGER

@<TRIPOS>ATOM
      1 C           0.9366   -0.0814    0.0757 C.3     1  UNL1       -0.0526
      2 C           2.4695   -0.0468    0.0975 C.3     1  UNL1        0.0493
      3 C           2.9734    1.3762   -0.1639 C.3     1  UNL1        0.0200
      4 N           2.5340    1.8965   -1.4601 N.pl3   1  UNL1       -0.3431
      5 C           2.8916    3.1755   -1.8566 C.ar    1  UNL1        0.0272
      6 C           4.2100    3.6138   -1.7073 C.ar    1  UNL1       -0.0398
      7 C           4.5994    4.8986   -2.0789 C.ar    1  UNL1       -0.0460
      8 C           3.6554    5.7814   -2.5863 C.ar    1  UNL1        0.0180
      9 BR          4.1920    7.5232   -3.0837 Br      1  UNL1       -0.0503
     10 C           2.3277    5.3840   -2.7256 C.ar    1  UNL1       -0.0460
     11 C           1.9486    4.0817   -2.3628 C.ar    1  UNL1       -0.0398
     12 C           2.9703   -0.5519    1.4572 C.2     1  UNL1        0.2306
     13 O           2.2057   -0.9204    2.3574 O.2     1  UNL1       -0.2742
     14 N           4.3499   -0.5892    1.6287 N.am    1  UNL1       -0.2533
     15 N           4.8798   -1.1464    2.8209 N.3     1  UNL1       -0.2544
     16 H           0.5289    0.2558   -0.8812 H       1  UNL1        0.0237
     17 H           0.5246    0.5645    0.8597 H       1  UNL1        0.0237
     18 H           0.5651   -1.0965    0.2464 H       1  UNL1        0.0237
     19 H           2.8483   -0.7253   -0.6781 H       1  UNL1        0.0407
     20 H           4.0676    1.3690   -0.1356 H       1  UNL1        0.0468
     21 H           2.6369    2.0403    0.6431 H       1  UNL1        0.0468
     22 H           1.8072    1.4258   -1.9862 H       1  UNL1        0.1461
     23 H           4.9683    2.9300   -1.3412 H       1  UNL1        0.0636
     24 H           5.6404    5.1855   -1.9702 H       1  UNL1        0.0629
     25 H           1.5844    6.0791   -3.1088 H       1  UNL1        0.0629
     26 H           0.9026    3.7986   -2.4610 H       1  UNL1        0.0636
     27 H           4.9867   -0.4382    0.8486 H       1  UNL1        0.1687
     28 H           4.0772   -1.3838    3.4256 H       1  UNL1        0.1405
     29 H           5.3753   -0.4150    3.3362 H       1  UNL1        0.1405
@<TRIPOS>BOND
     1     1     2    1
     2     2     3    1
     3     3     4    1
     4     4     5    1
     5     5     6   ar
     6     6     7   ar
     7     7     8   ar
     8     8     9    1
     9     8    10   ar
    10    10    11   ar
    11     5    11   ar
    12     2    12    1
    13    12    13    2
    14    12    14   am
    15    14    15    1
    16     1    16    1
    17     1    17    1
    18     1    18    1
    19     2    19    1
    20     3    20    1
    21     3    21    1
    22     4    22    1
    23     6    23    1
    24     7    24    1
    25    10    25    1
    26    11    26    1
    27    14    27    1
    28    15    28    1
    29    15    29    1
