@<TRIPOS>MOLECULE
*****
 62 64 0 0 0
SMALL
GASTEIGER

@<TRIPOS>ATOM
      1 C           0.9489   -0.0425    0.0745 C.3     1  UNL1       -0.0653
      2 C           2.4642   -0.0392    0.0787 C.3     1  UNL1       -0.0559
      3 C           2.9884    0.6578    1.3247 C.3     1  UNL1       -0.0533
      4 C           4.5079    0.6709    1.3223 C.3     1  UNL1       -0.0531
      5 C           5.0201    1.3988    2.5507 C.3     1  UNL1       -0.0531
      6 C           6.5363    1.3685    2.5839 C.3     1  UNL1       -0.0530
      7 C           7.0472    2.0653    3.8310 C.3     1  UNL1       -0.0514
      8 C           8.5636    2.0579    3.8402 C.3     1  UNL1       -0.0349
      9 C           9.0770    2.8141    5.0537 C.3     1  UNL1        0.0267
     10 N          10.5201    2.7623    5.1277 N.ar    1  UNL1       -0.3051
     11 C          11.3199    1.9410    5.9080 C.ar    1  UNL1        0.2180
     12 N          10.8050    1.0180    6.7899 N.pl3   1  UNL1       -0.2064
     13 N           9.4652    0.7408    6.9274 N.2     1  UNL1       -0.1876
     14 C           9.0430   -0.0477    7.8631 C.2     1  UNL1        0.0530
     15 C           7.5738   -0.2558    8.0643 C.ar    1  UNL1        0.0009
     16 C           7.0619   -0.3442    9.3664 C.ar    1  UNL1       -0.0527
     17 C           5.6849   -0.5091    9.5845 C.ar    1  UNL1       -0.0547
     18 C           4.8067   -0.6015    8.5068 C.ar    1  UNL1        0.0156
     19 C           5.3171   -0.5269    7.2065 C.ar    1  UNL1        0.2738
     20 N           4.3950   -0.6847    6.0765 N.pl3   1  UNL1        0.0796
     21 O           3.1810   -0.7530    6.3182 O.2     1  UNL1        0.0414
     22 O           4.8923   -0.7702    4.9490 O.co2   1  UNL1       -0.5760
     23 C           6.6961   -0.3454    6.9764 C.ar    1  UNL1        0.0242
     24 N          12.6043    2.2047    5.6550 N.ar    1  UNL1       -0.1947
     25 C          12.6125    3.1821    4.6824 C.ar    1  UNL1        0.1698
     26 C          11.3386    3.5367    4.3459 C.ar    1  UNL1        0.1527
     27 C          11.0360    4.5154    3.3602 C.ar    1  UNL1        0.2799
     28 O           9.9066    4.8692    3.0205 O.2     1  UNL1       -0.2654
     29 N          12.1509    5.0639    2.7896 N.ar    1  UNL1       -0.2731
     30 C          13.4615    4.7657    3.0818 C.ar    1  UNL1        0.3307
     31 O          14.3438    5.3703    2.4707 O.2     1  UNL1       -0.2464
     32 N          13.6992    3.7935    4.0586 N.ar    1  UNL1       -0.2797
     33 C          15.0750    3.4733    4.3783 C.3     1  UNL1        0.0181
     34 H           0.5744   -0.5408   -0.8232 H       1  UNL1        0.0230
     35 H           0.5606    0.9809    0.0903 H       1  UNL1        0.0230
     36 H           0.5612   -0.5703    0.9516 H       1  UNL1        0.0230
     37 H           2.8344    0.4731   -0.8170 H       1  UNL1        0.0263
     38 H           2.8363   -1.0698    0.0428 H       1  UNL1        0.0263
     39 H           2.6229    0.1439    2.2230 H       1  UNL1        0.0265
     40 H           2.6112    1.6870    1.3659 H       1  UNL1        0.0265
     41 H           4.8810    1.1697    0.4204 H       1  UNL1        0.0265
     42 H           4.8879   -0.3586    1.3084 H       1  UNL1        0.0265
     43 H           4.6101    0.9329    3.4462 H       1  UNL1        0.0265
     44 H           4.6616    2.4341    2.5617 H       1  UNL1        0.0265
     45 H           6.9309    1.8692    1.6918 H       1  UNL1        0.0265
     46 H           6.8979    0.3325    2.5618 H       1  UNL1        0.0265
     47 H           6.6660    1.5627    4.7248 H       1  UNL1        0.0266
     48 H           6.6772    3.0965    3.8642 H       1  UNL1        0.0266
     49 H           8.9343    2.5199    2.9181 H       1  UNL1        0.0282
     50 H           8.9378    1.0257    3.8376 H       1  UNL1        0.0282
     51 H           8.6232    2.4386    5.9654 H       1  UNL1        0.0493
     52 H           8.7779    3.8664    5.0383 H       1  UNL1        0.0493
     53 H          11.4892    0.4972    7.3375 H       1  UNL1        0.1774
     54 H           9.7208   -0.5656    8.5632 H       1  UNL1        0.0851
     55 H           7.7184   -0.2569   10.2285 H       1  UNL1        0.0624
     56 H           5.2907   -0.5659   10.5978 H       1  UNL1        0.0620
     57 H           3.7413   -0.7396    8.6914 H       1  UNL1        0.0685
     58 H           7.0909   -0.2978    5.9643 H       1  UNL1        0.0692
     59 H          12.0009    5.7684    2.0845 H       1  UNL1        0.1735
     60 H          15.7751    4.0705    3.7810 H       1  UNL1        0.0458
     61 H          15.2659    2.4197    4.1613 H       1  UNL1        0.0458
     62 H          15.2648    3.6932    5.4315 H       1  UNL1        0.0458
@<TRIPOS>UNITY_ATOM_ATTR
20 1
charge 1
22 1
charge -1
@<TRIPOS>BOND
     1     1     2    1
     2     2     3    1
     3     3     4    1
     4     4     5    1
     5     5     6    1
     6     6     7    1
     7     7     8    1
     8     8     9    1
     9     9    10    1
    10    10    11   ar
    11    11    12    1
    12    12    13    1
    13    13    14    2
    14    14    15    1
    15    15    16   ar
    16    16    17   ar
    17    17    18   ar
    18    18    19   ar
    19    19    20    1
    20    20    21    2
    21    20    22    1
    22    19    23   ar
    23    15    23   ar
    24    11    24   ar
    25    24    25   ar
    26    25    26   ar
    27    10    26   ar
    28    26    27   ar
    29    27    28    2
    30    27    29   ar
    31    29    30   ar
    32    30    31    2
    33    30    32   ar
    34    25    32   ar
    35    32    33    1
    36     1    34    1
    37     1    35    1
    38     1    36    1
    39     2    37    1
    40     2    38    1
    41     3    39    1
    42     3    40    1
    43     4    41    1
    44     4    42    1
    45     5    43    1
    46     5    44    1
    47     6    45    1
    48     6    46    1
    49     7    47    1
    50     7    48    1
    51     8    49    1
    52     8    50    1
    53     9    51    1
    54     9    52    1
    55    12    53    1
    56    14    54    1
    57    16    55    1
    58    17    56    1
    59    18    57    1
    60    23    58    1
    61    29    59    1
    62    33    60    1
    63    33    61    1
    64    33    62    1
