@<TRIPOS>MOLECULE
*****
 63 65 0 0 0
SMALL
GASTEIGER

@<TRIPOS>ATOM
      1 C          -5.3924   -0.2188   -4.9036 C.3     1  UNL1       -0.0397
      2 C          -4.6529   -0.5993   -3.6778 C.ar    1  UNL1       -0.0502
      3 C          -4.0943    0.3400   -2.8340 C.ar    1  UNL1       -0.0585
      4 C          -3.5007   -0.1000   -1.6705 C.ar    1  UNL1       -0.0558
      5 C          -3.2510   -1.4909   -1.4277 C.ar    1  UNL1       -0.0149
      6 C          -2.5656   -1.8422   -0.0896 C.3     1  UNL1        0.1326
      7 C          -1.4583   -0.8499    0.0338 C.2     1  UNL1        0.2389
      8 O          -1.1155   -0.1713   -0.9045 O.2     1  UNL1       -0.2734
      9 N          -0.9251   -0.6909    1.2796 N.am    1  UNL1       -0.3087
     10 C           0.4642   -0.4869    1.2284 C.3     1  UNL1        0.0262
     11 C           1.1583   -0.6189   -0.5352 C.3     1  UNL1       -0.0442
     12 C           0.7614    1.0834    0.9012 C.3     1  UNL1       -0.0442
     13 C           0.9805   -1.6464    2.9216 C.3     1  UNL1       -0.0442
     14 N          -2.1917   -3.2684    0.3065 N.am    1  UNL1       -0.2513
     15 C          -0.8573   -4.0030   -0.0784 C.2     1  UNL1        0.2520
     16 O          -0.8460   -5.2354   -0.1909 O.2     1  UNL1       -0.2696
     17 C           0.6656   -3.4504   -0.1040 C.ar    1  UNL1        0.0437
     18 C           1.8018   -3.5611   -0.9132 C.ar    1  UNL1       -0.0492
     19 C           3.1721   -2.7213   -0.6305 C.ar    1  UNL1       -0.0546
     20 C           3.4545   -1.6751    0.4068 C.ar    1  UNL1        0.0156
     21 C           2.4801   -1.5828    1.2987 C.ar    1  UNL1        0.2739
     22 N           2.4739    0.0191    2.4133 N.pl3   1  UNL1        0.0796
     23 O           3.4127    0.7448    2.3772 O.2     1  UNL1        0.0414
     24 O           1.4635    0.3865    3.1539 O.co2   1  UNL1       -0.5760
     25 C           1.1036   -2.6661    0.9511 C.ar    1  UNL1        0.0277
     26 C          -3.4774   -4.1529    0.5318 C.ar    1  UNL1        0.0391
     27 C          -3.3211   -5.4422    1.0197 C.ar    1  UNL1       -0.0401
     28 C          -4.2489   -6.4650    0.7233 C.ar    1  UNL1       -0.0586
     29 C          -5.3860   -6.2321   -0.0469 C.ar    1  UNL1       -0.0433
     30 C          -5.6464   -4.9376   -0.4415 C.ar    1  UNL1        0.0427
     31 CL         -6.8353   -4.7207   -1.7097 Cl      1  UNL1       -0.0835
     32 C          -4.7789   -3.8805   -0.0340 C.ar    1  UNL1       -0.0219
     33 C          -3.6373   -2.3941   -2.4253 C.ar    1  UNL1       -0.0448
     34 C          -3.4121   -3.8594   -2.4223 C.3     1  UNL1       -0.0394
     35 C          -4.4813   -1.9506   -3.4283 C.ar    1  UNL1       -0.0556
     36 H          -5.3340    0.8577   -5.0622 H       1  UNL1        0.0278
     37 H          -6.4359   -0.5283   -4.8073 H       1  UNL1        0.0278
     38 H          -4.9292   -0.7291   -5.7538 H       1  UNL1        0.0278
     39 H          -4.1104    1.4002   -3.0621 H       1  UNL1        0.0620
     40 H          -3.1035    0.6847   -1.0143 H       1  UNL1        0.0621
     41 H          -3.2442   -1.5221    0.7225 H       1  UNL1        0.0651
     42 H          -1.2517   -1.1936    2.0791 H       1  UNL1        0.1493
     43 H           0.5845   -0.7283   -1.4753 H       1  UNL1        0.0250
     44 H           1.4493   -1.5799   -0.7277 H       1  UNL1        0.0250
     45 H           2.1109   -0.1206   -0.8116 H       1  UNL1        0.0250
     46 H           0.3271    1.3608   -0.0788 H       1  UNL1        0.0250
     47 H           1.8297    1.2840    0.6770 H       1  UNL1        0.0250
     48 H           0.3635    1.7852    1.6111 H       1  UNL1        0.0250
     49 H           1.1519   -2.7753    2.8739 H       1  UNL1        0.0250
     50 H           0.5659   -1.4490    3.8796 H       1  UNL1        0.0250
     51 H           2.1020   -1.6818    3.2634 H       1  UNL1        0.0250
     52 H           1.6646   -4.0062   -1.9075 H       1  UNL1        0.0625
     53 H           3.8863   -2.7247   -1.4555 H       1  UNL1        0.0620
     54 H           4.0551   -0.7642    0.2486 H       1  UNL1        0.0685
     55 H           0.1297   -2.6668    1.5165 H       1  UNL1        0.0693
     56 H          -2.4296   -5.6825    1.5869 H       1  UNL1        0.0636
     57 H          -4.0367   -7.4788    1.0458 H       1  UNL1        0.0619
     58 H          -6.0499   -7.0424   -0.3415 H       1  UNL1        0.0632
     59 H          -5.0458   -2.9175   -0.4602 H       1  UNL1        0.0651
     60 H          -2.8571   -4.0805   -1.5519 H       1  UNL1        0.0278
     61 H          -2.8308   -4.4126   -3.1466 H       1  UNL1        0.0278
     62 H          -4.3934   -4.3115   -2.4164 H       1  UNL1        0.0278
     63 H          -5.0003   -2.6914   -4.0319 H       1  UNL1        0.0623
@<TRIPOS>UNITY_ATOM_ATTR
22 1
charge 1
24 1
charge -1
@<TRIPOS>BOND
     1     1     2    1
     2     2     3   ar
     3     3     4   ar
     4     4     5   ar
     5     7     8    2
     6     7     9   am
     7     9    10    1
     8    10    11    1
     9    10    12    1
    10    10    13    1
    11     6    14    1
    12    14    15   am
    13    15    16    2
    14    15    17    1
    15    17    18   ar
    16    18    19   ar
    17    19    20   ar
    18    20    21   ar
    19    21    22    1
    20    22    23    2
    21    22    24    1
    22    21    25   ar
    23    17    25   ar
    24    14    26    1
    25    26    27   ar
    26    27    28   ar
    27    28    29   ar
    28    29    30   ar
    29    30    31    1
    30    30    32   ar
    31    26    32   ar
    32     5    33   ar
    33    33    34    1
    34    33    35   ar
    35     2    35   ar
    36     6     7    1
    37     6     5    1
    38     1    36    1
    39     1    37    1
    40     1    38    1
    41     3    39    1
    42     4    40    1
    43     6    41    1
    44     9    42    1
    45    11    43    1
    46    11    44    1
    47    11    45    1
    48    12    46    1
    49    12    47    1
    50    12    48    1
    51    13    49    1
    52    13    50    1
    53    13    51    1
    54    18    52    1
    55    19    53    1
    56    20    54    1
    57    25    55    1
    58    27    56    1
    59    28    57    1
    60    29    58    1
    61    32    59    1
    62    34    60    1
    63    34    61    1
    64    34    62    1
    65    35    63    1
