@<TRIPOS>MOLECULE
*****
 76 77 0 0 0
SMALL
GASTEIGER

@<TRIPOS>ATOM
      1 C           0.9691   -0.3301   -0.0139 C.3     1  UNL1       -0.0647
      2 C           2.4646   -0.1082    0.0605 C.3     1  UNL1       -0.0491
      3 C           3.0230    1.3001   -0.2945 C.3     1  UNL1       -0.0163
      4 C           2.5226    2.4120    0.6598 C.3     1  UNL1       -0.0491
      5 C           1.0183    2.6407    0.6825 C.3     1  UNL1       -0.0647
      6 C           4.5684    1.2803   -0.3419 C.ar    1  UNL1       -0.0441
      7 C           5.3194    2.4258   -0.6524 C.ar    1  UNL1       -0.0549
      8 C           6.7215    2.3553   -0.7917 C.ar    1  UNL1       -0.0197
      9 C           7.4125    1.1575   -0.5650 C.ar    1  UNL1        0.1212
     10 O           8.7805    1.1793   -0.6641 O.3     1  UNL1       -0.4827
     11 C           9.4884   -0.0478   -0.3920 C.3     1  UNL1        0.1668
     12 C          10.9918    0.0497   -0.7474 C.2     1  UNL1        0.2698
     13 O          11.4496    1.0638   -1.2813 O.2     1  UNL1       -0.2703
     14 N          11.7902   -1.0695   -0.4150 N.am    1  UNL1       -0.2042
     15 N          13.1563   -0.9613   -0.6620 N.2     1  UNL1       -0.1876
     16 C          14.0115   -1.7402   -0.0727 C.2     1  UNL1        0.0548
     17 C          15.4855   -1.4103   -0.0000 C.ar    1  UNL1        0.0220
     18 C          16.3717   -2.3655   -0.5996 C.ar    1  UNL1        0.0260
     19 C          17.7725   -2.2490   -0.4812 C.ar    1  UNL1        0.2739
     20 N          18.7247   -3.3083   -0.8092 N.pl3   1  UNL1        0.0796
     21 O          18.2478   -4.3736   -1.2508 O.2     1  UNL1        0.0414
     22 O          19.9177   -3.1244   -0.5626 O.co2   1  UNL1       -0.5760
     23 C          18.3073   -1.1965    0.1948 C.ar    1  UNL1        0.0174
     24 C          17.4217   -0.4383    0.9252 C.ar    1  UNL1       -0.0336
     25 C          16.0114   -0.3518    0.7985 C.ar    1  UNL1        0.0389
     26 N          15.3134    0.6903    1.4599 N.pl3   1  UNL1       -0.3289
     27 C          15.9158    1.9638    1.9384 C.3     1  UNL1        0.0145
     28 C          17.3992    2.1945    1.8683 C.3     1  UNL1       -0.0310
     29 C          17.8430    2.2775    0.3802 C.3     1  UNL1       -0.0612
     30 C          17.8684    3.4460    2.5670 C.3     1  UNL1       -0.0612
     31 C          13.8406    0.8159    1.2398 C.3     1  UNL1        0.0145
     32 C          13.0604    1.9992    1.8633 C.3     1  UNL1       -0.0310
     33 C          13.2021    3.2777    1.0185 C.3     1  UNL1       -0.0612
     34 C          11.5460    1.7242    1.9011 C.3     1  UNL1       -0.0612
     35 C           6.6760    0.0280   -0.2490 C.ar    1  UNL1       -0.0197
     36 C           5.2880    0.0922   -0.1400 C.ar    1  UNL1       -0.0549
     37 H           0.7466   -1.3987    0.0511 H       1  UNL1        0.0230
     38 H           0.5574    0.0660   -0.9450 H       1  UNL1        0.0230
     39 H           0.4513    0.0940    0.8404 H       1  UNL1        0.0230
     40 H           2.8855   -0.8380   -0.6439 H       1  UNL1        0.0268
     41 H           2.8059   -0.3856    1.0665 H       1  UNL1        0.0268
     42 H           2.6935    1.5376   -1.3171 H       1  UNL1        0.0349
     43 H           2.9642    3.3724    0.3715 H       1  UNL1        0.0268
     44 H           2.8738    2.2023    1.6767 H       1  UNL1        0.0268
     45 H           0.6039    2.6800   -0.3299 H       1  UNL1        0.0230
     46 H           0.7746    3.5700    1.2024 H       1  UNL1        0.0230
     47 H           0.5012    1.8800    1.2602 H       1  UNL1        0.0230
     48 H           4.8336    3.3905   -0.7932 H       1  UNL1        0.0622
     49 H           7.2650    3.2491   -1.0927 H       1  UNL1        0.0654
     50 H           9.0976   -0.8443   -1.0299 H       1  UNL1        0.0795
     51 H           9.3645   -0.3012    0.6705 H       1  UNL1        0.0795
     52 H          11.4577   -1.7844    0.2238 H       1  UNL1        0.1773
     53 H          13.7088   -2.6439    0.4827 H       1  UNL1        0.0852
     54 H          15.9636   -3.2069   -1.1513 H       1  UNL1        0.0692
     55 H          19.3731   -0.9914    0.2920 H       1  UNL1        0.0686
     56 H          18.0210    0.1265    1.5985 H       1  UNL1        0.0638
     57 H          15.5508    2.1366    2.9570 H       1  UNL1        0.0466
     58 H          15.5749    2.7668    1.3103 H       1  UNL1        0.0466
     59 H          17.8358    1.4508    2.5342 H       1  UNL1        0.0311
     60 H          17.5456    3.2284   -0.0700 H       1  UNL1        0.0233
     61 H          17.3767    1.5496   -0.2947 H       1  UNL1        0.0233
     62 H          18.9234    2.1469    0.2922 H       1  UNL1        0.0233
     63 H          17.5218    4.3387    2.0491 H       1  UNL1        0.0233
     64 H          18.9638    3.4226    2.5769 H       1  UNL1        0.0233
     65 H          17.5172    3.4534    3.6024 H       1  UNL1        0.0233
     66 H          13.4011   -0.0939    1.6618 H       1  UNL1        0.0466
     67 H          13.6920    0.9354    0.1688 H       1  UNL1        0.0466
     68 H          13.3779    2.1430    2.8995 H       1  UNL1        0.0311
     69 H          12.9007    3.0921   -0.0188 H       1  UNL1        0.0233
     70 H          14.1950    3.7004    0.9515 H       1  UNL1        0.0233
     71 H          12.5965    4.0814    1.4368 H       1  UNL1        0.0233
     72 H          11.1188    1.8082    0.9049 H       1  UNL1        0.0233
     73 H          11.0250    2.4951    2.4765 H       1  UNL1        0.0233
     74 H          11.2907    0.7430    2.3110 H       1  UNL1        0.0233
     75 H           7.1327   -0.9398   -0.0900 H       1  UNL1        0.0654
     76 H           4.7967   -0.8413    0.1114 H       1  UNL1        0.0622
@<TRIPOS>UNITY_ATOM_ATTR
20 1
charge 1
22 1
charge -1
@<TRIPOS>BOND
     1     1     2    1
     2     2     3    1
     3     3     4    1
     4     4     5    1
     5     3     6    1
     6     6     7   ar
     7     7     8   ar
     8     8     9   ar
     9     9    10    1
    10    10    11    1
    11    11    12    1
    12    12    13    2
    13    12    14   am
    14    14    15    1
    15    15    16    2
    16    16    17    1
    17    17    18   ar
    18    18    19   ar
    19    19    20    1
    20    20    21    2
    21    20    22    1
    22    19    23   ar
    23    23    24   ar
    24    24    25   ar
    25    17    25   ar
    26    25    26    1
    27    26    27    1
    28    27    28    1
    29    28    29    1
    30    28    30    1
    31    26    31    1
    32    31    32    1
    33    32    33    1
    34    32    34    1
    35     9    35   ar
    36    35    36   ar
    37     6    36   ar
    38     1    37    1
    39     1    38    1
    40     1    39    1
    41     2    40    1
    42     2    41    1
    43     3    42    1
    44     4    43    1
    45     4    44    1
    46     5    45    1
    47     5    46    1
    48     5    47    1
    49     7    48    1
    50     8    49    1
    51    11    50    1
    52    11    51    1
    53    14    52    1
    54    16    53    1
    55    18    54    1
    56    23    55    1
    57    24    56    1
    58    27    57    1
    59    27    58    1
    60    28    59    1
    61    29    60    1
    62    29    61    1
    63    29    62    1
    64    30    63    1
    65    30    64    1
    66    30    65    1
    67    31    66    1
    68    31    67    1
    69    32    68    1
    70    33    69    1
    71    33    70    1
    72    33    71    1
    73    34    72    1
    74    34    73    1
    75    34    74    1
    76    35    75    1
    77    36    76    1
