REMARK  12 active torsions:
REMARK  status: ('A' for Active; 'I' for Inactive)
REMARK    1  A    between atoms: C_2  and  O_3 
REMARK    2  A    between atoms: O_3  and  C_4 
REMARK    3  A    between atoms: C_4  and  C_5 
REMARK    4  A    between atoms: C_5  and  O_6 
REMARK    5  A    between atoms: O_6  and  C_7 
REMARK    6  A    between atoms: C_10  and  C_11 
REMARK       I    between atoms: C_11  and  N_13 
REMARK    7  A    between atoms: N_13  and  C_14 
REMARK    8  A    between atoms: C_14  and  N_16 
REMARK    9  A    between atoms: N_16  and  N_17 
REMARK       I    between atoms: N_17  and  C_18 
REMARK   10  A    between atoms: C_18  and  C_20 
REMARK   11  A    between atoms: C_20  and  O_21 
REMARK   12  A    between atoms: O_21  and  C_22 
ROOT
ATOM      1  C   UNL d   1       9.462   2.992  -9.763  0.00  0.00     0.193 C 
ATOM      2  S   UNL d   1      10.812   2.168 -10.355  0.00  0.00    -0.039 SA
ENDROOT
BRANCH   1   3
ATOM      3  N   UNL d   1       8.819   2.731  -8.525  0.00  0.00    -0.298 N 
ATOM      4  C   UNL d   1       9.187   1.745  -7.570  0.00  0.00     0.257 C 
ATOM      5  O   UNL d   1      10.155   0.991  -7.716  0.00  0.00    -0.267 OA
ATOM      6  H   UNL d   1       8.004   3.287  -8.315  0.00  0.00     0.171 HD
BRANCH   4   7
ATOM      7  C   UNL d   1       8.399   1.510  -6.303  0.00  0.00     0.032 A 
ATOM      8  C   UNL d   1       8.810   0.451  -5.455  0.00  0.00     0.020 A 
ATOM      9  C   UNL d   1       8.067   0.071  -4.326  0.00  0.00     0.038 A 
ATOM     10  C   UNL d   1       6.926   0.784  -3.975  0.00  0.00     0.068 A 
ATOM     11  C   UNL d   1       6.547   1.873  -4.763  0.00  0.00     0.038 A 
ATOM     12  C   UNL d   1       7.269   2.232  -5.922  0.00  0.00     0.020 A 
BRANCH  10  13
ATOM     13  O   UNL d   1       6.316   0.421  -2.804  0.00  0.00    -0.349 OA
BRANCH  13  14
ATOM     14  C   UNL d   1       4.886   0.507  -2.789  0.00  0.00     0.201 C 
BRANCH  14  15
ATOM     15  C   UNL d   1       4.383   0.209  -1.378  0.00  0.00     0.194 C 
BRANCH  15  16
ATOM     16  O   UNL d   1       2.953   0.221  -1.353  0.00  0.00    -0.389 OA
BRANCH  16  17
ATOM     17  C   UNL d   1       2.465  -0.066  -0.042  0.00  0.00     0.163 C 
ATOM     18  C   UNL d   1       0.950  -0.063  -0.056  0.00  0.00     0.033 C 
ENDBRANCH  16  17
ENDBRANCH  15  16
ENDBRANCH  14  15
ENDBRANCH  13  14
ENDBRANCH  10  13
ENDBRANCH   4   7
ENDBRANCH   1   3
BRANCH   1  19
ATOM     19  N   UNL d   1       8.902   4.031 -10.534  0.00  0.00    -0.273 N 
ATOM     20  H   UNL d   1       8.093   4.599 -10.287  0.00  0.00     0.189 HD
BRANCH  19  21
ATOM     21  N   UNL d   1       9.515   4.377 -11.816  0.00  0.00    -0.266 N 
ATOM     22  C   UNL d   1       9.015   5.409 -12.605  0.00  0.00     0.260 C 
ATOM     23  O   UNL d   1       8.025   6.051 -12.251  0.00  0.00    -0.269 OA
ATOM     24  H   UNL d   1      10.331   3.819 -12.069  0.00  0.00     0.190 HD
BRANCH  22  25
ATOM     25  C   UNL d   1       9.778   5.673 -13.946  0.00  0.00     0.280 C 
BRANCH  25  26
ATOM     26  O   UNL d   1       9.241   6.814 -14.636  0.00  0.00    -0.342 OA
BRANCH  26  27
ATOM     27  C   UNL d   1       9.727   7.102 -15.886  0.00  0.00     0.069 A 
ATOM     28  C   UNL d   1       9.839   8.461 -16.216  0.00  0.00     0.038 A 
ATOM     29  C   UNL d   1      10.238   8.861 -17.500  0.00  0.00     0.026 A 
ATOM     30  C   UNL d   1      10.576   7.897 -18.445  0.00  0.00     0.034 A 
ATOM     31 CL   UNL d   1      11.194   8.374 -19.979  0.00  0.00    -0.084 Cl
ATOM     32  C   UNL d   1      10.442   6.545 -18.139  0.00  0.00     0.026 A 
ATOM     33  C   UNL d   1      10.003   6.149 -16.866  0.00  0.00     0.038 A 
ENDBRANCH  26  27
ENDBRANCH  25  26
ENDBRANCH  22  25
ENDBRANCH  19  21
ENDBRANCH   1  19
TORSDOF 12
