@<TRIPOS>MOLECULE
*****
 27 28 0 0 0
SMALL
GASTEIGER

@<TRIPOS>ATOM
      1 O           1.0300    0.1461   -0.1676 O.2     1  UNL1       -0.2699
      2 C           2.2435    0.1023    0.0390 C.2     1  UNL1        0.2483
      3 N           2.9480    0.8749    0.9534 N.am    1  UNL1       -0.2786
      4 C           2.3229    1.7032    1.9221 C.ar    1  UNL1        0.0756
      5 C           2.8637    2.9694    2.1864 C.ar    1  UNL1       -0.0369
      6 C           2.2888    3.8008    3.1584 C.ar    1  UNL1       -0.0598
      7 C           1.1897    3.3617    3.8958 C.ar    1  UNL1       -0.0582
      8 C           0.6528    2.0973    3.6546 C.ar    1  UNL1       -0.0183
      9 C           1.2218    1.2740    2.6783 C.ar    1  UNL1        0.1380
     10 O           0.7831   -0.0177    2.5630 O.3     1  UNL1       -0.5049
     11 C           3.0514   -0.7774   -0.8507 C.ar    1  UNL1        0.0371
     12 C           2.7055   -0.8696   -2.2091 C.ar    1  UNL1       -0.0486
     13 C           3.3768   -1.7589   -3.0550 C.ar    1  UNL1       -0.0470
     14 C           4.3876   -2.5663   -2.5385 C.ar    1  UNL1        0.0179
     15 BR          5.2861   -3.7858   -3.6715 Br      1  UNL1       -0.0503
     16 C           4.7328   -2.4901   -1.1876 C.ar    1  UNL1       -0.0470
     17 C           4.0673   -1.5931   -0.3407 C.ar    1  UNL1       -0.0486
     18 H           3.9356    1.0206    0.7933 H       1  UNL1        0.1552
     19 H           3.7072    3.3468    1.6150 H       1  UNL1        0.0637
     20 H           2.6973    4.7925    3.3431 H       1  UNL1        0.0618
     21 H           0.7639    3.9957    4.6707 H       1  UNL1        0.0619
     22 H          -0.1786    1.7505    4.2607 H       1  UNL1        0.0655
     23 H          -0.1207   -0.0781    2.9069 H       1  UNL1        0.2922
     24 H           1.8960   -0.2599   -2.6073 H       1  UNL1        0.0625
     25 H           3.0918   -1.8266   -4.1025 H       1  UNL1        0.0629
     26 H           5.5021   -3.1428   -0.7821 H       1  UNL1        0.0629
     27 H           4.3090   -1.5789    0.7185 H       1  UNL1        0.0625
@<TRIPOS>BOND
     1     1     2    2
     2     2     3   am
     3     3     4    1
     4     4     5   ar
     5     5     6   ar
     6     6     7   ar
     7     7     8   ar
     8     8     9   ar
     9     4     9   ar
    10     9    10    1
    11     2    11    1
    12    11    12   ar
    13    12    13   ar
    14    13    14   ar
    15    14    15    1
    16    14    16   ar
    17    16    17   ar
    18    11    17   ar
    19     3    18    1
    20     5    19    1
    21     6    20    1
    22     7    21    1
    23     8    22    1
    24    10    23    1
    25    12    24    1
    26    13    25    1
    27    16    26    1
    28    17    27    1
