@<TRIPOS>MOLECULE
*****
 69 72 0 0 0
SMALL
GASTEIGER

@<TRIPOS>ATOM
      1 C           0.9286   -0.0393   -0.0608 C.3     1  UNL1       -0.0652
      2 C           2.4491   -0.0519   -0.0529 C.3     1  UNL1       -0.0528
      3 C           3.0042   -1.0584    0.9568 C.3     1  UNL1       -0.0189
      4 C           4.5372   -1.0642    0.9479 C.3     1  UNL1        0.0896
      5 O           5.0111   -2.0963    1.8157 O.3     1  UNL1       -0.4920
      6 C           6.3549   -2.1227    2.0835 C.ar    1  UNL1        0.1205
      7 C           6.8921   -3.3838    2.3429 C.ar    1  UNL1       -0.0192
      8 C           8.2046   -3.5140    2.8282 C.ar    1  UNL1       -0.0443
      9 C           9.0153   -2.3810    3.0346 C.ar    1  UNL1        0.0596
     10 C          10.4119   -2.5737    3.5949 C.2     1  UNL1        0.3446
     11 O          10.7464   -3.5664    4.1899 O.2     1  UNL1       -0.2445
     12 O          11.2608   -1.5487    3.1439 O.3     1  UNL1       -0.4186
     13 C          12.6677   -1.7670    3.1342 C.ar    1  UNL1        0.1734
     14 C          13.4523   -0.8589    3.8770 C.ar    1  UNL1       -0.0150
     15 C          14.8663   -0.9494    3.8892 C.ar    1  UNL1       -0.0494
     16 C          15.5172   -1.9694    3.1837 C.ar    1  UNL1       -0.0018
     17 C          17.0135   -2.1670    3.3129 C.2     1  UNL1        0.0529
     18 N          17.6414   -3.1403    2.7185 N.2     1  UNL1       -0.1876
     19 N          19.0143   -3.3132    2.9129 N.am    1  UNL1       -0.2042
     20 C          19.6562   -4.3924    2.2652 C.2     1  UNL1        0.2698
     21 O          19.0471   -5.1721    1.5287 O.2     1  UNL1       -0.2703
     22 C          21.2019   -4.5517    2.5267 C.3     1  UNL1        0.1668
     23 O          21.7559   -5.6374    1.7679 O.3     1  UNL1       -0.4827
     24 C          23.0669   -6.0351    1.8793 C.ar    1  UNL1        0.1218
     25 C          23.6086   -6.4641    0.6655 C.ar    1  UNL1       -0.0193
     26 C          24.9006   -6.9784    0.6041 C.ar    1  UNL1       -0.0506
     27 C          25.7064   -7.0298    1.7433 C.ar    1  UNL1       -0.0177
     28 C          27.0625   -7.3184    1.5869 C.ar    1  UNL1       -0.0540
     29 C          27.9205   -7.1626    2.6538 C.ar    1  UNL1       -0.0612
     30 C          27.3883   -7.6135    3.8283 C.ar    1  UNL1       -0.0612
     31 C          26.0843   -7.1696    4.1068 C.ar    1  UNL1       -0.0539
     32 C          25.1896   -6.7685    3.0277 C.ar    1  UNL1       -0.0144
     33 C          23.8341   -6.2192    3.0567 C.ar    1  UNL1       -0.0122
     34 C          14.7274   -2.8339    2.4091 C.ar    1  UNL1       -0.0076
     35 C          13.3089   -2.7390    2.3535 C.ar    1  UNL1        0.1628
     36 O          12.7684   -3.6847    1.5253 O.3     1  UNL1       -0.4914
     37 C          11.4705   -3.5341    0.9814 C.3     1  UNL1        0.0790
     38 C           8.5091   -1.1331    2.6649 C.ar    1  UNL1       -0.0443
     39 C           7.1791   -1.0032    2.2172 C.ar    1  UNL1       -0.0192
     40 H           0.5575    0.6805   -0.7979 H       1  UNL1        0.0230
     41 H           0.5333    0.2452    0.9194 H       1  UNL1        0.0230
     42 H           0.5304   -1.0252   -0.3203 H       1  UNL1        0.0230
     43 H           2.8148    0.9549    0.1814 H       1  UNL1        0.0264
     44 H           2.8096   -0.2998   -1.0582 H       1  UNL1        0.0264
     45 H           2.6240   -2.0640    0.7397 H       1  UNL1        0.0298
     46 H           2.6446   -0.8137    1.9652 H       1  UNL1        0.0298
     47 H           4.8770   -0.0736    1.2619 H       1  UNL1        0.0696
     48 H           4.9000   -1.2756   -0.0636 H       1  UNL1        0.0696
     49 H           6.2821   -4.2714    2.1790 H       1  UNL1        0.0654
     50 H           8.5885   -4.5139    3.0290 H       1  UNL1        0.0627
     51 H          12.9708   -0.0831    4.4706 H       1  UNL1        0.0656
     52 H          15.4362   -0.2262    4.4701 H       1  UNL1        0.0625
     53 H          17.5461   -1.4525    3.9678 H       1  UNL1        0.0851
     54 H          19.5114   -2.6831    3.5311 H       1  UNL1        0.1773
     55 H          21.3529   -4.7286    3.5928 H       1  UNL1        0.0795
     56 H          21.6856   -3.6201    2.2118 H       1  UNL1        0.0795
     57 H          23.0324   -6.3872   -0.2556 H       1  UNL1        0.0654
     58 H          25.2921   -7.3144   -0.3539 H       1  UNL1        0.0625
     59 H          27.4869   -7.6380    0.6438 H       1  UNL1        0.0624
     60 H          28.1509   -6.0738    2.8101 H       1  UNL1        0.0618
     61 H          28.0831   -8.1419    4.4773 H       1  UNL1        0.0618
     62 H          25.7754   -7.1618    5.1494 H       1  UNL1        0.0624
     63 H          23.3881   -5.9809    4.0166 H       1  UNL1        0.0660
     64 H          15.2163   -3.6145    1.8265 H       1  UNL1        0.0662
     65 H          11.3155   -4.3079    0.2251 H       1  UNL1        0.0660
     66 H          11.3120   -2.5552    0.5198 H       1  UNL1        0.0660
     67 H          10.7134   -3.7706    1.7144 H       1  UNL1        0.0660
     68 H           9.1254   -0.2414    2.7396 H       1  UNL1        0.0627
     69 H           6.8073   -0.0029    2.0249 H       1  UNL1        0.0654
@<TRIPOS>BOND
     1     1     2    1
     2     2     3    1
     3     3     4    1
     4     4     5    1
     5     5     6    1
     6     6     7   ar
     7     7     8   ar
     8     8     9   ar
     9     9    10    1
    10    10    11    2
    11    10    12    1
    12    12    13    1
    13    13    14   ar
    14    14    15   ar
    15    15    16   ar
    16    16    17    1
    17    17    18    2
    18    18    19    1
    19    19    20   am
    20    20    21    2
    21    20    22    1
    22    22    23    1
    23    23    24    1
    24    24    25   ar
    25    25    26   ar
    26    26    27   ar
    27    27    28   ar
    28    28    29   ar
    29    29    30   ar
    30    30    31   ar
    31    31    32   ar
    32    27    32   ar
    33    32    33   ar
    34    24    33   ar
    35    16    34   ar
    36    34    35   ar
    37    13    35   ar
    38    35    36    1
    39    36    37    1
    40     9    38   ar
    41    38    39   ar
    42     6    39   ar
    43     1    40    1
    44     1    41    1
    45     1    42    1
    46     2    43    1
    47     2    44    1
    48     3    45    1
    49     3    46    1
    50     4    47    1
    51     4    48    1
    52     7    49    1
    53     8    50    1
    54    14    51    1
    55    15    52    1
    56    17    53    1
    57    19    54    1
    58    22    55    1
    59    22    56    1
    60    25    57    1
    61    26    58    1
    62    28    59    1
    63    29    60    1
    64    30    61    1
    65    31    62    1
    66    33    63    1
    67    34    64    1
    68    37    65    1
    69    37    66    1
    70    37    67    1
    71    38    68    1
    72    39    69    1
