REMARK  11 active torsions:
REMARK  status: ('A' for Active; 'I' for Inactive)
REMARK    1  A    between atoms: C_2  and  O_3 
REMARK    2  A    between atoms: O_3  and  C_4 
REMARK    3  A    between atoms: C_4  and  C_6 
REMARK    4  A    between atoms: C_8  and  C_9 
REMARK       I    between atoms: C_9  and  N_11 
REMARK    5  A    between atoms: N_11  and  N_12 
REMARK    6  A    between atoms: N_12  and  C_13 
REMARK    7  A    between atoms: C_13  and  N_15 
REMARK    8  A    between atoms: N_15  and  C_16 
REMARK    9  A    between atoms: C_16  and  C_17 
REMARK   10  A    between atoms: C_17  and  C_18 
REMARK   11  A    between atoms: C_22  and  N_23 
ROOT
ATOM      1  C   UNL d   1       7.978   1.807   4.684  0.00  0.00     0.270 C 
ATOM      2  O   UNL d   1       8.531   2.376   3.746  0.00  0.00    -0.266 OA
ATOM      3  N   UNL d   1       8.585   1.667   5.930  0.00  0.00    -0.264 N 
ATOM      4  H   UNL d   1       8.182   1.169   6.718  0.00  0.00     0.190 HD
ENDROOT
BRANCH   1   5
ATOM      5  C   UNL d   1       6.606   1.176   4.481  0.00  0.00     0.037 A 
ATOM      6  C   UNL d   1       6.003   1.176   3.197  0.00  0.00     0.034 A 
ATOM      7  C   UNL d   1       4.846   0.405   2.916  0.00  0.00     0.042 A 
ATOM      8  C   UNL d   1       4.248  -0.331   3.942  0.00  0.00     0.053 A 
ATOM      9  C   UNL d   1       4.804  -0.281   5.229  0.00  0.00     0.104 A 
ATOM     10  C   UNL d   1       5.955   0.484   5.509  0.00  0.00     0.053 A 
BRANCH   7  11
ATOM     11  C   UNL d   1       4.393   0.213   1.503  0.00  0.00     0.293 C 
ATOM     12  O   UNL d   1       5.195   0.117   0.580  0.00  0.00    -0.259 OA
BRANCH  11  13
ATOM     13  O   UNL d   1       3.039   0.130   1.387  0.00  0.00    -0.318 OA
BRANCH  13  14
ATOM     14  C   UNL d   1       2.565  -0.080   0.035  0.00  0.00     0.174 C 
ATOM     15  C   UNL d   1       1.043  -0.087   0.003  0.00  0.00     0.034 C 
ENDBRANCH  13  14
ENDBRANCH  11  13
ENDBRANCH   7  11
BRANCH   9  16
ATOM     16  N   UNL d   1       4.237  -1.121   6.295  0.00  0.00    -0.116 N 
ATOM     17  O   UNL d   1       4.775  -1.073   7.410  0.00  0.00    -0.532 OA
ATOM     18  O   UNL d   1       3.269  -1.837   6.009  0.00  0.00    -0.532 OA
ENDBRANCH   9  16
ENDBRANCH   1   5
BRANCH   3  19
ATOM     19  N   UNL d   1       9.900   2.177   6.196  0.00  0.00    -0.274 N 
ATOM     20  H   UNL d   1      10.368   2.634   5.417  0.00  0.00     0.189 HD
BRANCH  19  21
ATOM     21  C   UNL d   1      10.450   2.033   7.470  0.00  0.00     0.186 C 
ATOM     22  S   UNL d   1       9.624   1.239   8.709  0.00  0.00    -0.040 SA
BRANCH  21  23
ATOM     23  N   UNL d   1      11.710   2.602   7.628  0.00  0.00    -0.366 N 
ATOM     24  H   UNL d   1      12.166   3.031   6.833  0.00  0.00     0.161 HD
BRANCH  23  25
ATOM     25  C   UNL d   1      12.466   2.537   8.888  0.00  0.00     0.122 C 
BRANCH  25  26
ATOM     26  C   UNL d   1      13.855   3.184   8.870  0.00  0.00     0.023 C 
BRANCH  26  27
ATOM     27  C   UNL d   1      14.571   3.067  10.239  0.00  0.00    -0.021 C 
ATOM     28  C   UNL d   1      14.766   1.608  10.662  0.00  0.00     0.009 C 
ATOM     29  C   UNL d   1      15.935   3.759  10.193  0.00  0.00     0.009 C 
ENDBRANCH  26  27
ENDBRANCH  25  26
ENDBRANCH  23  25
ENDBRANCH  21  23
ENDBRANCH  19  21
ENDBRANCH   3  19
TORSDOF 11
