REMARK  9 active torsions:
REMARK  status: ('A' for Active; 'I' for Inactive)
REMARK    1  A    between atoms: C_6  and  O_7 
REMARK    2  A    between atoms: O_7  and  C_8 
REMARK    3  A    between atoms: C_8  and  C_10 
REMARK       I    between atoms: C_10  and  N_12 
REMARK    4  A    between atoms: N_12  and  N_13 
REMARK       I    between atoms: N_13  and  C_14 
REMARK    5  A    between atoms: C_14  and  C_16 
REMARK    6  A    between atoms: C_19  and  N_20 
REMARK       I    between atoms: N_20  and  C_21 
REMARK    7  A    between atoms: C_21  and  C_23 
REMARK    8  A    between atoms: C_23  and  S_24 
REMARK    9  A    between atoms: S_24  and  C_25 
ROOT
ATOM      1  N   UNL d   1      -2.404  -7.361  -0.053  0.00  0.00    -0.263 N 
ATOM      2  C   UNL d   1      -3.480  -8.237  -0.148  0.00  0.00     0.270 C 
ATOM      3  O   UNL d   1      -4.651  -7.852  -0.227  0.00  0.00    -0.266 OA
ATOM      4  H   UNL d   1      -1.427  -7.657  -0.059  0.00  0.00     0.190 HD
ENDROOT
BRANCH   2   5
ATOM      5  C   UNL d   1      -3.178  -9.707  -0.110  0.00  0.00     0.033 A 
ATOM      6  C   UNL d   1      -3.896 -10.656  -0.861  0.00  0.00     0.019 A 
ATOM      7  C   UNL d   1      -3.666 -12.056  -0.701  0.00  0.00     0.030 A 
ATOM      8  C   UNL d   1      -2.677 -12.526   0.179  0.00  0.00     0.034 A 
ATOM      9  C   UNL d   1      -2.014 -11.553   0.938  0.00  0.00     0.030 A 
ATOM     10  C   UNL d   1      -2.242 -10.177   0.799  0.00  0.00     0.019 A 
BRANCH   8  11
ATOM     11  N   UNL d   1      -2.351 -13.930   0.274  0.00  0.00    -0.327 N 
ATOM     12  C   UNL d   1      -1.305 -14.442   1.060  0.00  0.00     0.231 C 
ATOM     13  O   UNL d   1      -0.597 -13.723   1.768  0.00  0.00    -0.272 OA
ATOM     14  H   UNL d   1      -2.863 -14.563  -0.331  0.00  0.00     0.169 HD
BRANCH  12  15
ATOM     15  C   UNL d   1      -1.023 -15.967   1.011  0.00  0.00     0.185 C 
BRANCH  15  16
ATOM     16  S   UNL d   1       0.393 -16.298   2.154  0.00  0.00    -0.083 SA
BRANCH  16  17
ATOM     17  C   UNL d   1       0.711 -17.988   2.095  0.00  0.00     0.168 A 
ATOM     18  N   UNL d   1      -0.176 -18.949   1.987  0.00  0.00    -0.235 NA
ATOM     19  C   UNL d   1       0.541 -20.116   2.117  0.00  0.00     0.136 A 
ATOM     20  C   UNL d   1       1.881 -19.858   2.289  0.00  0.00     0.112 A 
ATOM     21  N   UNL d   1       1.978 -18.491   2.285  0.00  0.00    -0.339 N 
ATOM     22  C   UNL d   1       3.214 -17.755   2.421  0.00  0.00     0.158 C 
ENDBRANCH  16  17
ENDBRANCH  15  16
ENDBRANCH  12  15
ENDBRANCH   8  11
ENDBRANCH   2   5
BRANCH   1  23
ATOM     23  N   UNL d   1      -2.624  -5.953  -0.035  0.00  0.00    -0.265 N 
ATOM     24  C   UNL d   1      -1.526  -5.090  -0.037  0.00  0.00     0.265 C 
ATOM     25  O   UNL d   1      -0.377  -5.539  -0.003  0.00  0.00    -0.269 OA
ATOM     26  H   UNL d   1      -3.598  -5.654  -0.053  0.00  0.00     0.190 HD
BRANCH  24  27
ATOM     27  C   UNL d   1      -1.852  -3.555  -0.080  0.00  0.00     0.218 C 
ATOM     28  C   UNL d   1      -2.640  -3.274  -1.365  0.00  0.00     0.050 C 
BRANCH  27  29
ATOM     29  O   UNL d   1      -0.631  -2.789  -0.039  0.00  0.00    -0.336 OA
BRANCH  29  30
ATOM     30  C   UNL d   1      -0.665  -1.415   0.040  0.00  0.00     0.076 A 
ATOM     31  C   UNL d   1      -1.845  -0.669   0.120  0.00  0.00     0.037 A 
ATOM     32  C   UNL d   1      -1.832   0.722   0.074  0.00  0.00     0.003 A 
ATOM     33  C   UNL d   1      -0.625   1.401   0.022  0.00  0.00     0.007 A 
ATOM     34  C   UNL d   1       0.585   0.693   0.004  0.00  0.00    -0.053 A 
ATOM     35  C   UNL d   1       1.867   1.483  -0.019  0.00  0.00     0.049 C 
ATOM     36  C   UNL d   1       0.572  -0.729   0.010  0.00  0.00    -0.023 A 
ATOM     37  C   UNL d   1       1.881  -1.482   0.018  0.00  0.00     0.052 C 
ENDBRANCH  29  30
ENDBRANCH  27  29
ENDBRANCH  24  27
ENDBRANCH   1  23
TORSDOF 9
