@<TRIPOS>MOLECULE
*****
 39 40 0 0 0
SMALL
GASTEIGER

@<TRIPOS>ATOM
      1 C           1.1011    0.0073    0.0269 C.3     1  UNL1       -0.0189
      2 C           2.6393   -0.0579    0.0007 C.3     1  UNL1        0.1762
      3 O           3.0817   -1.3945   -0.3207 O.3     1  UNL1       -0.4476
      4 C           2.7555   -2.3897    0.5596 C.2     1  UNL1        0.3599
      5 O           2.1093   -2.2536    1.5875 O.2     1  UNL1       -0.2432
      6 C           3.3087   -3.7111    0.1324 C.ar    1  UNL1        0.1674
      7 N           2.4588   -4.7789    0.2541 N.ar    1  UNL1       -0.2272
      8 C           2.9682   -5.9984   -0.0256 C.ar    1  UNL1        0.1302
      9 CL          1.8773   -7.3127    0.1322 Cl      1  UNL1       -0.0620
     10 C           4.2768   -6.2260   -0.4131 C.ar    1  UNL1       -0.0234
     11 C           5.1257   -5.1272   -0.5171 C.ar    1  UNL1       -0.0382
     12 C           4.6464   -3.8454   -0.2368 C.ar    1  UNL1        0.0734
     13 CL          5.7763   -2.5432   -0.2970 Cl      1  UNL1       -0.0811
     14 C           3.1139    0.9868   -1.0581 C.2     1  UNL1        0.2578
     15 O           2.2813    1.6455   -1.6896 O.2     1  UNL1       -0.2714
     16 N           4.4876    1.1530   -1.2549 N.am    1  UNL1       -0.2825
     17 C           4.9781    2.1409   -2.1624 C.ar    1  UNL1        0.0336
     18 C           6.0223    1.8828   -3.0622 C.ar    1  UNL1       -0.0386
     19 C           6.4317    2.8757   -3.9822 C.ar    1  UNL1       -0.0336
     20 C           5.7793    4.1161   -4.0109 C.ar    1  UNL1        0.1051
     21 S           6.0939    5.2907   -5.3116 S.O2    1  UNL1        0.0559
     22 N           7.6997    5.6496   -5.0737 N.3     1  UNL1       -0.2035
     23 O           5.9961    4.5848   -6.5735 O.2     1  UNL1       -0.1533
     24 O           5.3603    6.4974   -5.0337 O.2     1  UNL1       -0.1533
     25 C           4.7860    4.3993   -3.0796 C.ar    1  UNL1       -0.0336
     26 C           4.3980    3.4165   -2.1673 C.ar    1  UNL1       -0.0386
     27 H           0.6524   -0.6622    0.7622 H       1  UNL1        0.0270
     28 H           0.6955   -0.2884   -0.9482 H       1  UNL1        0.0270
     29 H           0.7474    1.0190    0.2546 H       1  UNL1        0.0270
     30 H           3.0493    0.2444    0.9736 H       1  UNL1        0.0830
     31 H           4.6380   -7.2286   -0.6214 H       1  UNL1        0.0648
     32 H           6.1648   -5.2775   -0.7984 H       1  UNL1        0.0634
     33 H           5.1293    0.4548   -0.8993 H       1  UNL1        0.1549
     34 H           6.4607    0.8905   -3.1436 H       1  UNL1        0.0637
     35 H           7.2228    2.6613   -4.6991 H       1  UNL1        0.0638
     36 H           8.3738    4.9784   -5.4214 H       1  UNL1        0.1442
     37 H           7.9122    6.2712   -4.3004 H       1  UNL1        0.1442
     38 H           4.2739    5.3583   -3.0707 H       1  UNL1        0.0638
     39 H           3.6095    3.6587   -1.4592 H       1  UNL1        0.0637
@<TRIPOS>BOND
     1     1     2    1
     2     2     3    1
     3     3     4    1
     4     4     5    2
     5     4     6    1
     6     6     7   ar
     7     7     8   ar
     8     8     9    1
     9     8    10   ar
    10    10    11   ar
    11    11    12   ar
    12     6    12   ar
    13    12    13    1
    14     2    14    1
    15    14    15    2
    16    14    16   am
    17    16    17    1
    18    17    18   ar
    19    18    19   ar
    20    19    20   ar
    21    20    21    1
    22    21    22    1
    23    21    23    2
    24    21    24    2
    25    20    25   ar
    26    25    26   ar
    27    17    26   ar
    28     1    27    1
    29     1    28    1
    30     1    29    1
    31     2    30    1
    32    10    31    1
    33    11    32    1
    34    16    33    1
    35    18    34    1
    36    19    35    1
    37    22    36    1
    38    22    37    1
    39    25    38    1
    40    26    39    1
