REMARK  4 active torsions:
REMARK  status: ('A' for Active; 'I' for Inactive)
REMARK    1  A    between atoms: C_7  and  N_8 
REMARK       I    between atoms: N_8  and  C_9 
REMARK       I    between atoms: C_9  and  N_11 
REMARK    2  A    between atoms: N_11  and  C_12 
REMARK    3  A    between atoms: C_15  and  O_16 
REMARK    4  A    between atoms: O_16  and  C_17 
ROOT
ATOM      1  C   UNL d   1       4.571   3.917  -0.111  0.00  0.00     0.036 A 
ATOM      2  C   UNL d   1       5.327   4.765   0.698  0.00  0.00     0.032 A 
ATOM      3  C   UNL d   1       6.742   4.758   0.609  0.00  0.00     0.039 A 
ATOM      4  C   UNL d   1       7.421   3.847  -0.219  0.00  0.00     0.076 A 
ATOM      5  C   UNL d   1       6.667   2.957  -0.970  0.00  0.00     0.039 A 
ATOM      6  C   UNL d   1       5.274   3.010  -0.931  0.00  0.00     0.032 A 
ENDROOT
BRANCH   1   7
ATOM      7  N   UNL d   1       3.118   3.890  -0.086  0.00  0.00    -0.309 N 
ATOM      8  C   UNL d   1       2.541   2.643   0.055  0.00  0.00     0.325 C 
ATOM      9  N   UNL d   1       1.170   2.491  -0.017  0.00  0.00    -0.308 N 
ATOM     10  O   UNL d   1       3.337   1.731   0.256  0.00  0.00    -0.247 OA
ATOM     11  H   UNL d   1       0.606   3.330  -0.036  0.00  0.00     0.170 HD
ATOM     12  H   UNL d   1       2.637   4.691   0.293  0.00  0.00     0.170 HD
BRANCH   9  13
ATOM     13  C   UNL d   1       0.430   1.224  -0.001  0.00  0.00     0.042 A 
ATOM     14  C   UNL d   1      -0.984   1.269  -0.004  0.00  0.00     0.030 A 
ATOM     15  C   UNL d   1      -1.773   0.090  -0.007  0.00  0.00     0.002 A 
ATOM     16  C   UNL d   1      -1.181  -1.165  -0.000  0.00  0.00     0.001 A 
ATOM     17  C   UNL d   1       0.193  -1.242   0.004  0.00  0.00     0.009 A 
ATOM     18  C   UNL d   1       0.994  -0.081  -0.004  0.00  0.00    -0.035 A 
ATOM     19  C   UNL d   1       2.450  -0.407  -0.014  0.00  0.00     0.050 C 
ENDBRANCH   9  13
ENDBRANCH   1   7
BRANCH   4  20
ATOM     20  O   UNL d   1       8.804   3.873  -0.196  0.00  0.00    -0.311 OA
BRANCH  20  21
ATOM     21  C   UNL d   1       9.504   2.952  -0.951  0.00  0.00     0.076 A 
ATOM     22  C   UNL d   1      10.339   2.048  -0.290  0.00  0.00     0.037 A 
ATOM     23  C   UNL d   1      11.117   1.148  -1.027  0.00  0.00     0.003 A 
ATOM     24  C   UNL d   1      11.009   1.104  -2.418  0.00  0.00     0.000 A 
ATOM     25  C   UNL d   1      10.177   2.006  -3.079  0.00  0.00     0.003 A 
ATOM     26  C   UNL d   1       9.456   2.955  -2.350  0.00  0.00     0.037 A 
ENDBRANCH  20  21
ENDBRANCH   4  20
TORSDOF 4
