@<TRIPOS>MOLECULE
*****
 39 39 0 0 0
SMALL
GASTEIGER

@<TRIPOS>ATOM
      1 C           2.4611    0.0033   -0.0129 C.3     1  UNL1       -0.0397
      2 C           0.9573   -0.0011    0.0003 C.ar    1  UNL1       -0.0503
      3 C           0.2396   -1.2017    0.0020 C.ar    1  UNL1       -0.0570
      4 C          -1.1618   -1.1894   -0.0083 C.ar    1  UNL1       -0.0351
      5 C          -1.8633    0.0281   -0.0202 C.ar    1  UNL1        0.1068
      6 S          -3.6473   -0.0441   -0.0804 S.O2    1  UNL1        0.0735
      7 O          -4.0026   -0.6471   -1.3432 O.2     1  UNL1       -0.1517
      8 O          -4.0960   -0.6097    1.1786 O.2     1  UNL1       -0.1517
      9 N          -4.2340    1.5604   -0.1455 N.3     1  UNL1       -0.1092
     10 N          -5.7188    1.7640   -0.0862 N.am    1  UNL1       -0.2498
     11 C          -6.3115    3.0244   -0.1292 C.2     1  UNL1        0.1219
     12 S          -5.4446    4.4537   -0.1510 S.2     1  UNL1       -0.0269
     13 S          -8.0690    2.8846   -0.1361 S.3     1  UNL1       -0.0923
     14 C          -8.7509    4.6053   -0.1560 C.3     1  UNL1        0.0765
     15 C         -10.3012    4.5846   -0.1953 C.2     1  UNL1        0.2252
     16 O         -10.9557    3.5512   -0.3038 O.2     1  UNL1       -0.2748
     17 N         -10.9345    5.8205   -0.0987 N.am    1  UNL1       -0.2862
     18 C         -12.4016    5.9340   -0.1988 C.3     1  UNL1        0.1685
     19 O         -12.9337    5.2526    0.9386 O.3     1  UNL1       -0.3702
     20 C         -12.9658    7.4036   -0.2633 C.3     1  UNL1        0.2323
     21 CL        -12.4333    8.3085    1.2049 Cl      1  UNL1       -0.0788
     22 CL        -12.3332    8.2624   -1.7025 Cl      1  UNL1       -0.0788
     23 CL        -14.7578    7.4265   -0.3136 Cl      1  UNL1       -0.0788
     24 C          -1.1557    1.2299    0.0005 C.ar    1  UNL1       -0.0351
     25 C           0.2485    1.2097    0.0047 C.ar    1  UNL1       -0.0570
     26 H           2.8697   -1.0132    0.0005 H       1  UNL1        0.0278
     27 H           2.8504    0.5295    0.8650 H       1  UNL1        0.0278
     28 H           2.8300    0.4972   -0.9182 H       1  UNL1        0.0278
     29 H           0.7665   -2.1551    0.0066 H       1  UNL1        0.0621
     30 H          -1.6976   -2.1375   -0.0081 H       1  UNL1        0.0637
     31 H          -3.7396    2.2018   -0.7711 H       1  UNL1        0.1715
     32 H          -6.2861    0.9208    0.0171 H       1  UNL1        0.1689
     33 H          -8.3986    5.1396   -1.0448 H       1  UNL1        0.0475
     34 H          -8.4355    5.1394    0.7465 H       1  UNL1        0.0475
     35 H         -10.3888    6.6688   -0.2011 H       1  UNL1        0.1513
     36 H         -12.7272    5.3834   -1.0914 H       1  UNL1        0.0849
     37 H         -12.5965    5.7069    1.7275 H       1  UNL1        0.2119
     38 H          -1.6580    2.1900    0.0192 H       1  UNL1        0.0637
     39 H           0.7958    2.1513    0.0104 H       1  UNL1        0.0621
@<TRIPOS>BOND
     1     1     2    1
     2     2     3   ar
     3     3     4   ar
     4     4     5   ar
     5     5     6    1
     6     6     7    2
     7     6     8    2
     8     6     9    1
     9     9    10    1
    10    10    11    1
    11    11    12    2
    12    11    13    1
    13    13    14    1
    14    14    15    1
    15    15    16    2
    16    15    17   am
    17    17    18    1
    18    18    19    1
    19    18    20    1
    20    20    21    1
    21    20    22    1
    22    20    23    1
    23     5    24   ar
    24    24    25   ar
    25     2    25   ar
    26     1    26    1
    27     1    27    1
    28     1    28    1
    29     3    29    1
    30     4    30    1
    31     9    31    1
    32    10    32    1
    33    14    33    1
    34    14    34    1
    35    17    35    1
    36    18    36    1
    37    19    37    1
    38    24    38    1
    39    25    39    1
