@<TRIPOS>MOLECULE
*****
 57 59 0 0 0
SMALL
GASTEIGER

@<TRIPOS>ATOM
      1 C           1.0825   -0.0668    0.0208 C.3     1  UNL1        0.0788
      2 O           2.5031   -0.1593   -0.1088 O.3     1  UNL1       -0.4950
      3 C           3.1186    1.0362   -0.3647 C.ar    1  UNL1        0.1243
      4 C           4.3010    1.0153   -1.1467 C.ar    1  UNL1        0.0218
      5 C           5.0470    2.1729   -1.3659 C.ar    1  UNL1        0.1243
      6 O           6.2552    2.0992   -2.0069 O.3     1  UNL1       -0.4950
      7 C           7.0628    3.2922   -2.0041 C.3     1  UNL1        0.0788
      8 C           4.5159    3.3423   -0.8862 C.ar    1  UNL1       -0.0061
      9 C           3.3445    3.3578   -0.0824 C.ar    1  UNL1        0.0630
     10 C           2.9585    4.6248    0.5023 C.2     1  UNL1        0.3408
     11 O           3.8045    5.4281    0.1086 O.2     1  UNL1       -0.2483
     12 N           1.8920    4.8031    1.3715 N.am    1  UNL1        0.0006
     13 C           1.5790    5.9579    1.9189 C.2     1  UNL1        0.3844
     14 N           2.1655    7.1908    1.7533 N.pl3   1  UNL1       -0.2729
     15 C           3.3463    7.4107    0.9859 C.3     1  UNL1        0.0912
     16 C           3.9236    8.7519    0.9030 C.ar    1  UNL1        0.0040
     17 C           3.1217    9.8715    0.8945 C.ar    1  UNL1       -0.0527
     18 C           3.7356   11.0938    0.7767 C.ar    1  UNL1       -0.0432
     19 C           5.1157   11.1272    0.6169 C.ar    1  UNL1        0.0276
     20 N           5.9121   10.0401    0.5249 N.ar    1  UNL1       -0.2629
     21 C           5.2936    8.8612    0.6553 C.ar    1  UNL1        0.0337
     22 N           0.5341    6.0177    2.8432 N.pl3   1  UNL1       -0.2450
     23 C          -0.1644    7.1374    3.3752 C.ar    1  UNL1        0.1001
     24 C          -0.6998    7.1055    4.6708 C.ar    1  UNL1       -0.0229
     25 C          -1.3739    8.2205    5.2078 C.ar    1  UNL1       -0.0553
     26 C          -1.4505    9.4303    4.5024 C.ar    1  UNL1       -0.0473
     27 C          -2.0537   10.6494    5.1452 C.3     1  UNL1       -0.0395
     28 C          -0.9249    9.4805    3.2053 C.ar    1  UNL1       -0.0443
     29 C          -1.0081   10.7005    2.3320 C.3     1  UNL1       -0.0394
     30 C          -0.3119    8.3353    2.6637 C.ar    1  UNL1       -0.0200
     31 C           2.6576    2.2140    0.2000 C.ar    1  UNL1       -0.0061
     32 H           0.7155   -1.0374    0.3567 H       1  UNL1        0.0660
     33 H           0.6436    0.1699   -0.9530 H       1  UNL1        0.0660
     34 H           0.7388    0.6553    0.7699 H       1  UNL1        0.0660
     35 H           4.6397    0.0817   -1.5829 H       1  UNL1        0.0691
     36 H           8.0461    3.0530   -2.4215 H       1  UNL1        0.0660
     37 H           7.2322    3.6844   -0.9911 H       1  UNL1        0.0660
     38 H           6.6181    4.0661   -2.6417 H       1  UNL1        0.0660
     39 H           5.0303    4.2773   -1.0999 H       1  UNL1        0.0662
     40 H           2.0135    7.8688    2.4851 H       1  UNL1        0.2580
     41 H           3.0756    7.2253   -0.0621 H       1  UNL1        0.0707
     42 H           4.1362    6.8200    1.4665 H       1  UNL1        0.0707
     43 H           2.0445    9.7670    0.9657 H       1  UNL1        0.0622
     44 H           3.1424   11.9944    0.8124 H       1  UNL1        0.0633
     45 H           5.6375   12.0726    0.5522 H       1  UNL1        0.0829
     46 H           5.9275    7.9786    0.5436 H       1  UNL1        0.0833
     47 H           0.0412    5.1438    2.9872 H       1  UNL1        0.2646
     48 H          -0.5804    6.2274    5.3021 H       1  UNL1        0.0652
     49 H          -1.8358    8.1412    6.1915 H       1  UNL1        0.0621
     50 H          -2.4225   10.4443    6.1543 H       1  UNL1        0.0278
     51 H          -2.8948   11.0241    4.5527 H       1  UNL1        0.0278
     52 H          -1.2927   11.4349    5.2270 H       1  UNL1        0.0278
     53 H          -1.5501   11.5251    2.7993 H       1  UNL1        0.0278
     54 H          -1.5401   10.4440    1.4105 H       1  UNL1        0.0278
     55 H          -0.0045   11.0606    2.0851 H       1  UNL1        0.0278
     56 H           0.0489    8.3924    1.6395 H       1  UNL1        0.0655
     57 H           1.8109    2.2846    0.8676 H       1  UNL1        0.0662
@<TRIPOS>BOND
     1     1     2    1
     2     2     3    1
     3     3     4   ar
     4     4     5   ar
     5     5     6    1
     6     6     7    1
     7     5     8   ar
     8     8     9   ar
     9     9    10    1
    10    10    11    2
    11    10    12    1
    12    12    13    2
    13    13    14    1
    14    14    15    1
    15    15    16    1
    16    16    17   ar
    17    17    18   ar
    18    18    19   ar
    19    19    20   ar
    20    20    21   ar
    21    16    21   ar
    22    13    22    1
    23    22    23    1
    24    23    24   ar
    25    24    25   ar
    26    25    26   ar
    27    26    27    1
    28    26    28   ar
    29    28    29    1
    30    28    30   ar
    31    23    30   ar
    32     9    31   ar
    33     3    31   ar
    34     1    32    1
    35     1    33    1
    36     1    34    1
    37     4    35    1
    38     7    36    1
    39     7    37    1
    40     7    38    1
    41     8    39    1
    42    14    40    1
    43    15    41    1
    44    15    42    1
    45    17    43    1
    46    18    44    1
    47    19    45    1
    48    21    46    1
    49    22    47    1
    50    24    48    1
    51    25    49    1
    52    27    50    1
    53    27    51    1
    54    27    52    1
    55    29    53    1
    56    29    54    1
    57    29    55    1
    58    30    56    1
    59    31    57    1
