@<TRIPOS>MOLECULE
*****
 61 63 0 0 0
SMALL
GASTEIGER

@<TRIPOS>ATOM
      1 C           0.9289   -0.0892   -0.0066 C.3     1  UNL1       -0.0203
      2 C           2.4399   -0.0322    0.0645 C.2     1  UNL1        0.0634
      3 N           3.1389    0.7330    0.8556 N.2     1  UNL1       -0.1844
      4 N           2.5298    1.5781    1.7362 N.pl3   1  UNL1       -0.2052
      5 C           3.2514    2.3838    2.5560 C.ar    1  UNL1        0.2317
      6 N           4.3139    3.1283    2.3211 N.ar    1  UNL1       -0.1865
      7 C           4.6129    3.6550    3.5449 C.ar    1  UNL1        0.2105
      8 S           5.9393    4.7174    3.8967 S.3     1  UNL1       -0.0750
      9 C           6.7413    5.1024    2.2957 C.3     1  UNL1        0.0780
     10 C           7.9465    6.0396    2.5634 C.2     1  UNL1        0.2275
     11 O           8.2482    6.4053    3.7018 O.2     1  UNL1       -0.2746
     12 N           8.6582    6.4844    1.4440 N.am    1  UNL1       -0.2848
     13 C           9.8230    7.2960    1.5652 C.ar    1  UNL1        0.0335
     14 C          10.0809    8.3197    0.6476 C.ar    1  UNL1       -0.0386
     15 C          11.2541    9.0774    0.7638 C.ar    1  UNL1       -0.0336
     16 C          12.1501    8.8396    1.8199 C.ar    1  UNL1        0.1054
     17 S          13.5081    9.9552    1.9686 S.O2    1  UNL1        0.0589
     18 O          14.3223    9.7114    0.8071 O.2     1  UNL1       -0.1530
     19 O          12.9004   11.2485    2.2287 O.2     1  UNL1       -0.1530
     20 N          14.4335    9.5031    3.3493 N.3     1  UNL1       -0.1846
     21 C          15.6285   10.3858    3.6709 C.3     1  UNL1        0.0316
     22 C          16.6332   10.3403    2.5152 C.3     1  UNL1       -0.0457
     23 C          15.1895   11.8229    3.9644 C.3     1  UNL1       -0.0457
     24 C          16.3450    9.8565    4.9295 C.3     1  UNL1       -0.0457
     25 C          11.9209    7.8166    2.7231 C.ar    1  UNL1       -0.0336
     26 C          10.7574    7.0542    2.5872 C.ar    1  UNL1       -0.0386
     27 N           3.7969    3.2740    4.5370 N.ar    1  UNL1       -0.1443
     28 N           2.9388    2.4769    3.8859 N.ar    1  UNL1       -0.2446
     29 C           3.1821   -0.9630   -0.8510 C.ar    1  UNL1       -0.0025
     30 C           4.2591   -1.7009   -0.3454 C.ar    1  UNL1       -0.0528
     31 C           5.0238   -2.5067   -1.1957 C.ar    1  UNL1       -0.0611
     32 C           4.6791   -2.6314   -2.5405 C.ar    1  UNL1       -0.0617
     33 C           3.5944   -1.9161   -3.0467 C.ar    1  UNL1       -0.0611
     34 C           2.8488   -1.0780   -2.2072 C.ar    1  UNL1       -0.0528
     35 H           0.4348    0.5709    0.7045 H       1  UNL1        0.0293
     36 H           0.5990   -1.1099    0.2109 H       1  UNL1        0.0293
     37 H           0.5863    0.1984   -1.0031 H       1  UNL1        0.0293
     38 H           1.5279    1.5192    1.8851 H       1  UNL1        0.1774
     39 H           6.0303    5.6076    1.6351 H       1  UNL1        0.0475
     40 H           7.1011    4.1829    1.8240 H       1  UNL1        0.0475
     41 H           8.2706    6.3635    0.5165 H       1  UNL1        0.1548
     42 H           9.3565    8.6054   -0.1110 H       1  UNL1        0.0637
     43 H          11.4653    9.8758    0.0504 H       1  UNL1        0.0638
     44 H          14.7278    8.5287    3.2554 H       1  UNL1        0.1486
     45 H          16.2183   10.7568    1.5961 H       1  UNL1        0.0248
     46 H          16.9429    9.3085    2.3100 H       1  UNL1        0.0248
     47 H          17.5255   10.9332    2.7351 H       1  UNL1        0.0248
     48 H          14.7241   12.2990    3.1008 H       1  UNL1        0.0248
     49 H          16.0463   12.4546    4.2194 H       1  UNL1        0.0248
     50 H          14.4771   11.8555    4.7970 H       1  UNL1        0.0248
     51 H          16.7042    8.8301    4.7991 H       1  UNL1        0.0248
     52 H          15.6981    9.8768    5.8132 H       1  UNL1        0.0248
     53 H          17.2222   10.4797    5.1559 H       1  UNL1        0.0248
     54 H          12.6048    7.6025    3.5360 H       1  UNL1        0.0638
     55 H          10.5917    6.2485    3.2973 H       1  UNL1        0.0637
     56 H           2.2278    1.9801    4.4093 H       1  UNL1        0.1919
     57 H           4.5084   -1.6519    0.7119 H       1  UNL1        0.0624
     58 H           5.8983   -3.0266   -0.8114 H       1  UNL1        0.0618
     59 H           5.2592   -3.2811   -3.1931 H       1  UNL1        0.0618
     60 H           3.3457   -1.9957   -4.1029 H       1  UNL1        0.0618
     61 H           2.0341   -0.5042   -2.6379 H       1  UNL1        0.0624
@<TRIPOS>BOND
     1     1     2    1
     2     2     3    2
     3     3     4    1
     4     4     5    1
     5     5     6   ar
     6     6     7   ar
     7     7     8    1
     8     8     9    1
     9     9    10    1
    10    10    11    2
    11    10    12   am
    12    12    13    1
    13    13    14   ar
    14    14    15   ar
    15    15    16   ar
    16    16    17    1
    17    17    18    2
    18    17    19    2
    19    17    20    1
    20    20    21    1
    21    21    22    1
    22    21    23    1
    23    21    24    1
    24    16    25   ar
    25    25    26   ar
    26    13    26   ar
    27     7    27   ar
    28    27    28   ar
    29     5    28   ar
    30     2    29    1
    31    29    30   ar
    32    30    31   ar
    33    31    32   ar
    34    32    33   ar
    35    33    34   ar
    36    29    34   ar
    37     1    35    1
    38     1    36    1
    39     1    37    1
    40     4    38    1
    41     9    39    1
    42     9    40    1
    43    12    41    1
    44    14    42    1
    45    15    43    1
    46    20    44    1
    47    22    45    1
    48    22    46    1
    49    22    47    1
    50    23    48    1
    51    23    49    1
    52    23    50    1
    53    24    51    1
    54    24    52    1
    55    24    53    1
    56    25    54    1
    57    26    55    1
    58    28    56    1
    59    30    57    1
    60    31    58    1
    61    32    59    1
    62    33    60    1
    63    34    61    1
