REMARK  5 active torsions:
REMARK  status: ('A' for Active; 'I' for Inactive)
REMARK    1  A    between atoms: C_2  and  O_3 
REMARK    2  A    between atoms: C_2  and  C_4 
REMARK    3  A    between atoms: C_2  and  C_11 
REMARK    4  A    between atoms: C_4  and  N_5 
REMARK       I    between atoms: N_5  and  C_6 
REMARK    5  A    between atoms: C_6  and  C_8 
ROOT
ATOM      1  C   UNL d   1       0.941   0.038   0.055  0.00  0.00     0.053 C 
ATOM      2  C   UNL d   1       2.480   0.068   0.050  0.00  0.00     0.097 C 
ENDROOT
BRANCH   2   3
ATOM      3  O   UNL d   1       2.941  -0.468  -1.197  0.00  0.00    -0.384 OA
ATOM      4  H   UNL d   1       2.663   0.138  -1.901  0.00  0.00     0.211 HD
ENDBRANCH   2   3
BRANCH   2   5
ATOM      5  C   UNL d   1       2.980   1.526   0.202  0.00  0.00     0.165 C 
BRANCH   5   6
ATOM      6  N   UNL d   1       2.571   2.433  -0.859  0.00  0.00    -0.358 N 
ATOM      7  C   UNL d   1       2.913   3.761  -0.774  0.00  0.00     0.221 C 
ATOM      8  O   UNL d   1       3.607   4.231   0.123  0.00  0.00    -0.273 OA
ATOM      9  H   UNL d   1       1.920   2.135  -1.569  0.00  0.00     0.162 HD
BRANCH   7  10
ATOM     10  C   UNL d   1       2.381   4.618  -1.868  0.00  0.00     0.078 A 
ATOM     11  C   UNL d   1       2.379   6.123  -1.706  0.00  0.00     0.015 A 
ATOM     12  C   UNL d   1       3.330   5.479  -2.672  0.00  0.00     0.015 A 
ENDBRANCH   7  10
ENDBRANCH   5   6
ENDBRANCH   2   5
BRANCH   2  13
ATOM     13  C   UNL d   1       2.953  -0.841   1.185  0.00  0.00    -0.023 A 
ATOM     14  C   UNL d   1       2.878  -2.237   1.045  0.00  0.00     0.010 A 
ATOM     15  C   UNL d   1       3.007  -3.068   2.158  0.00  0.00     0.001 A 
ATOM     16  C   UNL d   1       3.322  -2.527   3.403  0.00  0.00     0.000 A 
ATOM     17  C   UNL d   1       3.482  -1.154   3.543  0.00  0.00     0.001 A 
ATOM     18  C   UNL d   1       3.300  -0.321   2.444  0.00  0.00     0.010 A 
ENDBRANCH   2  13
TORSDOF 5
