@<TRIPOS>MOLECULE
*****
 49 51 0 0 0
SMALL
GASTEIGER

@<TRIPOS>ATOM
      1 O           1.0461   -0.0956   -0.0613 O.2     1  UNL1       -0.2513
      2 C           2.2687   -0.0716    0.0439 C.2     1  UNL1        0.3160
      3 N           2.9337    1.0252    0.5207 N.am    1  UNL1       -0.2982
      4 C           2.2171    2.1629    1.0690 C.3     1  UNL1        0.0147
      5 C           3.1819    3.2127    1.6001 C.3     1  UNL1       -0.0191
      6 C           2.4605    4.4064    2.2183 C.3     1  UNL1        0.0296
      7 N           3.3988    5.4274    2.7278 N.ar    1  UNL1       -0.2957
      8 C           4.6144    5.2040    3.3722 C.ar    1  UNL1        0.0732
      9 C           5.1374    6.4268    3.6788 C.ar    1  UNL1        0.1870
     10 N           4.2244    7.3538    3.2416 N.ar    1  UNL1       -0.2011
     11 C           3.1728    6.7526    2.6770 C.ar    1  UNL1        0.2463
     12 N           3.0459   -1.1493   -0.2990 N.am    1  UNL1       -0.2180
     13 N           4.4583   -1.1959   -0.3544 N.am    1  UNL1       -0.2291
     14 C           5.0580   -2.3826   -0.7832 C.2     1  UNL1        0.2628
     15 O           4.4630   -3.4564   -0.8711 O.2     1  UNL1       -0.2686
     16 C           6.5062   -2.3178   -1.0729 C.ar    1  UNL1        0.0703
     17 C           7.3052   -1.9270    0.0132 C.ar    1  UNL1       -0.0456
     18 C           8.6897   -1.9688   -0.0782 C.ar    1  UNL1       -0.0428
     19 C           9.2431   -2.3872   -1.2683 C.ar    1  UNL1        0.0289
     20 N           8.5014   -2.7299   -2.3459 N.ar    1  UNL1       -0.2477
     21 C           7.1313   -2.7193   -2.2599 C.ar    1  UNL1        0.1137
     22 S           6.3954   -3.2274   -3.8081 S.3     1  UNL1       -0.0692
     23 C           4.6393   -3.0013   -3.6944 C.ar    1  UNL1        0.0142
     24 C           3.7883   -4.1102   -3.7921 C.ar    1  UNL1       -0.0479
     25 C           2.4050   -3.9609   -3.6466 C.ar    1  UNL1       -0.0607
     26 C           1.8678   -2.7164   -3.3311 C.ar    1  UNL1       -0.0617
     27 C           2.7022   -1.6042   -3.2605 C.ar    1  UNL1       -0.0607
     28 C           4.0784   -1.7398   -3.4692 C.ar    1  UNL1       -0.0479
     29 H           3.9349    0.9899    0.5522 H       1  UNL1        0.1503
     30 H           1.5691    1.7989    1.8758 H       1  UNL1        0.0463
     31 H           1.5727    2.5820    0.2883 H       1  UNL1        0.0463
     32 H           3.8417    3.5605    0.7960 H       1  UNL1        0.0297
     33 H           3.8284    2.7405    2.3487 H       1  UNL1        0.0297
     34 H           1.8271    4.0966    3.0572 H       1  UNL1        0.0494
     35 H           1.8179    4.8856    1.4696 H       1  UNL1        0.0494
     36 H           4.9690    4.1998    3.5280 H       1  UNL1        0.0871
     37 H           6.0425    6.7564    4.1582 H       1  UNL1        0.1392
     38 H           4.3221    8.3624    3.3376 H       1  UNL1        0.4538
     39 H           2.3039    7.2473    2.2573 H       1  UNL1        0.1600
     40 H           2.5586   -1.9455   -0.7207 H       1  UNL1        0.1744
     41 H           4.9802   -0.3328   -0.3294 H       1  UNL1        0.1732
     42 H           6.8420   -1.6538    0.9564 H       1  UNL1        0.0626
     43 H           9.3155   -1.7172    0.7708 H       1  UNL1        0.0633
     44 H          10.3225   -2.4703   -1.3859 H       1  UNL1        0.0830
     45 H           4.1964   -5.1118   -3.9134 H       1  UNL1        0.0629
     46 H           1.7518   -4.8245   -3.7411 H       1  UNL1        0.0618
     47 H           0.8085   -2.6214   -3.1030 H       1  UNL1        0.0618
     48 H           2.2923   -0.6454   -2.9521 H       1  UNL1        0.0618
     49 H           4.7194   -0.8756   -3.3206 H       1  UNL1        0.0629
@<TRIPOS>UNITY_ATOM_ATTR
10 1
charge 1
@<TRIPOS>BOND
     1     1     2    2
     2     2     3   am
     3     3     4    1
     4     4     5    1
     5     5     6    1
     6     6     7    1
     7     7     8   ar
     8     8     9   ar
     9     9    10   ar
    10    10    11   ar
    11     7    11   ar
    12     2    12   am
    13    12    13    1
    14    13    14   am
    15    14    15    2
    16    14    16    1
    17    16    17   ar
    18    17    18   ar
    19    18    19   ar
    20    19    20   ar
    21    20    21   ar
    22    16    21   ar
    23    21    22    1
    24    22    23    1
    25    23    24   ar
    26    24    25   ar
    27    25    26   ar
    28    26    27   ar
    29    27    28   ar
    30    23    28   ar
    31     3    29    1
    32     4    30    1
    33     4    31    1
    34     5    32    1
    35     5    33    1
    36     6    34    1
    37     6    35    1
    38     8    36    1
    39     9    37    1
    40    10    38    1
    41    11    39    1
    42    12    40    1
    43    13    41    1
    44    17    42    1
    45    18    43    1
    46    19    44    1
    47    24    45    1
    48    25    46    1
    49    26    47    1
    50    27    48    1
    51    28    49    1
