@<TRIPOS>MOLECULE
*****
 45 47 0 0 0
SMALL
GASTEIGER

@<TRIPOS>ATOM
      1 O           1.0843   -0.0659   -0.0276 O.2     1  UNL1       -0.2738
      2 C           2.3128   -0.0486    0.0847 C.2     1  UNL1        0.2343
      3 C           3.0167    0.0536    1.4505 C.3     1  UNL1        0.0861
      4 N           2.0962    0.0778    2.5752 N.pl3   1  UNL1       -0.3354
      5 C           2.5524    0.1890    3.8739 C.ar    1  UNL1        0.0275
      6 C           1.9750   -0.5608    4.9004 C.ar    1  UNL1       -0.0401
      7 C           2.3854   -0.3981    6.2367 C.ar    1  UNL1       -0.0479
      8 C           3.4496    0.4561    6.5692 C.ar    1  UNL1        0.0368
      9 C           3.9231    0.5197    7.9940 C.2     1  UNL1        0.2444
     10 O           3.3482   -0.1478    8.8592 O.2     1  UNL1       -0.2702
     11 N           5.0147    1.3110    8.2932 N.am    1  UNL1       -0.3042
     12 C           5.5665    1.3617    9.6365 C.3     1  UNL1        0.0700
     13 C           6.6436    2.3882    9.6949 C.ar    1  UNL1        0.1218
     14 C           6.5938    3.7667    9.7225 C.ar    1  UNL1       -0.0192
     15 C           7.9288    4.2235    9.7926 C.ar    1  UNL1       -0.0236
     16 C           8.7168    3.0966    9.8163 C.ar    1  UNL1        0.0921
     17 O           7.9463    1.9741    9.7523 O.2     1  UNL1       -0.4662
     18 C           4.0555    1.1747    5.5370 C.ar    1  UNL1       -0.0479
     19 C           3.6258    1.0189    4.2111 C.ar    1  UNL1       -0.0401
     20 N           3.0968   -0.0133   -1.0561 N.am    1  UNL1       -0.2842
     21 C           4.4976   -0.0989   -1.1457 C.ar    1  UNL1        0.0350
     22 C           5.1809    0.6438   -2.1131 C.ar    1  UNL1       -0.0377
     23 C           6.5747    0.5337   -2.2202 C.ar    1  UNL1       -0.0232
     24 C           7.2825   -0.2767   -1.3344 C.ar    1  UNL1        0.1417
     25 F           8.6193   -0.3208   -1.4140 F       1  UNL1       -0.2040
     26 C           6.6073   -1.0380   -0.3940 C.ar    1  UNL1        0.0778
     27 CL          7.4363   -2.1009    0.6739 Cl      1  UNL1       -0.0805
     28 C           5.2199   -0.9736   -0.3307 C.ar    1  UNL1       -0.0193
     29 H           3.6398    0.9536    1.4263 H       1  UNL1        0.0557
     30 H           3.6290   -0.8280    1.6087 H       1  UNL1        0.0557
     31 H           1.1081   -0.0483    2.3761 H       1  UNL1        0.1466
     32 H           1.2126   -1.3025    4.6681 H       1  UNL1        0.0636
     33 H           1.8619   -0.9497    7.0166 H       1  UNL1        0.0626
     34 H           5.5083    1.8220    7.5787 H       1  UNL1        0.1495
     35 H           5.9167    0.3654    9.9259 H       1  UNL1        0.0543
     36 H           4.7598    1.6499   10.3197 H       1  UNL1        0.0543
     37 H           5.6888    4.3558    9.6990 H       1  UNL1        0.0652
     38 H           8.2726    5.2479    9.8290 H       1  UNL1        0.0649
     39 H           9.7865    2.9395    9.8737 H       1  UNL1        0.1029
     40 H           4.8553    1.8812    5.7174 H       1  UNL1        0.0626
     41 H           4.1235    1.6079    3.4466 H       1  UNL1        0.0636
     42 H           2.5682    0.1290   -1.9115 H       1  UNL1        0.1549
     43 H           4.6580    1.3459   -2.7601 H       1  UNL1        0.0637
     44 H           7.1202    1.0748   -2.9880 H       1  UNL1        0.0647
     45 H           4.7163   -1.6778    0.3200 H       1  UNL1        0.0652
@<TRIPOS>BOND
     1     1     2    2
     2     2     3    1
     3     3     4    1
     4     4     5    1
     5     5     6   ar
     6     6     7   ar
     7     7     8   ar
     8     8     9    1
     9     9    10    2
    10     9    11   am
    11    11    12    1
    12    12    13    1
    13    13    14   ar
    14    14    15   ar
    15    15    16   ar
    16    16    17   ar
    17    13    17   ar
    18     8    18   ar
    19    18    19   ar
    20     5    19   ar
    21     2    20   am
    22    20    21    1
    23    21    22   ar
    24    22    23   ar
    25    23    24   ar
    26    24    25    1
    27    24    26   ar
    28    26    27    1
    29    26    28   ar
    30    21    28   ar
    31     3    29    1
    32     3    30    1
    33     4    31    1
    34     6    32    1
    35     7    33    1
    36    11    34    1
    37    12    35    1
    38    12    36    1
    39    14    37    1
    40    15    38    1
    41    16    39    1
    42    18    40    1
    43    19    41    1
    44    20    42    1
    45    22    43    1
    46    23    44    1
    47    28    45    1
