REMARK  8 active torsions:
REMARK  status: ('A' for Active; 'I' for Inactive)
REMARK    1  A    between atoms: C_2  and  N_3 
REMARK    2  A    between atoms: N_3  and  C_4 
REMARK    3  A    between atoms: N_3  and  C_6 
REMARK    4  A    between atoms: C_9  and  N_10 
REMARK    5  A    between atoms: C_16  and  N_17 
REMARK       I    between atoms: N_17  and  C_18 
REMARK    6  A    between atoms: C_20  and  C_18 
REMARK    7  A    between atoms: C_20  and  C_23 
REMARK    8  A    between atoms: C_20  and  O_21 
ROOT
ATOM      1  N   UNL d   1      18.874   5.006  -5.170  0.00  0.00    -0.150 N 
ATOM      2  N   UNL d   1      19.616   3.985  -5.660  0.00  0.00    -0.147 NA
ATOM      3  C   UNL d   1      18.878   2.991  -5.151  0.00  0.00     0.110 C 
ATOM      4  C   UNL d   1      17.924   2.168  -5.763  0.00  0.00     0.045 C 
ATOM      5  C   UNL d   1      17.191   1.318  -4.899  0.00  0.00    -0.033 C 
ATOM      6  C   UNL d   1      15.855   0.807  -5.346  0.00  0.00     0.050 C 
ATOM      7  C   UNL d   1      17.659   1.029  -3.604  0.00  0.00     0.043 C 
ATOM      8  C   UNL d   1      18.320   2.101  -2.919  0.00  0.00     0.066 C 
ATOM      9  C   UNL d   1      18.683   3.266  -3.762  0.00  0.00     0.111 C 
ATOM     10  N   UNL d   1      18.329   4.634  -3.874  0.00  0.00    -0.147 NA
ENDROOT
BRANCH   7  11
ATOM     11  N   UNL d   1      17.382  -0.311  -3.134  0.00  0.00    -0.324 N 
ATOM     12  C   UNL d   1      18.086  -1.067  -2.184  0.00  0.00     0.255 C 
ATOM     13  O   UNL d   1      19.227  -0.801  -1.875  0.00  0.00    -0.270 OA
ATOM     14  H   UNL d   1      16.749  -0.874  -3.696  0.00  0.00     0.169 HD
BRANCH  12  15
ATOM     15  C   UNL d   1      17.291  -2.369  -1.614  0.00  0.00     0.247 C 
BRANCH  15  16
ATOM     16  C   UNL d   1      17.856  -2.905  -0.279  0.00  0.00     0.001 A 
ATOM     17  C   UNL d   1      17.863  -4.307  -0.030  0.00  0.00     0.012 A 
ATOM     18  C   UNL d   1      18.254  -4.828   1.216  0.00  0.00     0.001 A 
ATOM     19  C   UNL d   1      18.746  -3.981   2.201  0.00  0.00     0.002 A 
ATOM     20  C   UNL d   1      18.779  -2.614   1.968  0.00  0.00     0.024 A 
ATOM     21  C   UNL d   1      18.290  -2.074   0.774  0.00  0.00     0.043 A 
ATOM     22 CL   UNL d   1      18.191  -0.345   0.784  0.00  0.00    -0.084 Cl
ENDBRANCH  15  16
BRANCH  15  23
ATOM     23  O   UNL d   1      15.862  -2.367  -1.496  0.00  0.00    -0.377 OA
ATOM     24  C   UNL d   1      15.294  -1.089  -1.264  0.00  0.00     0.203 C 
ENDBRANCH  15  23
ENDBRANCH  12  15
ENDBRANCH   7  11
BRANCH   1  25
ATOM     25  C   UNL d   1      19.177   6.352  -5.717  0.00  0.00     0.079 A 
ATOM     26  C   UNL d   1      18.829   6.837  -7.019  0.00  0.00     0.036 A 
ATOM     27  C   UNL d   1      19.410   8.051  -7.577  0.00  0.00     0.039 A 
ATOM     28  C   UNL d   1      20.341   8.819  -6.859  0.00  0.00     0.134 A 
ATOM     29  C   UNL d   1      20.704   8.307  -5.606  0.00  0.00     0.039 A 
ATOM     30  C   UNL d   1      20.160   7.096  -5.069  0.00  0.00     0.036 A 
BRANCH  28  31
ATOM     31  N   UNL d   1      20.928  10.129  -7.452  0.00  0.00    -0.042 N 
ATOM     32  H   UNL d   1      21.162   9.870  -8.417  0.00  0.00     0.286 HD
BRANCH  31  33
ATOM     33  C   UNL d   1      22.330  10.447  -6.906  0.00  0.00     0.237 C 
ATOM     34  C   UNL d   1      22.902  11.801  -7.283  0.00  0.00     0.035 C 
ENDBRANCH  31  33
BRANCH  31  35
ATOM     35  C   UNL d   1      19.811  11.163  -7.676  0.00  0.00     0.237 C 
ATOM     36  C   UNL d   1      20.266  12.554  -8.091  0.00  0.00     0.035 C 
ENDBRANCH  31  35
ENDBRANCH  28  31
ENDBRANCH   1  25
TORSDOF 8
