@<TRIPOS>MOLECULE
*****
 67 69 0 0 0
SMALL
GASTEIGER

@<TRIPOS>ATOM
      1 C           1.0913   -0.0030    0.0053 C.3     1  UNL1       -0.0626
      2 C           2.6190   -0.0177    0.0240 C.3     1  UNL1       -0.0436
      3 C           3.1050   -0.3904    1.4268 C.3     1  UNL1       -0.0626
      4 C           3.1552   -0.9859   -1.0449 C.3     1  UNL1       -0.0163
      5 C           4.6816   -0.9942   -1.0982 C.3     1  UNL1        0.0898
      6 O           5.1186   -1.8280   -2.1753 O.3     1  UNL1       -0.4920
      7 C           6.4686   -2.0540   -2.2082 C.ar    1  UNL1        0.1206
      8 C           7.0572   -2.2204   -3.4631 C.ar    1  UNL1       -0.0182
      9 C           8.4229   -2.5578   -3.5860 C.ar    1  UNL1       -0.0370
     10 C           9.2294   -2.6658   -2.4451 C.ar    1  UNL1        0.0337
     11 N          10.6341   -2.8875   -2.5539 N.am    1  UNL1       -0.2842
     12 C          11.5082   -2.9118   -1.4655 C.2     1  UNL1        0.2343
     13 O          11.1878   -2.7700   -0.2819 O.2     1  UNL1       -0.2738
     14 C          12.9984   -3.1032   -1.7770 C.3     1  UNL1        0.0861
     15 N          13.7131   -3.2747   -0.5062 N.pl3   1  UNL1       -0.3354
     16 C          15.0772   -3.2742   -0.3551 C.ar    1  UNL1        0.0283
     17 C          15.6505   -4.0580    0.6489 C.ar    1  UNL1       -0.0394
     18 C          17.0290   -4.0921    0.8371 C.ar    1  UNL1       -0.0409
     19 C          17.8686   -3.3829   -0.0158 C.ar    1  UNL1        0.0532
     20 CL         19.5606   -3.6625    0.2603 Cl      1  UNL1       -0.0828
     21 C          17.3136   -2.5657   -1.0234 C.ar    1  UNL1        0.0567
     22 C          18.1743   -1.7116   -1.8720 C.2     1  UNL1        0.2458
     23 O          19.3839   -1.7565   -1.6588 O.2     1  UNL1       -0.2701
     24 N          17.6232   -0.8934   -2.8486 N.am    1  UNL1       -0.3085
     25 C          18.4119    0.0234   -3.6845 C.3     1  UNL1        0.0234
     26 C          18.1221    1.4841   -3.3100 C.3     1  UNL1       -0.0345
     27 C          18.9804    2.4610   -4.1179 C.3     1  UNL1       -0.0514
     28 C          20.4676    2.1376   -4.0106 C.3     1  UNL1       -0.0529
     29 C          20.7429    0.7131   -4.4691 C.3     1  UNL1       -0.0514
     30 C          19.9200   -0.2525   -3.6526 C.3     1  UNL1       -0.0345
     31 C          15.9199   -2.5383   -1.1839 C.ar    1  UNL1       -0.0273
     32 C           8.6067   -2.5211   -1.2053 C.ar    1  UNL1       -0.0370
     33 C           7.2541   -2.2191   -1.0799 C.ar    1  UNL1       -0.0182
     34 H           0.7028    0.7072    0.7431 H       1  UNL1        0.0232
     35 H           0.6862   -0.9925    0.2432 H       1  UNL1        0.0232
     36 H           0.7131    0.2930   -0.9783 H       1  UNL1        0.0232
     37 H           2.9746    0.9941   -0.2105 H       1  UNL1        0.0297
     38 H           2.7797   -1.4017    1.6939 H       1  UNL1        0.0232
     39 H           2.7142    0.3063    2.1744 H       1  UNL1        0.0232
     40 H           4.1954   -0.3536    1.5031 H       1  UNL1        0.0232
     41 H           2.7619   -0.7172   -2.0329 H       1  UNL1        0.0300
     42 H           2.7933   -2.0040   -0.8475 H       1  UNL1        0.0300
     43 H           5.0454   -1.3619   -0.1371 H       1  UNL1        0.0696
     44 H           5.0560    0.0218   -1.2666 H       1  UNL1        0.0696
     45 H           6.4449   -2.0755   -4.3509 H       1  UNL1        0.0655
     46 H           8.8145   -2.7366   -4.5840 H       1  UNL1        0.0637
     47 H          11.0133   -2.9549   -3.4919 H       1  UNL1        0.1549
     48 H          13.3455   -2.2294   -2.3358 H       1  UNL1        0.0557
     49 H          13.1352   -4.0136   -2.3652 H       1  UNL1        0.0557
     50 H          13.1479   -3.0884    0.3290 H       1  UNL1        0.1466
     51 H          15.0260   -4.6941    1.2713 H       1  UNL1        0.0636
     52 H          17.4533   -4.6839    1.6444 H       1  UNL1        0.0633
     53 H          16.6248   -0.8313   -2.9723 H       1  UNL1        0.1493
     54 H          18.0502   -0.1421   -4.7085 H       1  UNL1        0.0498
     55 H          18.3083    1.6341   -2.2390 H       1  UNL1        0.0283
     56 H          17.0613    1.7135   -3.4747 H       1  UNL1        0.0283
     57 H          18.8015    3.4838   -3.7701 H       1  UNL1        0.0266
     58 H          18.6823    2.4205   -5.1726 H       1  UNL1        0.0266
     59 H          20.7928    2.2642   -2.9688 H       1  UNL1        0.0265
     60 H          21.0548    2.8321   -4.6178 H       1  UNL1        0.0265
     61 H          21.8023    0.4726   -4.3243 H       1  UNL1        0.0266
     62 H          20.5100    0.5905   -5.5304 H       1  UNL1        0.0266
     63 H          20.2909   -0.1268   -2.6289 H       1  UNL1        0.0283
     64 H          20.1179   -1.2823   -3.9725 H       1  UNL1        0.0283
     65 H          15.4609   -1.9138   -1.9353 H       1  UNL1        0.0644
     66 H           9.1315   -2.6519   -0.2694 H       1  UNL1        0.0637
     67 H           6.8685   -2.1481   -0.0701 H       1  UNL1        0.0655
@<TRIPOS>BOND
     1     1     2    1
     2     2     3    1
     3     2     4    1
     4     4     5    1
     5     5     6    1
     6     6     7    1
     7     7     8   ar
     8     8     9   ar
     9     9    10   ar
    10    10    11    1
    11    11    12   am
    12    12    13    2
    13    12    14    1
    14    14    15    1
    15    15    16    1
    16    16    17   ar
    17    17    18   ar
    18    18    19   ar
    19    19    20    1
    20    19    21   ar
    21    21    22    1
    22    22    23    2
    23    22    24   am
    24    24    25    1
    25    25    26    1
    26    26    27    1
    27    27    28    1
    28    28    29    1
    29    29    30    1
    30    25    30    1
    31    21    31   ar
    32    16    31   ar
    33    10    32   ar
    34    32    33   ar
    35     7    33   ar
    36     1    34    1
    37     1    35    1
    38     1    36    1
    39     2    37    1
    40     3    38    1
    41     3    39    1
    42     3    40    1
    43     4    41    1
    44     4    42    1
    45     5    43    1
    46     5    44    1
    47     8    45    1
    48     9    46    1
    49    11    47    1
    50    14    48    1
    51    14    49    1
    52    15    50    1
    53    17    51    1
    54    18    52    1
    55    24    53    1
    56    25    54    1
    57    26    55    1
    58    26    56    1
    59    27    57    1
    60    27    58    1
    61    28    59    1
    62    28    60    1
    63    29    61    1
    64    29    62    1
    65    30    63    1
    66    30    64    1
    67    31    65    1
    68    32    66    1
    69    33    67    1
