REMARK  9 active torsions:
REMARK  status: ('A' for Active; 'I' for Inactive)
REMARK    1  A    between atoms: C_8  and  N_9 
REMARK       I    between atoms: N_9  and  C_10 
REMARK    2  A    between atoms: C_10  and  C_12 
REMARK       I    between atoms: C_12  and  N_14 
REMARK    3  A    between atoms: N_14  and  N_15 
REMARK    4  A    between atoms: C_16  and  C_17 
REMARK    5  A    between atoms: C_20  and  O_21 
REMARK    6  A    between atoms: O_21  and  C_22 
REMARK    7  A    between atoms: C_22  and  C_23 
REMARK       I    between atoms: C_23  and  N_25 
REMARK    8  A    between atoms: N_25  and  C_26 
REMARK    9  A    between atoms: C_26  and  C_27 
ROOT
ATOM      1  C   UNL d   1     -10.734   0.482   0.220  0.00  0.00    -0.017 A 
ATOM      2  C   UNL d   1     -11.697   1.180  -0.513  0.00  0.00     0.015 A 
ATOM      3  C   UNL d   1     -13.059   0.857  -0.351  0.00  0.00     0.037 A 
ATOM      4  C   UNL d   1     -13.464  -0.181   0.504  0.00  0.00     0.069 A 
ATOM      5  C   UNL d   1     -12.493  -0.861   1.235  0.00  0.00     0.037 A 
ATOM      6  C   UNL d   1     -11.139  -0.534   1.091  0.00  0.00     0.015 A 
ENDROOT
BRANCH   1   7
ATOM      7  C   UNL d   1      -9.282   0.792   0.128  0.00  0.00     0.150 C 
ATOM      8  N   UNL d   1      -8.420  -0.177   0.194  0.00  0.00    -0.183 NA
BRANCH   8   9
ATOM      9  N   UNL d   1      -7.092   0.128   0.137  0.00  0.00    -0.239 N 
ATOM     10  C   UNL d   1      -6.100  -0.871   0.109  0.00  0.00     0.329 C 
ATOM     11  O   UNL d   1      -6.232  -2.087   0.123  0.00  0.00    -0.261 OA
ATOM     12  H   UNL d   1      -6.774   1.101   0.113  0.00  0.00     0.192 HD
BRANCH  10  13
ATOM     13  C   UNL d   1      -4.703  -0.245   0.048  0.00  0.00     0.315 C 
ATOM     14  N   UNL d   1      -3.566  -1.073   0.035  0.00  0.00    -0.318 N 
ATOM     15  H   UNL d   1      -3.771  -2.071   0.051  0.00  0.00     0.169 HD
ATOM     16  O   UNL d   1      -4.785   0.982   0.016  0.00  0.00    -0.262 OA
BRANCH  14  17
ATOM     17  C   UNL d   1      -2.160  -0.705   0.013  0.00  0.00     0.041 A 
ATOM     18  C   UNL d   1      -1.184  -1.735  -0.002  0.00  0.00     0.032 A 
ATOM     19  C   UNL d   1       0.208  -1.455  -0.009  0.00  0.00     0.026 A 
ATOM     20  C   UNL d   1       0.658  -0.144   0.011  0.00  0.00     0.034 A 
ATOM     21  C   UNL d   1      -0.268   0.878   0.026  0.00  0.00     0.032 A 
ATOM     22 CL   UNL d   1       2.334   0.243   0.006  0.00  0.00    -0.084 Cl
ATOM     23  C   UNL d   1      -1.656   0.615   0.011  0.00  0.00    -0.034 A 
ATOM     24  C   UNL d   1      -2.492   1.848  -0.022  0.00  0.00     0.050 C 
ENDBRANCH  14  17
ENDBRANCH  10  13
ENDBRANCH   8   9
ENDBRANCH   1   7
BRANCH   4  25
ATOM     25  O   UNL d   1     -14.808  -0.443   0.537  0.00  0.00    -0.342 OA
BRANCH  25  26
ATOM     26  C   UNL d   1     -15.266  -1.577   1.283  0.00  0.00     0.278 C 
BRANCH  26  27
ATOM     27  C   UNL d   1     -16.785  -1.790   1.096  0.00  0.00     0.241 C 
ATOM     28  O   UNL d   1     -17.471  -1.102   0.345  0.00  0.00    -0.271 OA
ATOM     29  N   UNL d   1     -17.338  -2.827   1.838  0.00  0.00    -0.357 N 
ATOM     30  H   UNL d   1     -16.755  -3.390   2.443  0.00  0.00     0.162 HD
BRANCH  29  31
ATOM     31  C   UNL d   1     -18.766  -3.126   1.735  0.00  0.00     0.154 C 
BRANCH  31  32
ATOM     32  C   UNL d   1     -19.235  -4.318   2.582  0.00  0.00     0.139 C 
ATOM     33  C   UNL d   1     -18.511  -5.612   2.243  0.00  0.00     0.035 C 
ATOM     34  C   UNL d   1     -19.550  -6.668   2.516  0.00  0.00     0.029 C 
ATOM     35  C   UNL d   1     -20.840  -5.971   2.149  0.00  0.00     0.168 C 
ATOM     36  O   UNL d   1     -20.638  -4.568   2.369  0.00  0.00    -0.384 OA
ENDBRANCH  31  32
ENDBRANCH  29  31
ENDBRANCH  26  27
ENDBRANCH  25  26
ENDBRANCH   4  25
TORSDOF 9
