REMARK  7 active torsions:
REMARK  status: ('A' for Active; 'I' for Inactive)
REMARK    1  A    between atoms: N_7  and  C_8 
REMARK    2  A    between atoms: C_8  and  C_9 
REMARK    3  A    between atoms: C_10  and  C_11 
REMARK       I    between atoms: C_11  and  N_13 
REMARK    4  A    between atoms: N_13  and  N_14 
REMARK    5  A    between atoms: C_15  and  C_16 
REMARK    6  A    between atoms: N_23  and  C_24 
REMARK    7  A    between atoms: C_28  and  N_29 
ROOT
ATOM      1  C   UNL d   1       3.363  -3.974  -0.514  0.00  0.00     0.102 C 
ATOM      2  C   UNL d   1       2.710  -5.214  -0.786  0.00  0.00     0.176 C 
ATOM      3  N   UNL d   1       3.667  -6.074  -1.290  0.00  0.00    -0.124 NA
ATOM      4  N   UNL d   1       4.826  -5.461  -1.388  0.00  0.00    -0.058 NA
ATOM      5  N   UNL d   1       4.747  -4.270  -0.776  0.00  0.00    -0.191 N 
ENDROOT
BRANCH   2   6
ATOM      6  C   UNL d   1       1.315  -5.788  -0.693  0.00  0.00     0.294 C 
ATOM      7  O   UNL d   1       1.114  -6.974  -1.020  0.00  0.00    -0.264 OA
ATOM      8  N   UNL d   1       0.270  -4.990  -0.242  0.00  0.00    -0.242 N 
ATOM      9  H   UNL d   1       0.434  -4.082   0.142  0.00  0.00     0.192 HD
BRANCH   8  10
ATOM     10  N   UNL d   1      -1.036  -5.467  -0.169  0.00  0.00    -0.183 NA
ATOM     11  C   UNL d   1      -1.991  -4.716   0.297  0.00  0.00     0.150 C 
BRANCH  11  12
ATOM     12  C   UNL d   1      -1.833  -3.328   0.694  0.00  0.00    -0.010 C 
ATOM     13  C   UNL d   1      -1.211  -2.310  -0.090  0.00  0.00     0.020 C 
ATOM     14  C   UNL d   1      -1.429  -1.070   0.462  0.00  0.00     0.050 C 
ATOM     15  S   UNL d   1      -1.975  -1.149   2.069  0.00  0.00    -0.113 SA
ATOM     16  C   UNL d   1      -2.370  -2.797   1.853  0.00  0.00     0.062 C 
ENDBRANCH  11  12
ENDBRANCH   8  10
ENDBRANCH   2   6
BRANCH   1  17
ATOM     17  C   UNL d   1       2.874  -2.635   0.009  0.00  0.00     0.297 C 
BRANCH  17  18
ATOM     18  N   UNL d   1       3.114  -1.296  -0.814  0.00  0.00    -0.062 N 
ATOM     19  C   UNL d   1       4.551  -1.069  -1.081  0.00  0.00     0.235 C 
ATOM     20  C   UNL d   1       4.990   0.192  -1.771  0.00  0.00     0.028 C 
ATOM     21  C   UNL d   1       4.511   1.372  -0.972  0.00  0.00     0.004 C 
ATOM     22  C   UNL d   1       3.013   1.242  -0.947  0.00  0.00     0.033 C 
ATOM     23  C   UNL d   1       2.622  -0.003  -0.143  0.00  0.00     0.184 C 
ATOM     24  C   UNL d   1       1.146  -0.006  -0.089  0.00  0.00     0.040 C 
ATOM     25  H   UNL d   1       2.642  -1.421  -1.719  0.00  0.00     0.280 HD
ENDBRANCH  17  18
ENDBRANCH   1  17
BRANCH   5  26
ATOM     26  C   UNL d   1       5.941  -3.513  -0.510  0.00  0.00     0.229 A 
ATOM     27  N   UNL d   1       6.738  -3.162  -1.532  0.00  0.00    -0.081 NA
ATOM     28  O   UNL d   1       7.523  -2.117  -1.019  0.00  0.00    -0.103 OA
ATOM     29  N   UNL d   1       7.213  -1.871   0.317  0.00  0.00    -0.083 NA
ATOM     30  C   UNL d   1       6.251  -2.743   0.625  0.00  0.00     0.201 A 
BRANCH  30  31
ATOM     31  N   UNL d   1       5.518  -2.702   1.755  0.00  0.00    -0.379 N 
ATOM     32  H   UNL d   1       5.905  -2.177   2.539  0.00  0.00     0.158 HD
ATOM     33  H   UNL d   1       4.997  -3.519   2.063  0.00  0.00     0.158 HD
ENDBRANCH  30  31
ENDBRANCH   5  26
TORSDOF 7
