REMARK  3 active torsions:
REMARK  status: ('A' for Active; 'I' for Inactive)
REMARK    1  A    between atoms: C_7  and  C_8 
REMARK       I    between atoms: C_8  and  N_10 
REMARK    2  A    between atoms: N_10  and  N_11 
REMARK    3  A    between atoms: N_11  and  C_12 
ROOT
ATOM      1  C   UNL d   1       4.387  -1.455  -0.009  0.00  0.00     0.270 C 
ATOM      2  O   UNL d   1       4.370  -2.679  -0.160  0.00  0.00    -0.266 OA
ATOM      3  N   UNL d   1       5.575  -0.736   0.156  0.00  0.00    -0.265 N 
ATOM      4  H   UNL d   1       5.618   0.272   0.075  0.00  0.00     0.190 HD
ENDROOT
BRANCH   1   5
ATOM      5  C   UNL d   1       3.087  -0.686   0.002  0.00  0.00     0.036 A 
ATOM      6  C   UNL d   1       3.039   0.705   0.092  0.00  0.00     0.019 A 
ATOM      7  C   UNL d   1       1.808   1.373   0.059  0.00  0.00     0.035 A 
ATOM      8  C   UNL d   1       0.604   0.690  -0.012  0.00  0.00     0.086 A 
ATOM      9  N   UNL d   1      -0.543   1.394  -0.021  0.00  0.00    -0.250 NA
ATOM     10  C   UNL d   1       0.620  -0.722  -0.046  0.00  0.00     0.086 A 
ATOM     11  C   UNL d   1      -1.703   0.694  -0.018  0.00  0.00     0.055 A 
ATOM     12  C   UNL d   1      -2.977   1.488  -0.025  0.00  0.00     0.072 C 
ATOM     13  C   UNL d   1      -1.704  -0.700   0.004  0.00  0.00     0.055 A 
ATOM     14  N   UNL d   1      -0.543  -1.412  -0.036  0.00  0.00    -0.249 NA
ATOM     15  C   UNL d   1      -2.988  -1.471   0.107  0.00  0.00     0.072 C 
ATOM     16  C   UNL d   1       1.860  -1.380  -0.072  0.00  0.00     0.051 A 
ENDBRANCH   1   5
BRANCH   3  17
ATOM     17  N   UNL d   1       6.784  -1.392  -0.105  0.00  0.00    -0.298 N 
ATOM     18  H   UNL d   1       6.762  -2.411  -0.186  0.00  0.00     0.187 HD
BRANCH  17  19
ATOM     19  C   UNL d   1       8.002  -0.718   0.075  0.00  0.00     0.049 A 
ATOM     20  C   UNL d   1       8.185   0.316   1.006  0.00  0.00     0.031 A 
ATOM     21  C   UNL d   1       9.406   1.002   1.106  0.00  0.00     0.004 A 
ATOM     22  C   UNL d   1      10.457   0.692   0.247  0.00  0.00     0.024 A 
ATOM     23  C   UNL d   1      10.286  -0.317  -0.695  0.00  0.00     0.036 A 
ATOM     24 CL   UNL d   1      11.569  -0.677  -1.786  0.00  0.00    -0.084 Cl
ATOM     25  C   UNL d   1       9.080  -1.026  -0.771  0.00  0.00     0.054 A 
ENDBRANCH  17  19
ENDBRANCH   3  17
TORSDOF 3
