@<TRIPOS>MOLECULE
*****
 65 69 0 0 0
SMALL
GASTEIGER

@<TRIPOS>ATOM
      1 C           0.9347   -0.0760    0.0595 C.3     1  UNL1       -0.0377
      2 C           2.4301   -0.1019    0.0588 C.ar    1  UNL1       -0.0250
      3 C           3.1719    1.0953    0.0581 C.ar    1  UNL1       -0.0568
      4 C           4.5682    1.0972    0.0511 C.ar    1  UNL1       -0.0594
      5 C           5.2827   -0.1059    0.0479 C.ar    1  UNL1       -0.0342
      6 C           4.5710   -1.3149    0.0518 C.ar    1  UNL1        0.0894
      7 N           5.0337   -2.6087    0.0514 N.ar    1  UNL1       -0.2324
      8 C           3.9662   -3.3821    0.0547 C.ar    1  UNL1        0.1097
      9 C           3.9442   -4.8820    0.0581 C.3     1  UNL1        0.0210
     10 C           5.3637   -5.4626    0.0591 C.3     1  UNL1        0.0187
     11 N           5.4190   -6.9171    0.1007 N.am    1  UNL1       -0.3108
     12 C           6.6399   -7.5642    0.1040 C.2     1  UNL1        0.2492
     13 O           7.7193   -6.9887    0.1516 O.2     1  UNL1       -0.2700
     14 C           6.5699   -9.0446    0.0676 C.ar    1  UNL1        0.1001
     15 C           7.3896   -9.7750    0.8501 C.ar    1  UNL1        0.0207
     16 N           7.4095  -11.1702    0.8864 N.ar    1  UNL1       -0.3486
     17 C           8.3279  -11.9332    1.7750 C.3     1  UNL1        0.0340
     18 C           7.5194  -12.8029    2.7575 C.3     1  UNL1       -0.0321
     19 C           8.4118  -13.7128    3.5955 C.3     1  UNL1       -0.0512
     20 C           9.3253  -14.5614    2.7170 C.3     1  UNL1       -0.0529
     21 C          10.1709  -13.6836    1.8002 C.3     1  UNL1       -0.0512
     22 C           9.2967  -12.7845    0.9332 C.3     1  UNL1       -0.0321
     23 C           6.5432  -11.8338    0.0277 C.ar    1  UNL1        0.0207
     24 C           5.6869  -11.2480   -0.8210 C.ar    1  UNL1        0.1001
     25 C           4.8427  -12.1429   -1.6404 C.2     1  UNL1        0.2494
     26 O           4.8906  -13.3548   -1.4592 O.2     1  UNL1       -0.2700
     27 N           4.0368  -11.5166   -2.5660 N.am    1  UNL1       -0.3084
     28 C           3.1049  -12.2006   -3.4089 C.3     1  UNL1        0.0235
     29 C           3.5125  -12.7002   -4.7701 C.3     1  UNL1       -0.0328
     30 C           3.1959  -13.6795   -3.6827 C.3     1  UNL1       -0.0328
     31 C           5.6470   -9.7717   -0.8392 C.ar    1  UNL1        0.2059
     32 O           4.8585   -9.1727   -1.5744 O.2     1  UNL1       -0.2862
     33 N           2.8227   -2.6169    0.0573 N.ar    1  UNL1       -0.3416
     34 C           3.1822   -1.2884    0.0565 C.ar    1  UNL1        0.0692
     35 H           0.5496    0.9486    0.0610 H       1  UNL1        0.0278
     36 H           0.5549   -0.5844    0.9507 H       1  UNL1        0.0278
     37 H           0.5550   -0.5811   -0.8337 H       1  UNL1        0.0278
     38 H           2.6516    2.0527    0.0622 H       1  UNL1        0.0621
     39 H           5.1059    2.0427    0.0474 H       1  UNL1        0.0618
     40 H           6.3668   -0.1105    0.0427 H       1  UNL1        0.0639
     41 H           3.3960   -5.2431   -0.8214 H       1  UNL1        0.0358
     42 H           3.3978   -5.2388    0.9400 H       1  UNL1        0.0358
     43 H           5.9203   -5.0988    0.9306 H       1  UNL1        0.0466
     44 H           5.9076   -5.1369   -0.8359 H       1  UNL1        0.0466
     45 H           4.5710   -7.4569   -0.0319 H       1  UNL1        0.1490
     46 H           8.1002   -9.2976    1.5218 H       1  UNL1        0.0818
     47 H           8.9302  -11.2328    2.3703 H       1  UNL1        0.0527
     48 H           6.8068  -13.4383    2.2179 H       1  UNL1        0.0285
     49 H           6.9200  -12.1618    3.4147 H       1  UNL1        0.0285
     50 H           7.7870  -14.3659    4.2154 H       1  UNL1        0.0266
     51 H           9.0189  -13.1047    4.2759 H       1  UNL1        0.0266
     52 H           8.7209  -15.2515    2.1140 H       1  UNL1        0.0265
     53 H           9.9783  -15.1751    3.3468 H       1  UNL1        0.0265
     54 H          10.7951  -14.3148    1.1579 H       1  UNL1        0.0266
     55 H          10.8458  -13.0657    2.4036 H       1  UNL1        0.0266
     56 H           8.7450  -13.4252    0.2346 H       1  UNL1        0.0285
     57 H           9.9268  -12.1320    0.3175 H       1  UNL1        0.0285
     58 H           6.6015  -12.9195    0.0842 H       1  UNL1        0.0818
     59 H           4.0289  -10.4940   -2.5794 H       1  UNL1        0.1493
     60 H           2.1075  -11.7701   -3.3408 H       1  UNL1        0.0498
     61 H           4.5518  -12.5960   -5.0616 H       1  UNL1        0.0284
     62 H           2.8136  -12.6436   -5.5946 H       1  UNL1        0.0284
     63 H           4.0293  -14.2604   -3.3059 H       1  UNL1        0.0284
     64 H           2.2702  -14.2386   -3.6830 H       1  UNL1        0.0284
     65 H           1.8749   -2.9635    0.0605 H       1  UNL1        0.1671
@<TRIPOS>BOND
     1     1     2    1
     2     2     3   ar
     3     3     4   ar
     4     4     5   ar
     5     5     6   ar
     6     6     7   ar
     7     7     8   ar
     8     8     9    1
     9     9    10    1
    10    10    11    1
    11    11    12   am
    12    12    13    2
    13    12    14    1
    14    14    15   ar
    15    15    16   ar
    16    16    17    1
    17    17    18    1
    18    18    19    1
    19    19    20    1
    20    20    21    1
    21    21    22    1
    22    17    22    1
    23    16    23   ar
    24    23    24   ar
    25    24    25    1
    26    25    26    2
    27    25    27   am
    28    27    28    1
    29    28    29    1
    30    29    30    1
    31    28    30    1
    32    24    31   ar
    33    14    31   ar
    34    31    32    2
    35     8    33   ar
    36    33    34   ar
    37     2    34   ar
    38     6    34   ar
    39     1    35    1
    40     1    36    1
    41     1    37    1
    42     3    38    1
    43     4    39    1
    44     5    40    1
    45     9    41    1
    46     9    42    1
    47    10    43    1
    48    10    44    1
    49    11    45    1
    50    15    46    1
    51    17    47    1
    52    18    48    1
    53    18    49    1
    54    19    50    1
    55    19    51    1
    56    20    52    1
    57    20    53    1
    58    21    54    1
    59    21    55    1
    60    22    56    1
    61    22    57    1
    62    23    58    1
    63    27    59    1
    64    28    60    1
    65    29    61    1
    66    29    62    1
    67    30    63    1
    68    30    64    1
    69    33    65    1
