@<TRIPOS>MOLECULE
*****
 47 50 0 0 0
SMALL
GASTEIGER

@<TRIPOS>ATOM
      1 C           1.0288   -0.0355    0.0285 C.3     1  UNL1       -0.0383
      2 C           2.5197   -0.0351    0.0376 C.ar    1  UNL1       -0.0334
      3 C           3.2404    1.2179   -0.0364 C.ar    1  UNL1       -0.0496
      4 C           4.5526    1.2377    0.2450 C.ar    1  UNL1        0.0296
      5 C           5.2801   -0.0603    0.3414 C.ar    1  UNL1        0.2909
      6 N           6.6048   -0.0401    0.3841 N.ar    1  UNL1       -0.1917
      7 C           7.2944   -1.2384    0.2950 C.ar    1  UNL1        0.2032
      8 C           8.8085   -1.2404    0.2353 C.3     1  UNL1        0.0850
      9 N           9.4196   -2.5491    0.3211 N.3     1  UNL1       -0.2859
     10 C           9.3000   -3.6931   -0.5623 C.3     1  UNL1        0.0001
     11 C           9.1216   -4.8427    0.4351 C.3     1  UNL1       -0.0384
     12 C          10.0142   -4.4447    1.6021 C.3     1  UNL1       -0.0320
     13 C          10.0502   -2.9112    1.5729 C.3     1  UNL1        0.0362
     14 C          11.4491   -2.3563    1.5985 C.ar    1  UNL1       -0.0300
     15 C          12.3867   -2.7226    0.6152 C.ar    1  UNL1       -0.0536
     16 C          13.7229   -2.3760    0.7435 C.ar    1  UNL1       -0.0199
     17 C          14.0925   -1.5269    1.7735 C.ar    1  UNL1        0.1169
     18 O          15.3955   -1.1859    1.9696 O.3     1  UNL1       -0.5068
     19 C          13.1446   -1.0038    2.6468 C.ar    1  UNL1       -0.0199
     20 C          11.8309   -1.4603    2.5976 C.ar    1  UNL1       -0.0536
     21 C           6.6161   -2.3864    0.2633 C.ar    1  UNL1        0.0715
     22 C           5.1882   -2.4495    0.2490 C.ar    1  UNL1        0.2659
     23 O           4.5657   -3.5025    0.1683 O.2     1  UNL1       -0.2670
     24 N           4.5741   -1.1867    0.2796 N.ar    1  UNL1       -0.2298
     25 C           3.1950   -1.1767    0.2115 C.ar    1  UNL1        0.0215
     26 H           0.6266    0.9663   -0.1367 H       1  UNL1        0.0278
     27 H           0.6598   -0.3925    0.9966 H       1  UNL1        0.0278
     28 H           0.6470   -0.6959   -0.7568 H       1  UNL1        0.0278
     29 H           2.7102    2.1192   -0.3274 H       1  UNL1        0.0623
     30 H           5.0917    2.1724    0.3419 H       1  UNL1        0.0701
     31 H           7.0968    0.8509    0.4065 H       1  UNL1        0.4547
     32 H           9.1399   -0.6316    1.0909 H       1  UNL1        0.0536
     33 H           9.1643   -0.6981   -0.6484 H       1  UNL1        0.0536
     34 H          10.2242   -3.8511   -1.1254 H       1  UNL1        0.0427
     35 H           8.4961   -3.6540   -1.3039 H       1  UNL1        0.0427
     36 H           9.3916   -5.8178    0.0215 H       1  UNL1        0.0278
     37 H           8.0881   -4.9316    0.7915 H       1  UNL1        0.0278
     38 H          11.0045   -4.8877    1.4604 H       1  UNL1        0.0284
     39 H           9.6205   -4.8180    2.5544 H       1  UNL1        0.0284
     40 H           9.4530   -2.5369    2.4160 H       1  UNL1        0.0512
     41 H          12.0892   -3.3120   -0.2468 H       1  UNL1        0.0622
     42 H          14.4423   -2.7805    0.0398 H       1  UNL1        0.0654
     43 H          15.9499   -1.7301    1.3852 H       1  UNL1        0.2921
     44 H          13.4385   -0.2668    3.3865 H       1  UNL1        0.0654
     45 H          11.1187   -1.1255    3.3469 H       1  UNL1        0.0622
     46 H           7.0581   -3.3534    0.2110 H       1  UNL1        0.0735
     47 H           2.6689   -2.1282    0.3137 H       1  UNL1        0.0818
@<TRIPOS>UNITY_ATOM_ATTR
6 1
charge 1
@<TRIPOS>BOND
     1     1     2    1
     2     2     3   ar
     3     3     4   ar
     4     4     5   ar
     5     5     6   ar
     6     6     7   ar
     7     7     8    1
     8     8     9    1
     9     9    10    1
    10    10    11    1
    11    11    12    1
    12    12    13    1
    13     9    13    1
    14    13    14    1
    15    14    15   ar
    16    15    16   ar
    17    16    17   ar
    18    17    18    1
    19    17    19   ar
    20    19    20   ar
    21    14    20   ar
    22     7    21   ar
    23    21    22   ar
    24    22    23    2
    25    22    24   ar
    26     5    24   ar
    27    24    25   ar
    28     2    25   ar
    29     1    26    1
    30     1    27    1
    31     1    28    1
    32     3    29    1
    33     4    30    1
    34     6    31    1
    35     8    32    1
    36     8    33    1
    37    10    34    1
    38    10    35    1
    39    11    36    1
    40    11    37    1
    41    12    38    1
    42    12    39    1
    43    13    40    1
    44    15    41    1
    45    16    42    1
    46    18    43    1
    47    19    44    1
    48    20    45    1
    49    21    46    1
    50    25    47    1
