@<TRIPOS>MOLECULE
*****
 34 36 0 0 0
SMALL
GASTEIGER

@<TRIPOS>ATOM
      1 O           0.9613   -0.1729   -0.0486 O.2     1  UNL1       -0.2684
      2 C           2.1822   -0.0356   -0.0722 C.2     1  UNL1        0.2653
      3 N           2.8900    0.7690   -0.9537 N.am    1  UNL1       -0.2029
      4 N           2.2653    1.5047   -1.9280 N.2     1  UNL1       -0.1875
      5 C           2.9825    2.1558   -2.8021 C.2     1  UNL1        0.0528
      6 C           4.4529    2.1460   -2.9600 C.ar    1  UNL1       -0.0052
      7 C           5.1374    0.9283   -2.8857 C.ar    1  UNL1       -0.0497
      8 C           6.5251    0.8912   -2.9693 C.ar    1  UNL1       -0.0196
      9 C           7.2180    2.0715   -3.2055 C.ar    1  UNL1        0.1169
     10 O           8.5733    2.0786   -3.3442 O.3     1  UNL1       -0.5068
     11 C           6.5456    3.2863   -3.3277 C.ar    1  UNL1       -0.0196
     12 C           5.1523    3.3316   -3.2046 C.ar    1  UNL1       -0.0497
     13 C           3.0285   -0.8168    0.8795 C.ar    1  UNL1        0.0622
     14 C           2.6692   -2.1347    1.2226 C.ar    1  UNL1       -0.0476
     15 C           3.4618   -2.9105    2.0731 C.ar    1  UNL1       -0.0604
     16 C           4.6304   -2.3865    2.6293 C.ar    1  UNL1       -0.0525
     17 C           4.9827   -1.0524    2.3559 C.ar    1  UNL1        0.0004
     18 C           6.0414   -0.2201    2.8068 C.ar    1  UNL1       -0.0366
     19 C           5.8584    1.0227    2.2512 C.ar    1  UNL1        0.0027
     20 N           4.7427    0.9707    1.4600 N.ar    1  UNL1       -0.3601
     21 C           4.1853   -0.2921    1.4919 C.ar    1  UNL1        0.0588
     22 H           3.8982    0.7437   -0.9303 H       1  UNL1        0.1776
     23 H           2.4371    2.7949   -3.5222 H       1  UNL1        0.0851
     24 H           4.5878   -0.0023   -2.7630 H       1  UNL1        0.0625
     25 H           7.0314   -0.0622   -2.8585 H       1  UNL1        0.0654
     26 H           8.9034    1.1658   -3.2923 H       1  UNL1        0.2921
     27 H           7.1144    4.1935   -3.5182 H       1  UNL1        0.0654
     28 H           4.6421    4.2885   -3.2899 H       1  UNL1        0.0625
     29 H           1.7556   -2.5671    0.8165 H       1  UNL1        0.0626
     30 H           3.1704   -3.9304    2.3163 H       1  UNL1        0.0618
     31 H           5.2441   -2.9904    3.2936 H       1  UNL1        0.0624
     32 H           6.8285   -0.4981    3.4960 H       1  UNL1        0.0638
     33 H           6.4144    1.9427    2.3698 H       1  UNL1        0.0807
     34 H           4.3551    1.7587    0.9571 H       1  UNL1        0.1654
@<TRIPOS>BOND
     1     1     2    2
     2     2     3   am
     3     3     4    1
     4     4     5    2
     5     5     6    1
     6     6     7   ar
     7     7     8   ar
     8     8     9   ar
     9     9    10    1
    10     9    11   ar
    11    11    12   ar
    12     6    12   ar
    13     2    13    1
    14    13    14   ar
    15    14    15   ar
    16    15    16   ar
    17    16    17   ar
    18    17    18   ar
    19    18    19   ar
    20    19    20   ar
    21    20    21   ar
    22    13    21   ar
    23    17    21   ar
    24     3    22    1
    25     5    23    1
    26     7    24    1
    27     8    25    1
    28    10    26    1
    29    11    27    1
    30    12    28    1
    31    14    29    1
    32    15    30    1
    33    16    31    1
    34    18    32    1
    35    19    33    1
    36    20    34    1
