REMARK  8 active torsions:
REMARK  status: ('A' for Active; 'I' for Inactive)
REMARK    1  A    between atoms: C_2  and  C_15 
REMARK    2  A    between atoms: C_2  and  N_3 
REMARK       I    between atoms: N_3  and  C_4 
REMARK    3  A    between atoms: C_4  and  C_6 
REMARK    4  A    between atoms: C_10  and  N_11 
REMARK       I    between atoms: C_15  and  N_17 
REMARK    5  A    between atoms: N_17  and  N_18 
REMARK    6  A    between atoms: N_18  and  C_19 
REMARK    7  A    between atoms: C_19  and  N_21 
REMARK    8  A    between atoms: N_21  and  C_22 
ROOT
ATOM      1  C   UNL d   1       2.960  -1.422  -0.232  0.00  0.00     0.042 C 
ATOM      2  C   UNL d   1       2.460   0.002   0.005  0.00  0.00     0.174 C 
ENDROOT
BRANCH   2   3
ATOM      3  C   UNL d   1       2.958   0.977  -1.128  0.00  0.00     0.258 C 
ATOM      4  O   UNL d   1       2.178   1.583  -1.866  0.00  0.00    -0.269 OA
ATOM      5  N   UNL d   1       4.341   1.102  -1.264  0.00  0.00    -0.266 N 
ATOM      6  H   UNL d   1       5.009   0.618  -0.666  0.00  0.00     0.190 HD
BRANCH   5   7
ATOM      7  N   UNL d   1       4.929   1.955  -2.276  0.00  0.00    -0.274 N 
ATOM      8  H   UNL d   1       4.265   2.475  -2.846  0.00  0.00     0.189 HD
BRANCH   7   9
ATOM      9  C   UNL d   1       6.322   2.055  -2.394  0.00  0.00     0.186 C 
ATOM     10  S   UNL d   1       7.348   1.170  -1.394  0.00  0.00    -0.040 SA
BRANCH   9  11
ATOM     11  N   UNL d   1       6.771   2.943  -3.375  0.00  0.00    -0.361 N 
ATOM     12  H   UNL d   1       6.085   3.385  -3.975  0.00  0.00     0.162 HD
BRANCH  11  13
ATOM     13  C   UNL d   1       8.198   3.180  -3.714  0.00  0.00     0.083 C 
ATOM     14  C   UNL d   1       8.771   2.181  -4.725  0.00  0.00     0.025 C 
ATOM     15  C   UNL d   1      10.094   2.805  -5.165  0.00  0.00     0.002 C 
ATOM     16  C   UNL d   1       9.890   4.315  -5.056  0.00  0.00     0.002 C 
ATOM     17  C   UNL d   1       8.517   4.519  -4.395  0.00  0.00     0.025 C 
ENDBRANCH  11  13
ENDBRANCH   9  11
ENDBRANCH   7   9
ENDBRANCH   5   7
ENDBRANCH   2   3
BRANCH   2  18
ATOM     18  N   UNL d   1       0.981  -0.037   0.118  0.00  0.00    -0.344 N 
ATOM     19  C   UNL d   1       0.298   0.694   1.068  0.00  0.00     0.252 C 
ATOM     20  O   UNL d   1       0.859   1.352   1.944  0.00  0.00    -0.268 OA
ATOM     21  H   UNL d   1       0.468  -0.394  -0.679  0.00  0.00     0.163 HD
BRANCH  19  22
ATOM     22  C   UNL d   1      -1.196   0.659   1.042  0.00  0.00     0.034 A 
ATOM     23  C   UNL d   1      -1.907   1.822   1.387  0.00  0.00     0.017 A 
ATOM     24  C   UNL d   1      -3.297   1.791   1.557  0.00  0.00     0.003 A 
ATOM     25  C   UNL d   1      -4.002   0.609   1.333  0.00  0.00     0.036 A 
ATOM     26  C   UNL d   1      -3.296  -0.551   0.985  0.00  0.00     0.103 A 
ATOM     27  C   UNL d   1      -1.895  -0.536   0.837  0.00  0.00     0.053 A 
BRANCH  26  28
ATOM     28  N   UNL d   1      -4.026  -1.818   0.835  0.00  0.00    -0.116 N 
ATOM     29  O   UNL d   1      -5.256  -1.799   0.984  0.00  0.00    -0.532 OA
ATOM     30  O   UNL d   1      -3.365  -2.832   0.573  0.00  0.00    -0.532 OA
ENDBRANCH  26  28
ENDBRANCH  19  22
ENDBRANCH   2  18
TORSDOF 8
