REMARK  8 active torsions:
REMARK  status: ('A' for Active; 'I' for Inactive)
REMARK    1  A    between atoms: O_2  and  C_3 
REMARK    2  A    between atoms: C_10  and  S_11 
REMARK    3  A    between atoms: S_11  and  C_12 
REMARK    4  A    between atoms: C_12  and  C_13 
REMARK       I    between atoms: C_13  and  N_15 
REMARK    5  A    between atoms: N_15  and  C_17 
REMARK    6  A    between atoms: C_17  and  C_18 
REMARK       I    between atoms: C_18  and  N_20 
REMARK    7  A    between atoms: N_20  and  C_21 
REMARK    8  A    between atoms: C_26  and  C_27 
ROOT
ATOM      1  C   UNL d   1      10.243  -2.188   5.253  0.00  0.00     0.229 C 
ATOM      2  O   UNL d   1      10.878  -2.022   4.213  0.00  0.00    -0.273 OA
ATOM      3  N   UNL d   1      10.766  -2.906   6.318  0.00  0.00    -0.347 N 
ATOM      4  C   UNL d   1      10.033  -3.114   7.561  0.00  0.00     0.153 C 
ENDROOT
BRANCH   1   5
ATOM      5  C   UNL d   1       8.808  -1.623   5.422  0.00  0.00     0.180 C 
BRANCH   5   6
ATOM      6  S   UNL d   1       8.287  -0.745   3.896  0.00  0.00    -0.114 SA
BRANCH   6   7
ATOM      7  C   UNL d   1       6.593  -0.209   4.245  0.00  0.00     0.247 A 
ATOM      8  N   UNL d   1       6.082   0.615   3.103  0.00  0.00    -0.358 N 
ATOM      9  C   UNL d   1       5.037   0.070   2.598  0.00  0.00     0.059 A 
ATOM     10  H   UNL d   1       6.569   1.408   2.684  0.00  0.00     0.162 HD
ATOM     11  C   UNL d   1       4.678  -1.124   3.412  0.00  0.00     0.057 A 
ATOM     12  C   UNL d   1       4.268   0.428   1.420  0.00  0.00     0.068 A 
ATOM     13  C   UNL d   1       3.504  -1.914   3.040  0.00  0.00     0.034 A 
ATOM     14  N   UNL d   1       5.532  -1.261   4.357  0.00  0.00    -0.359 N 
ATOM     15  C   UNL d   1       2.837  -1.505   1.944  0.00  0.00     0.039 A 
ATOM     16  C   UNL d   1       3.202  -0.341   1.140  0.00  0.00     0.070 A 
ATOM     17  H   UNL d   1       5.486  -1.997   5.064  0.00  0.00     0.162 HD
BRANCH  16  18
ATOM     18  O   UNL d   1       2.526  -0.110  -0.038  0.00  0.00    -0.356 OA
ATOM     19  C   UNL d   1       1.097  -0.078  -0.014  0.00  0.00     0.210 C 
ENDBRANCH  16  18
ENDBRANCH   6   7
ENDBRANCH   5   6
ENDBRANCH   1   5
BRANCH   3  20
ATOM     20  C   UNL d   1      12.155  -3.480   6.213  0.00  0.00     0.228 C 
BRANCH  20  21
ATOM     21  C   UNL d   1      12.657  -4.297   7.444  0.00  0.00     0.240 C 
ATOM     22  O   UNL d   1      12.003  -4.353   8.487  0.00  0.00    -0.271 OA
ATOM     23  N   UNL d   1      13.893  -4.913   7.358  0.00  0.00    -0.325 N 
ATOM     24  H   UNL d   1      14.561  -4.524   6.696  0.00  0.00     0.169 HD
BRANCH  23  25
ATOM     25  C   UNL d   1      14.420  -5.596   8.501  0.00  0.00     0.049 A 
ATOM     26  C   UNL d   1      13.583  -6.424   9.273  0.00  0.00     0.030 A 
ATOM     27  C   UNL d   1      14.025  -7.006  10.461  0.00  0.00     0.002 A 
ATOM     28  C   UNL d   1      15.353  -6.870  10.838  0.00  0.00     0.001 A 
ATOM     29  C   UNL d   1      16.222  -6.131  10.034  0.00  0.00     0.018 A 
ATOM     30  C   UNL d   1      15.754  -5.431   8.899  0.00  0.00     0.074 A 
BRANCH  30  31
ATOM     31  C   UNL d   1      16.680  -4.443   8.245  0.00  0.00     0.419 C 
ATOM     32  F   UNL d   1      17.155  -3.512   9.119  0.00  0.00    -0.166 F 
ATOM     33  F   UNL d   1      17.765  -5.032   7.682  0.00  0.00    -0.166 F 
ATOM     34  F   UNL d   1      16.092  -3.723   7.240  0.00  0.00    -0.166 F 
ENDBRANCH  30  31
ENDBRANCH  23  25
ENDBRANCH  20  21
ENDBRANCH   3  20
TORSDOF 8
