@<TRIPOS>MOLECULE
*****
 47 48 0 0 0
SMALL
GASTEIGER

@<TRIPOS>ATOM
      1 C           0.9662    0.0568    0.0224 C.3     1  UNL1        0.0788
      2 O           2.3828    0.1729    0.0869 O.3     1  UNL1       -0.4951
      3 C           3.0522   -0.7352    0.8592 C.ar    1  UNL1        0.1203
      4 C           4.2687   -0.2962    1.3836 C.ar    1  UNL1       -0.0165
      5 C           5.1188   -1.1824    2.0667 C.ar    1  UNL1       -0.0165
      6 C           4.7383   -2.5096    2.2932 C.ar    1  UNL1        0.1207
      7 O           5.6166   -3.2848    3.0225 O.3     1  UNL1       -0.4915
      8 C           5.1737   -4.6159    3.3536 C.3     1  UNL1        0.0979
      9 C           6.1831   -5.3497    4.2586 C.3     1  UNL1        0.0595
     10 C           5.7402   -6.7907    4.5391 C.2     1  UNL1        0.2323
     11 O           4.6605   -7.2478    4.1240 O.2     1  UNL1       -0.2742
     12 N           6.6137   -7.5670    5.2837 N.am    1  UNL1       -0.2350
     13 N           6.3299   -8.9593    5.5250 N.am    1  UNL1       -0.2456
     14 C           7.3424   -9.8749    5.8894 C.2     1  UNL1        0.1511
     15 S           8.9825   -9.5318    5.6837 S.2     1  UNL1       -0.0171
     16 N           6.8186  -10.9932    6.5740 N.am    1  UNL1       -0.2929
     17 C           7.4781  -11.8282    7.5475 C.ar    1  UNL1        0.0749
     18 C           7.4898  -13.2200    7.2966 C.ar    1  UNL1       -0.0369
     19 C           8.0336  -14.1406    8.2133 C.ar    1  UNL1       -0.0598
     20 C           8.6082  -13.6904    9.3925 C.ar    1  UNL1       -0.0582
     21 C           8.5693  -12.3298    9.6811 C.ar    1  UNL1       -0.0181
     22 C           7.9742  -11.3953    8.8017 C.ar    1  UNL1        0.1412
     23 O           7.8866  -10.1699    9.4188 O.3     1  UNL1       -0.4933
     24 C           7.1726   -9.1453    8.7706 C.3     1  UNL1        0.0789
     25 C           3.5135   -2.9384    1.7742 C.ar    1  UNL1       -0.0165
     26 C           2.6761   -2.0598    1.0622 C.ar    1  UNL1       -0.0165
     27 H           0.6101    0.7562   -0.7423 H       1  UNL1        0.0660
     28 H           0.5275    0.3531    0.9795 H       1  UNL1        0.0660
     29 H           0.6209   -0.9369   -0.2756 H       1  UNL1        0.0660
     30 H           4.5592    0.7448    1.2559 H       1  UNL1        0.0655
     31 H           6.0869   -0.8242    2.4071 H       1  UNL1        0.0655
     32 H           5.0552   -5.1853    2.4245 H       1  UNL1        0.0701
     33 H           4.2112   -4.5582    3.8771 H       1  UNL1        0.0701
     34 H           6.2955   -4.8026    5.2029 H       1  UNL1        0.0392
     35 H           7.1666   -5.3599    3.7746 H       1  UNL1        0.0392
     36 H           7.4827   -7.2052    5.6756 H       1  UNL1        0.1728
     37 H           5.3628   -9.2366    5.3592 H       1  UNL1        0.1718
     38 H           5.9558  -11.3792    6.2101 H       1  UNL1        0.1540
     39 H           7.1132  -13.6186    6.3574 H       1  UNL1        0.0637
     40 H           8.0166  -15.2097    8.0064 H       1  UNL1        0.0618
     41 H           9.0644  -14.3864   10.0942 H       1  UNL1        0.0619
     42 H           8.9732  -11.9855   10.6330 H       1  UNL1        0.0655
     43 H           7.2841   -8.1948    9.2935 H       1  UNL1        0.0660
     44 H           6.1137   -9.3881    8.6370 H       1  UNL1        0.0660
     45 H           7.6644   -8.9298    7.8476 H       1  UNL1        0.0660
     46 H           3.1819   -3.9658    1.8797 H       1  UNL1        0.0655
     47 H           1.7548   -2.4587    0.6527 H       1  UNL1        0.0655
@<TRIPOS>BOND
     1     1     2    1
     2     2     3    1
     3     3     4   ar
     4     4     5   ar
     5     5     6   ar
     6     6     7    1
     7     7     8    1
     8     8     9    1
     9     9    10    1
    10    10    11    2
    11    10    12   am
    12    12    13    1
    13    13    14    1
    14    14    15    2
    15    14    16    1
    16    16    17    1
    17    17    18   ar
    18    18    19   ar
    19    19    20   ar
    20    20    21   ar
    21    21    22   ar
    22    17    22   ar
    23    22    23    1
    24    23    24    1
    25     6    25   ar
    26    25    26   ar
    27     3    26   ar
    28     1    27    1
    29     1    28    1
    30     1    29    1
    31     4    30    1
    32     5    31    1
    33     8    32    1
    34     8    33    1
    35     9    34    1
    36     9    35    1
    37    12    36    1
    38    13    37    1
    39    16    38    1
    40    18    39    1
    41    19    40    1
    42    20    41    1
    43    21    42    1
    44    24    43    1
    45    24    44    1
    46    24    45    1
    47    25    46    1
    48    26    47    1
