@<TRIPOS>MOLECULE
*****
 63 64 0 0 0
SMALL
GASTEIGER

@<TRIPOS>ATOM
      1 C           1.0680   -0.0974   -0.0580 C.3     1  UNL1       -0.0651
      2 C           2.5934   -0.1415   -0.1868 C.3     1  UNL1       -0.0511
      3 C           3.1543    1.0836    0.4899 C.3     1  UNL1       -0.0128
      4 C           4.6599    1.1264    0.6895 C.3     1  UNL1       -0.0315
      5 N           5.1061    2.3436    1.4983 N.4     1  UNL1        0.2407
      6 C           4.6175    2.4207    2.9452 C.3     1  UNL1       -0.0315
      7 C           3.1203    2.5793    3.0564 C.3     1  UNL1       -0.0128
      8 C           2.5785    2.5866    4.4611 C.3     1  UNL1       -0.0511
      9 C           1.0564    2.4997    4.3652 C.3     1  UNL1       -0.0651
     10 C           6.6599    2.4450    1.5163 C.3     1  UNL1        0.0274
     11 C           7.0931    3.7589    2.0942 C.ar    1  UNL1        0.1503
     12 C           6.6797    5.0217    1.7414 C.ar    1  UNL1       -0.0146
     13 C           7.2110    5.9052    2.6991 C.ar    1  UNL1       -0.0108
     14 C           7.9756    5.1726    3.5935 C.ar    1  UNL1        0.1912
     15 C           8.7719    5.6074    4.7694 C.2     1  UNL1        0.2954
     16 O           9.4013    4.8547    5.4940 O.2     1  UNL1       -0.2653
     17 N           8.7421    6.9929    4.9971 N.am    1  UNL1       -0.2286
     18 N           9.3947    7.6433    6.1027 N.am    1  UNL1       -0.2453
     19 C           9.3010    9.0483    6.2088 C.2     1  UNL1        0.1511
     20 S           8.4942    9.9373    5.0206 S.2     1  UNL1       -0.0171
     21 N           9.9443    9.5736    7.3380 N.am    1  UNL1       -0.2929
     22 C          10.1136   10.9695    7.6475 C.ar    1  UNL1        0.0749
     23 C           8.9585   11.7688    7.6736 C.ar    1  UNL1       -0.0355
     24 C           9.0070   13.1477    7.8910 C.ar    1  UNL1       -0.0414
     25 C          10.2251   13.7608    8.1302 C.ar    1  UNL1        0.0445
     26 CL         10.2777   15.4656    8.3641 Cl      1  UNL1       -0.0834
     27 C          11.3869   12.9919    8.1835 C.ar    1  UNL1        0.0002
     28 C          11.3484   11.5910    7.9600 C.ar    1  UNL1        0.1425
     29 O          12.6041   11.0362    8.0190 O.3     1  UNL1       -0.4932
     30 C          12.7369    9.6455    7.7989 C.3     1  UNL1        0.0789
     31 O           7.8750    3.8247    3.2281 O.2     1  UNL1       -0.4497
     32 H           0.6237   -0.9806   -0.5166 H       1  UNL1        0.0230
     33 H           0.6626    0.8034   -0.5305 H       1  UNL1        0.0230
     34 H           0.7500   -0.0748    0.9956 H       1  UNL1        0.0230
     35 H           2.9209   -0.1974   -1.2222 H       1  UNL1        0.0264
     36 H           2.9562   -1.0236    0.3576 H       1  UNL1        0.0264
     37 H           2.6999    0.8796    1.4299 H       1  UNL1        0.0317
     38 H           2.7498    2.0281    0.1045 H       1  UNL1        0.0317
     39 H           5.1449    1.1970   -0.2887 H       1  UNL1        0.0814
     40 H           5.0189    0.2456    1.2270 H       1  UNL1        0.0814
     41 H           4.7703    3.1778    1.0007 H       1  UNL1        0.2038
     42 H           5.0665    3.3035    3.4044 H       1  UNL1        0.0814
     43 H           4.9810    1.5193    3.4435 H       1  UNL1        0.0814
     44 H           2.6542    1.6650    2.7756 H       1  UNL1        0.0317
     45 H           2.7323    3.3861    2.4225 H       1  UNL1        0.0317
     46 H           2.9157    3.4665    5.0052 H       1  UNL1        0.0264
     47 H           2.9468    1.6849    4.9686 H       1  UNL1        0.0264
     48 H           0.6547    3.3511    3.8060 H       1  UNL1        0.0230
     49 H           0.6162    2.4725    5.3607 H       1  UNL1        0.0230
     50 H           0.7382    1.5903    3.8330 H       1  UNL1        0.0230
     51 H           6.9757    2.3866    0.4670 H       1  UNL1        0.0898
     52 H           7.0304    1.5652    2.0525 H       1  UNL1        0.0898
     53 H           6.0179    5.2599    0.9207 H       1  UNL1        0.0654
     54 H           7.0421    6.9713    2.7244 H       1  UNL1        0.0657
     55 H           8.2253    7.6324    4.4014 H       1  UNL1        0.1732
     56 H           9.9794    7.0533    6.6920 H       1  UNL1        0.1718
     57 H          10.5071    8.9314    7.8719 H       1  UNL1        0.1540
     58 H           7.9814   11.3162    7.5337 H       1  UNL1        0.0638
     59 H           8.0875   13.7262    7.8639 H       1  UNL1        0.0633
     60 H          12.3365   13.4904    8.3814 H       1  UNL1        0.0669
     61 H          13.7910    9.3621    7.8359 H       1  UNL1        0.0660
     62 H          12.3686    9.3709    6.8052 H       1  UNL1        0.0660
     63 H          12.2431    9.0943    8.6050 H       1  UNL1        0.0660
@<TRIPOS>UNITY_ATOM_ATTR
5 1
charge 1
@<TRIPOS>BOND
     1     1     2    1
     2     2     3    1
     3     3     4    1
     4     4     5    1
     5     5     6    1
     6     6     7    1
     7     7     8    1
     8     8     9    1
     9     5    10    1
    10    10    11    1
    11    11    12   ar
    12    12    13   ar
    13    13    14   ar
    14    14    15    1
    15    15    16    2
    16    15    17   am
    17    17    18    1
    18    18    19    1
    19    19    20    2
    20    19    21    1
    21    21    22    1
    22    22    23   ar
    23    23    24   ar
    24    24    25   ar
    25    25    26    1
    26    25    27   ar
    27    27    28   ar
    28    22    28   ar
    29    28    29    1
    30    29    30    1
    31    14    31   ar
    32    11    31   ar
    33     1    32    1
    34     1    33    1
    35     1    34    1
    36     2    35    1
    37     2    36    1
    38     3    37    1
    39     3    38    1
    40     4    39    1
    41     4    40    1
    42     5    41    1
    43     6    42    1
    44     6    43    1
    45     7    44    1
    46     7    45    1
    47     8    46    1
    48     8    47    1
    49     9    48    1
    50     9    49    1
    51     9    50    1
    52    10    51    1
    53    10    52    1
    54    12    53    1
    55    13    54    1
    56    17    55    1
    57    18    56    1
    58    21    57    1
    59    23    58    1
    60    24    59    1
    61    27    60    1
    62    30    61    1
    63    30    62    1
    64    30    63    1
