REMARK  6 active torsions:
REMARK  status: ('A' for Active; 'I' for Inactive)
REMARK    1  A    between atoms: C_5  and  N_6 
REMARK    2  A    between atoms: C_7  and  C_8 
REMARK    3  A    between atoms: C_13  and  O_14 
REMARK    4  A    between atoms: C_22  and  N_23 
REMARK    5  A    between atoms: C_24  and  C_25 
REMARK    6  A    between atoms: C_30  and  O_31 
ROOT
ATOM      1  C   UNL d   1       0.868  -0.360   1.072  0.00  0.00     0.269 C 
ATOM      2  N   UNL d   1       2.792  -0.247   0.569  0.00  0.00    -0.074 N 
ATOM      3  C   UNL d   1       3.651   0.497  -1.010  0.00  0.00     0.239 C 
ATOM      4  C   UNL d   1       4.321  -0.494  -1.906  0.00  0.00     0.091 C 
ATOM      5  C   UNL d   1       3.857  -1.802  -1.411  0.00  0.00     0.169 C 
ATOM      6  O   UNL d   1       4.755  -2.712  -2.160  0.00  0.00    -0.317 OA
ATOM      7  C   UNL d   1       4.549  -4.059  -2.011  0.00  0.00     0.080 C 
ATOM      8  C   UNL d   1       5.255  -4.973  -2.787  0.00  0.00     0.037 C 
ATOM      9  C   UNL d   1       4.917  -6.338  -2.736  0.00  0.00     0.003 C 
ATOM     10  C   UNL d   1       3.886  -6.790  -1.913  0.00  0.00     0.001 C 
ATOM     11  C   UNL d   1       3.232  -5.886  -1.105  0.00  0.00     0.012 C 
ATOM     12  C   UNL d   1       3.621  -4.545  -1.104  0.00  0.00     0.001 C 
ATOM     13  C   UNL d   1       3.025  -3.616  -0.107  0.00  0.00     0.153 C 
ATOM     14  C   UNL d   1       3.903  -2.336   0.042  0.00  0.00     0.099 C 
ATOM     15  C   UNL d   1       3.308  -1.491   1.112  0.00  0.00     0.246 C 
ATOM     16  H   UNL d   1       3.178   0.463   1.218  0.00  0.00     0.279 HD
ENDROOT
BRANCH   5  17
ATOM     17  N   UNL d   1       2.375  -1.525  -1.843  0.00  0.00    -0.262 NA
ATOM     18  C   UNL d   1       1.565  -0.612  -1.234  0.00  0.00     0.128 C 
BRANCH  18  19
ATOM     19  C   UNL d   1       1.472   1.203  -0.522  0.00  0.00     0.014 C 
ATOM     20  C   UNL d   1       0.713   1.849  -1.364  0.00  0.00     0.015 C 
ATOM     21  C   UNL d   1       0.203   3.087  -0.922  0.00  0.00     0.001 C 
ATOM     22  C   UNL d   1       0.349   3.625   0.406  0.00  0.00     0.003 C 
ATOM     23  C   UNL d   1       1.055   3.052   1.421  0.00  0.00     0.037 C 
ATOM     24  C   UNL d   1       1.747   1.924   0.987  0.00  0.00     0.077 C 
BRANCH  24  25
ATOM     25  O   UNL d   1       2.504   1.385   2.090  0.00  0.00    -0.360 OA
ATOM     26  H   UNL d   1       2.470   1.855   2.957  0.00  0.00     0.217 HD
ENDBRANCH  24  25
ENDBRANCH  18  19
ENDBRANCH   5  17
BRANCH  13  27
ATOM     27  N   UNL d   1       2.700  -4.237   1.181  0.00  0.00    -0.290 NA
ATOM     28  C   UNL d   1       3.724  -4.734   1.776  0.00  0.00     0.125 C 
BRANCH  28  29
ATOM     29  C   UNL d   1       3.569  -5.342   3.080  0.00  0.00     0.014 A 
ATOM     30  C   UNL d   1       2.455  -6.138   3.342  0.00  0.00     0.015 A 
ATOM     31  C   UNL d   1       2.221  -6.543   4.647  0.00  0.00     0.001 A 
ATOM     32  C   UNL d   1       3.162  -6.251   5.637  0.00  0.00     0.003 A 
ATOM     33  C   UNL d   1       4.340  -5.558   5.329  0.00  0.00     0.037 A 
ATOM     34  C   UNL d   1       4.510  -5.038   4.056  0.00  0.00     0.077 A 
BRANCH  34  35
ATOM     35  O   UNL d   1       5.542  -4.194   3.756  0.00  0.00    -0.360 OA
ATOM     36  H   UNL d   1       6.090  -4.064   4.549  0.00  0.00     0.217 HD
ENDBRANCH  34  35
ENDBRANCH  28  29
ENDBRANCH  13  27
TORSDOF 6
