@<TRIPOS>MOLECULE
*****
 55 58 0 0 0
SMALL
GASTEIGER

@<TRIPOS>ATOM
      1 C           1.0121   -0.0898   -0.0046 C.3     1  UNL1       -0.0307
      2 C           2.5372   -0.0925    0.0022 C.3     1  UNL1        0.0868
      3 O           3.0088    0.8026    1.0166 O.3     1  UNL1       -0.4922
      4 C           4.3641    1.0121    1.0760 C.ar    1  UNL1        0.1205
      5 C           4.9071    1.2098    2.3492 C.ar    1  UNL1       -0.0193
      6 C           6.2670    1.5405    2.5138 C.ar    1  UNL1       -0.0476
      7 C           7.1175    1.6322    1.4037 C.ar    1  UNL1        0.0195
      8 C           8.6036    1.7985    1.5968 C.ar    1  UNL1        0.1648
      9 N           9.1860    2.9215    0.9894 N.ar    1  UNL1       -0.2021
     10 C          10.4725    3.0831    1.1690 C.ar    1  UNL1        0.1920
     11 S          11.3033    4.4935    0.5197 S.3     1  UNL1       -0.0766
     12 C          10.0020    5.5772   -0.2523 C.3     1  UNL1        0.0779
     13 C          10.6085    7.0050   -0.5747 C.2     1  UNL1        0.2275
     14 O          11.6214    7.4244   -0.0084 O.2     1  UNL1       -0.2746
     15 N          10.0238    7.7208   -1.6314 N.am    1  UNL1       -0.2846
     16 C          10.7464    8.6768   -2.4234 C.ar    1  UNL1        0.0366
     17 C          10.2283    9.9834   -2.5199 C.ar    1  UNL1       -0.0402
     18 C          10.8839   10.9789   -3.2664 C.ar    1  UNL1       -0.0600
     19 C          12.0831   10.6960   -3.9056 C.ar    1  UNL1       -0.0614
     20 C          12.5761    9.3961   -3.8724 C.ar    1  UNL1       -0.0568
     21 C          11.9100    8.3591   -3.1700 C.ar    1  UNL1       -0.0264
     22 C          12.5533    6.9925   -3.3522 C.3     1  UNL1       -0.0288
     23 C          11.8049    5.8053   -2.8133 C.3     1  UNL1       -0.0612
     24 N          11.2160    2.1574    1.8621 N.ar    1  UNL1       -0.2102
     25 N          12.5217    2.1953    2.2801 N.ar    1  UNL1       -0.2555
     26 C          12.6863    1.1835    3.2177 C.ar    1  UNL1        0.2671
     27 O          13.6416    0.9654    3.9229 O.2     1  UNL1       -0.2664
     28 C          11.4120    0.4057    3.2324 C.ar    1  UNL1        0.0483
     29 C          10.5688    1.1198    2.4705 C.ar    1  UNL1        0.1623
     30 N           9.2311    0.8999    2.3164 N.ar    1  UNL1       -0.2082
     31 C           6.5701    1.4570    0.1279 C.ar    1  UNL1       -0.0476
     32 C           5.2010    1.1499   -0.0324 C.ar    1  UNL1       -0.0193
     33 H           0.6250   -0.8126   -0.7312 H       1  UNL1        0.0262
     34 H           0.6250    0.9006   -0.2691 H       1  UNL1        0.0262
     35 H           0.6106   -0.3375    0.9829 H       1  UNL1        0.0262
     36 H           2.8725    0.2003   -0.9969 H       1  UNL1        0.0694
     37 H           2.8921   -1.1038    0.2280 H       1  UNL1        0.0694
     38 H           4.2723    1.0903    3.2257 H       1  UNL1        0.0654
     39 H           6.6486    1.7358    3.5131 H       1  UNL1        0.0626
     40 H           9.1536    5.6950    0.4179 H       1  UNL1        0.0475
     41 H           9.6770    5.0822   -1.1767 H       1  UNL1        0.0475
     42 H           9.0699    7.5395   -1.9171 H       1  UNL1        0.1548
     43 H           9.3443   10.2736   -1.9576 H       1  UNL1        0.0636
     44 H          10.4744   11.9851   -3.3315 H       1  UNL1        0.0618
     45 H          12.6348   11.4756   -4.4275 H       1  UNL1        0.0618
     46 H          13.4993    9.1787   -4.4105 H       1  UNL1        0.0621
     47 H          13.5223    7.0350   -2.8407 H       1  UNL1        0.0311
     48 H          12.7349    6.8109   -4.4175 H       1  UNL1        0.0311
     49 H          12.0023    5.8578   -1.7557 H       1  UNL1        0.0233
     50 H          12.1790    4.8103   -3.0441 H       1  UNL1        0.0233
     51 H          10.7371    5.8420   -3.0571 H       1  UNL1        0.0233
     52 H          13.2174    2.8433    1.9387 H       1  UNL1        0.1906
     53 H          11.2555   -0.4907    3.8014 H       1  UNL1        0.0709
     54 H           7.1989    1.5420   -0.7536 H       1  UNL1        0.0626
     55 H           4.8117    1.0392   -1.0388 H       1  UNL1        0.0654
@<TRIPOS>BOND
     1     1     2    1
     2     2     3    1
     3     3     4    1
     4     4     5   ar
     5     5     6   ar
     6     6     7   ar
     7     7     8    1
     8     8     9   ar
     9     9    10   ar
    10    10    11    1
    11    11    12    1
    12    12    13    1
    13    13    14    2
    14    13    15   am
    15    15    16    1
    16    16    17   ar
    17    17    18   ar
    18    18    19   ar
    19    19    20   ar
    20    20    21   ar
    21    16    21   ar
    22    21    22    1
    23    22    23    1
    24    10    24   ar
    25    24    25   ar
    26    25    26   ar
    27    26    27    2
    28    26    28   ar
    29    28    29   ar
    30    24    29   ar
    31    29    30   ar
    32     8    30   ar
    33     7    31   ar
    34    31    32   ar
    35     4    32   ar
    36     1    33    1
    37     1    34    1
    38     1    35    1
    39     2    36    1
    40     2    37    1
    41     5    38    1
    42     6    39    1
    43    12    40    1
    44    12    41    1
    45    15    42    1
    46    17    43    1
    47    18    44    1
    48    19    45    1
    49    20    46    1
    50    22    47    1
    51    22    48    1
    52    23    49    1
    53    23    50    1
    54    23    51    1
    55    25    52    1
    56    28    53    1
    57    31    54    1
    58    32    55    1
