@<TRIPOS>MOLECULE
*****
 43 45 0 0 0
SMALL
GASTEIGER

@<TRIPOS>ATOM
      1 C           1.0366   -0.0018    0.0793 C.3     1  UNL1       -0.0203
      2 C           2.5623   -0.0062    0.0790 C.2     1  UNL1        0.0635
      3 N           3.1784    1.0954    0.4110 N.2     1  UNL1       -0.1845
      4 N           4.5567    1.1895    0.3890 N.am    1  UNL1       -0.2039
      5 C           5.1798    2.3769    0.7783 C.2     1  UNL1        0.2698
      6 O           4.5585    3.3920    1.1064 O.2     1  UNL1       -0.2703
      7 C           6.7261    2.3277    0.7654 C.3     1  UNL1        0.1668
      8 O           7.2572    3.5956    1.1845 O.3     1  UNL1       -0.4821
      9 C           8.6267    3.7236    1.2108 C.ar    1  UNL1        0.1289
     10 C           9.4212    3.2895    0.1467 C.ar    1  UNL1       -0.0193
     11 C          10.8068    3.4343    0.1976 C.ar    1  UNL1       -0.0577
     12 C          11.4091    4.0382    1.2990 C.ar    1  UNL1       -0.0538
     13 C          10.6332    4.5512    2.3460 C.ar    1  UNL1       -0.0144
     14 C          11.2526    5.2100    3.4232 C.ar    1  UNL1       -0.0539
     15 C          10.4976    5.7385    4.4678 C.ar    1  UNL1       -0.0612
     16 C           9.1131    5.6181    4.4434 C.ar    1  UNL1       -0.0611
     17 C           8.4828    4.9613    3.3792 C.ar    1  UNL1       -0.0505
     18 C           9.2209    4.4081    2.3087 C.ar    1  UNL1        0.0238
     19 C           3.2104   -1.2921   -0.2926 C.ar    1  UNL1        0.0009
     20 C           2.7829   -2.0075   -1.4161 C.ar    1  UNL1       -0.0526
     21 C           3.4626   -3.1669   -1.7983 C.ar    1  UNL1       -0.0577
     22 C           4.5778   -3.5997   -1.0754 C.ar    1  UNL1       -0.0201
     23 C           4.9824   -2.8866    0.0474 C.ar    1  UNL1        0.1175
     24 O           6.0881   -3.2239    0.7679 O.3     1  UNL1       -0.5067
     25 C           4.2813   -1.7666    0.4675 C.ar    1  UNL1       -0.0113
     26 H           0.6464    0.9741    0.3830 H       1  UNL1        0.0293
     27 H           0.6592   -0.7571    0.7770 H       1  UNL1        0.0293
     28 H           0.6405   -0.2204   -0.9171 H       1  UNL1        0.0293
     29 H           5.1060    0.4108    0.0475 H       1  UNL1        0.1773
     30 H           7.0412    2.0770   -0.2534 H       1  UNL1        0.0795
     31 H           7.0622    1.5465    1.4594 H       1  UNL1        0.0795
     32 H           8.9800    2.8677   -0.7491 H       1  UNL1        0.0654
     33 H          11.4210    3.0863   -0.6285 H       1  UNL1        0.0619
     34 H          12.4938    4.1236    1.3248 H       1  UNL1        0.0624
     35 H          12.3347    5.3241    3.4526 H       1  UNL1        0.0624
     36 H          10.9901    6.2453    5.2941 H       1  UNL1        0.0618
     37 H           8.5185    6.0363    5.2517 H       1  UNL1        0.0618
     38 H           7.3963    4.8889    3.3824 H       1  UNL1        0.0625
     39 H           1.9439   -1.6671   -2.0180 H       1  UNL1        0.0624
     40 H           3.1324   -3.7199   -2.6752 H       1  UNL1        0.0619
     41 H           5.1107   -4.4872   -1.4023 H       1  UNL1        0.0654
     42 H           6.4946   -4.0185    0.3852 H       1  UNL1        0.2921
     43 H           4.5933   -1.2533    1.3733 H       1  UNL1        0.0660
@<TRIPOS>BOND
     1     1     2    1
     2     2     3    2
     3     3     4    1
     4     4     5   am
     5     5     6    2
     6     5     7    1
     7     7     8    1
     8     8     9    1
     9     9    10   ar
    10    10    11   ar
    11    11    12   ar
    12    12    13   ar
    13    13    14   ar
    14    14    15   ar
    15    15    16   ar
    16    16    17   ar
    17    17    18   ar
    18     9    18   ar
    19    13    18   ar
    20     2    19    1
    21    19    20   ar
    22    20    21   ar
    23    21    22   ar
    24    22    23   ar
    25    23    24    1
    26    23    25   ar
    27    19    25   ar
    28     1    26    1
    29     1    27    1
    30     1    28    1
    31     4    29    1
    32     7    30    1
    33     7    31    1
    34    10    32    1
    35    11    33    1
    36    12    34    1
    37    14    35    1
    38    15    36    1
    39    16    37    1
    40    17    38    1
    41    20    39    1
    42    21    40    1
    43    22    41    1
    44    24    42    1
    45    25    43    1
