REMARK  5 active torsions:
REMARK  status: ('A' for Active; 'I' for Inactive)
REMARK    1  A    between atoms: C_5  and  O_6 
REMARK    2  A    between atoms: C_7  and  O_6 
REMARK    3  A    between atoms: C_7  and  C_9 
REMARK       I    between atoms: C_9  and  N_11 
REMARK    4  A    between atoms: N_11  and  N_12 
REMARK       I    between atoms: N_12  and  C_13 
REMARK       I    between atoms: C_13  and  N_15 
REMARK    5  A    between atoms: N_15  and  C_16 
ROOT
ATOM      1  C   UNL d   1      -5.572   0.966  -0.122  0.00  0.00     0.265 C 
ATOM      2  O   UNL d   1      -6.044  -0.173  -0.088  0.00  0.00    -0.269 OA
ATOM      3  N   UNL d   1      -6.404   2.074  -0.123  0.00  0.00    -0.264 N 
ATOM      4  H   UNL d   1      -6.079   3.039  -0.149  0.00  0.00     0.190 HD
ENDROOT
BRANCH   1   5
ATOM      5  C   UNL d   1      -4.032   1.238  -0.101  0.00  0.00     0.218 C 
ATOM      6  C   UNL d   1      -3.290  -0.048   0.288  0.00  0.00     0.050 C 
BRANCH   5   7
ATOM      7  O   UNL d   1      -3.525   1.932  -1.260  0.00  0.00    -0.337 OA
BRANCH   7   8
ATOM      8  C   UNL d   1      -3.138   1.300  -2.411  0.00  0.00     0.070 A 
ATOM      9  C   UNL d   1      -2.825  -0.047  -2.548  0.00  0.00     0.037 A 
ATOM     10  C   UNL d   1      -2.467  -0.635  -3.747  0.00  0.00     0.009 A 
ATOM     11  C   UNL d   1      -2.331   0.139  -4.877  0.00  0.00    -0.062 A 
ATOM     12  C   UNL d   1      -1.913  -0.539  -6.139  0.00  0.00     0.048 C 
ATOM     13  C   UNL d   1      -2.567   1.515  -4.775  0.00  0.00     0.009 A 
ATOM     14  C   UNL d   1      -2.973   2.092  -3.551  0.00  0.00     0.037 A 
ENDBRANCH   7   8
ENDBRANCH   5   7
ENDBRANCH   1   5
BRANCH   3  15
ATOM     15  N   UNL d   1      -7.824   1.876  -0.130  0.00  0.00    -0.249 N 
ATOM     16  C   UNL d   1      -8.652   2.985  -0.117  0.00  0.00     0.335 C 
ATOM     17  O   UNL d   1      -8.200   4.118  -0.055  0.00  0.00    -0.246 OA
ATOM     18  N   UNL d   1     -10.006   2.700  -0.205  0.00  0.00    -0.338 N 
ATOM     19  H   UNL d   1     -10.315   1.740  -0.193  0.00  0.00     0.164 HD
ATOM     20  H   UNL d   1      -8.143   0.913  -0.158  0.00  0.00     0.192 HD
BRANCH  18  21
ATOM     21  C   UNL d   1     -11.024   3.768  -0.231  0.00  0.00     0.078 C 
ATOM     22  C   UNL d   1     -10.863   4.663  -1.462  0.00  0.00     0.032 C 
ATOM     23  C   UNL d   1     -12.461   3.227  -0.222  0.00  0.00     0.032 C 
ENDBRANCH  18  21
ENDBRANCH   3  15
TORSDOF 5
