REMARK  5 active torsions:
REMARK  status: ('A' for Active; 'I' for Inactive)
REMARK    1  A    between atoms: C_3  and  S_2 
REMARK    2  A    between atoms: C_3  and  C_5 
REMARK       I    between atoms: C_5  and  N_7 
REMARK    3  A    between atoms: N_7  and  C_8 
REMARK    4  A    between atoms: C_10  and  C_11 
REMARK       I    between atoms: C_11  and  N_13 
REMARK    5  A    between atoms: N_13  and  C_14 
ROOT
ATOM      1  C   UNL d   1       7.123   2.875  -0.173  0.00  0.00     0.041 A 
ATOM      2  C   UNL d   1       7.842   1.980  -0.986  0.00  0.00     0.047 A 
ATOM      3  C   UNL d   1       9.239   1.964  -1.006  0.00  0.00     0.034 A 
ATOM      4  C   UNL d   1       9.924   2.879  -0.196  0.00  0.00     0.018 A 
ATOM      5  C   UNL d   1       9.223   3.780   0.615  0.00  0.00     0.010 A 
ATOM      6  C   UNL d   1       7.816   3.796   0.631  0.00  0.00    -0.035 A 
ATOM      7  C   UNL d   1       7.110   4.720   1.583  0.00  0.00     0.050 C 
ENDROOT
BRANCH   3   8
ATOM      8  C   UNL d   1      10.032   1.010  -1.847  0.00  0.00     0.256 C 
ATOM      9  O   UNL d   1      11.265   1.059  -1.771  0.00  0.00    -0.267 OA
ATOM     10  N   UNL d   1       9.344   0.173  -2.715  0.00  0.00    -0.323 N 
ATOM     11  H   UNL d   1       8.360   0.322  -2.886  0.00  0.00     0.169 HD
BRANCH  10  12
ATOM     12  C   UNL d   1       9.977  -0.749  -3.574  0.00  0.00     0.035 A 
ATOM     13  C   UNL d   1       9.492  -0.909  -4.876  0.00  0.00     0.029 A 
ATOM     14  C   UNL d   1      10.087  -1.838  -5.737  0.00  0.00     0.002 A 
ATOM     15  C   UNL d   1      11.174  -2.596  -5.303  0.00  0.00     0.000 A 
ATOM     16  C   UNL d   1      11.641  -2.456  -3.998  0.00  0.00     0.002 A 
ATOM     17  C   UNL d   1      11.046  -1.533  -3.137  0.00  0.00     0.029 A 
ENDBRANCH  10  12
ENDBRANCH   3   8
BRANCH   1  18
ATOM     18  N   UNL d   1       5.703   2.822  -0.179  0.00  0.00    -0.326 N 
ATOM     19  C   UNL d   1       5.029   1.602  -0.122  0.00  0.00     0.235 C 
ATOM     20  O   UNL d   1       5.605   0.513  -0.123  0.00  0.00    -0.272 OA
ATOM     21  H   UNL d   1       5.194   3.642   0.127  0.00  0.00     0.169 HD
BRANCH  19  22
ATOM     22  C   UNL d   1       3.492   1.683  -0.090  0.00  0.00     0.135 C 
ATOM     23  C   UNL d   1       2.923   0.258  -0.056  0.00  0.00     0.031 C 
BRANCH  22  24
ATOM     24  S   UNL d   1       2.944   2.577   1.421  0.00  0.00    -0.160 SA
ATOM     25  C   UNL d   1       1.891   3.860   0.693  0.00  0.00     0.090 C 
ENDBRANCH  22  24
ENDBRANCH  19  22
ENDBRANCH   1  18
TORSDOF 5
