REMARK  7 active torsions:
REMARK  status: ('A' for Active; 'I' for Inactive)
REMARK    1  A    between atoms: C_2  and  C_18 
REMARK    2  A    between atoms: N_3  and  N_4 
REMARK       I    between atoms: N_4  and  C_5 
REMARK    3  A    between atoms: C_5  and  C_7 
REMARK    4  A    between atoms: C_7  and  O_8 
REMARK    5  A    between atoms: O_8  and  C_9 
REMARK    6  A    between atoms: C_12  and  C_13 
REMARK    7  A    between atoms: C_22  and  O_23 
ROOT
ATOM      1  N   UNL d   1       4.507   0.757  -1.008  0.00  0.00    -0.245 N 
ATOM      2  C   UNL d   1       5.139   1.581  -1.934  0.00  0.00     0.261 C 
ATOM      3  O   UNL d   1       4.527   2.301  -2.731  0.00  0.00    -0.269 OA
ATOM      4  H   UNL d   1       5.056   0.098  -0.474  0.00  0.00     0.192 HD
ENDROOT
BRANCH   1   5
ATOM      5  N   UNL d   1       3.129   0.753  -0.891  0.00  0.00    -0.176 NA
ATOM      6  C   UNL d   1       2.520   0.013  -0.001  0.00  0.00     0.061 C 
ATOM      7  C   UNL d   1       0.997   0.000  -0.009  0.00  0.00     0.073 C 
BRANCH   6   8
ATOM      8  C   UNL d   1       3.197  -0.838   1.020  0.00  0.00    -0.008 C 
ATOM      9  C   UNL d   1       4.352  -0.349   1.639  0.00  0.00     0.013 C 
ATOM     10  C   UNL d   1       5.226  -1.224   2.273  0.00  0.00     0.004 C 
ATOM     11  C   UNL d   1       4.857  -2.554   2.458  0.00  0.00     0.036 C 
ATOM     12  C   UNL d   1       3.632  -3.002   1.968  0.00  0.00     0.066 C 
ATOM     13  C   UNL d   1       2.798  -2.159   1.239  0.00  0.00     0.050 C 
BRANCH  12  14
ATOM     14  O   UNL d   1       3.237  -4.297   2.128  0.00  0.00    -0.361 OA
ATOM     15  H   UNL d   1       3.940  -4.790   2.584  0.00  0.00     0.217 HD
ENDBRANCH  12  14
ENDBRANCH   6   8
ENDBRANCH   1   5
BRANCH   2  16
ATOM     16  C   UNL d   1       6.683   1.536  -1.875  0.00  0.00     0.280 C 
BRANCH  16  17
ATOM     17  O   UNL d   1       7.188   2.449  -2.852  0.00  0.00    -0.342 OA
BRANCH  17  18
ATOM     18  C   UNL d   1       8.540   2.563  -2.975  0.00  0.00     0.069 A 
ATOM     19  C   UNL d   1       9.027   3.857  -3.164  0.00  0.00     0.037 A 
ATOM     20  C   UNL d   1      10.385   4.080  -3.407  0.00  0.00     0.010 A 
ATOM     21  C   UNL d   1      11.296   3.014  -3.387  0.00  0.00    -0.055 A 
ATOM     22  C   UNL d   1      10.777   1.715  -3.259  0.00  0.00     0.010 A 
ATOM     23  C   UNL d   1       9.412   1.487  -3.059  0.00  0.00     0.037 A 
BRANCH  21  24
ATOM     24  C   UNL d   1      12.793   3.298  -3.439  0.00  0.00     0.010 C 
ATOM     25  C   UNL d   1      13.197   4.211  -2.269  0.00  0.00     0.015 C 
ATOM     26  C   UNL d   1      13.651   2.029  -3.375  0.00  0.00     0.015 C 
ENDBRANCH  21  24
ENDBRANCH  17  18
ENDBRANCH  16  17
ENDBRANCH   2  16
TORSDOF 7
