@<TRIPOS>MOLECULE
*****
 50 51 0 0 0
SMALL
GASTEIGER

@<TRIPOS>ATOM
      1 C           0.9454   -0.0170   -0.0612 C.3     1  UNL1       -0.0613
      2 C           2.4740    0.0466   -0.0754 C.3     1  UNL1       -0.0305
      3 C           2.9557    1.4488    0.2193 C.ar    1  UNL1       -0.0474
      4 C           3.8918    1.7138    1.2224 C.ar    1  UNL1       -0.0551
      5 C           4.1761    3.0432    1.5824 C.ar    1  UNL1       -0.0197
      6 C           3.6117    4.1235    0.8853 C.ar    1  UNL1        0.1212
      7 O           4.0085    5.3790    1.2722 O.3     1  UNL1       -0.4827
      8 C           3.5699    6.5090    0.4985 C.3     1  UNL1        0.1666
      9 C           4.2291    7.8342    0.9986 C.2     1  UNL1        0.2667
     10 O           5.0586    7.8755    1.9079 O.2     1  UNL1       -0.2705
     11 N           3.8252    8.9995    0.3510 N.am    1  UNL1       -0.2323
     12 N           4.3608   10.3055    0.7367 N.am    1  UNL1       -0.2454
     13 C           3.9110   11.4595    0.0669 C.2     1  UNL1        0.1533
     14 S           2.7825   11.3017   -1.1792 S.2     1  UNL1       -0.0170
     15 N           4.4701   12.6855    0.5094 N.am    1  UNL1       -0.2627
     16 C           4.1503   13.9782    0.0223 C.2     1  UNL1        0.2496
     17 O           3.3237   14.2162   -0.8550 O.2     1  UNL1       -0.2698
     18 C           4.8516   15.1954    0.5404 C.ar    1  UNL1        0.0378
     19 C           4.1332   16.4123    0.5974 C.ar    1  UNL1       -0.0496
     20 C           4.7923   17.6316    0.7913 C.ar    1  UNL1       -0.0603
     21 C           6.1714   17.6435    0.9887 C.ar    1  UNL1       -0.0477
     22 C           6.9027   16.4441    0.9377 C.ar    1  UNL1        0.0597
     23 C           8.3857   16.5276    1.0609 C.2     1  UNL1        0.3389
     24 O           8.9893   17.5791    1.2508 O.2     1  UNL1       -0.2450
     25 O           8.9545   15.3049    0.9302 O.3     1  UNL1       -0.4645
     26 C          10.3823   15.3049    1.0350 C.3     1  UNL1        0.0820
     27 C           6.2379   15.2204    0.7108 C.ar    1  UNL1       -0.0356
     28 C           2.7155    3.8520   -0.1411 C.ar    1  UNL1       -0.0197
     29 C           2.4090    2.5322   -0.4805 C.ar    1  UNL1       -0.0551
     30 H           0.5907   -1.0319   -0.2550 H       1  UNL1        0.0233
     31 H           0.5022    0.6284   -0.8275 H       1  UNL1        0.0233
     32 H           0.5534    0.3126    0.9080 H       1  UNL1        0.0233
     33 H           2.8571   -0.2778   -1.0500 H       1  UNL1        0.0311
     34 H           2.8559   -0.6576    0.6744 H       1  UNL1        0.0311
     35 H           4.3897    0.8979    1.7449 H       1  UNL1        0.0621
     36 H           4.8345    3.2291    2.4288 H       1  UNL1        0.0654
     37 H           2.4810    6.6039    0.5945 H       1  UNL1        0.0795
     38 H           3.8386    6.3690   -0.5577 H       1  UNL1        0.0795
     39 H           3.1441    9.0173   -0.4086 H       1  UNL1        0.1729
     40 H           5.0316   10.2739    1.5039 H       1  UNL1        0.1718
     41 H           5.1356   12.6450    1.2682 H       1  UNL1        0.1569
     42 H           3.0532   16.4251    0.4411 H       1  UNL1        0.0625
     43 H           4.2417   18.5718    0.7488 H       1  UNL1        0.0618
     44 H           6.6765   18.5954    1.1580 H       1  UNL1        0.0626
     45 H          10.7331   14.2754    0.9172 H       1  UNL1        0.0661
     46 H          10.6936   15.6631    2.0214 H       1  UNL1        0.0661
     47 H          10.8303   15.9133    0.2426 H       1  UNL1        0.0661
     48 H           6.8103   14.3083    0.5895 H       1  UNL1        0.0633
     49 H           2.2108    4.6362   -0.6903 H       1  UNL1        0.0654
     50 H           1.7058    2.3587   -1.2910 H       1  UNL1        0.0621
@<TRIPOS>BOND
     1     1     2    1
     2     2     3    1
     3     3     4   ar
     4     4     5   ar
     5     5     6   ar
     6     6     7    1
     7     7     8    1
     8     8     9    1
     9     9    10    2
    10     9    11   am
    11    11    12    1
    12    12    13    1
    13    13    14    2
    14    13    15    1
    15    15    16   am
    16    16    17    2
    17    16    18    1
    18    18    19   ar
    19    19    20   ar
    20    20    21   ar
    21    21    22   ar
    22    22    23    1
    23    23    24    2
    24    23    25    1
    25    25    26    1
    26    22    27   ar
    27    18    27   ar
    28     6    28   ar
    29    28    29   ar
    30     3    29   ar
    31     1    30    1
    32     1    31    1
    33     1    32    1
    34     2    33    1
    35     2    34    1
    36     4    35    1
    37     5    36    1
    38     8    37    1
    39     8    38    1
    40    11    39    1
    41    12    40    1
    42    15    41    1
    43    19    42    1
    44    20    43    1
    45    21    44    1
    46    26    45    1
    47    26    46    1
    48    26    47    1
    49    27    48    1
    50    28    49    1
    51    29    50    1
