@<TRIPOS>MOLECULE
*****
 45 48 0 0 0
SMALL
GASTEIGER

@<TRIPOS>ATOM
      1 O           0.9904    0.1625    0.0074 O.2     1  UNL1       -0.2683
      2 C           2.2127    0.1288    0.0015 C.2     1  UNL1        0.2655
      3 C           3.0545   -1.0143   -0.0002 C.ar    1  UNL1        0.1262
      4 N           2.9782   -2.3562    0.0088 N.ar    1  UNL1       -0.2716
      5 N           4.2119   -2.9351   -0.0433 N.ar    1  UNL1       -0.1727
      6 C           5.0862   -1.9014    0.0180 C.ar    1  UNL1        0.1020
      7 C           6.5364   -2.0930    0.0484 C.ar    1  UNL1        0.0438
      8 C           7.1931   -2.7406   -1.0047 C.ar    1  UNL1       -0.0490
      9 C           8.5885   -2.8705   -0.9960 C.ar    1  UNL1       -0.0609
     10 C           9.3409   -2.3480    0.0572 C.ar    1  UNL1       -0.0583
     11 C           8.7021   -1.7065    1.1130 C.ar    1  UNL1       -0.0195
     12 C           7.3114   -1.6091    1.1124 C.ar    1  UNL1        0.1261
     13 O           6.6946   -1.0929    2.2119 O.3     1  UNL1       -0.5061
     14 C           4.3778   -0.6874    0.0230 C.ar    1  UNL1        0.0350
     15 C           4.5365    0.7767    0.0214 C.3     1  UNL1        0.0837
     16 C           5.2446    1.2060    1.2747 C.ar    1  UNL1        0.0127
     17 C           6.3961    2.0129    1.1641 C.ar    1  UNL1       -0.0537
     18 C           7.0133    2.5320    2.3020 C.ar    1  UNL1       -0.0613
     19 C           6.5222    2.2133    3.5672 C.ar    1  UNL1       -0.0590
     20 C           5.4053    1.3899    3.6955 C.ar    1  UNL1       -0.0261
     21 C           4.7622    0.9131    2.5583 C.ar    1  UNL1        0.1287
     22 F           3.6885    0.1286    2.7266 F       1  UNL1       -0.2051
     23 N           3.1086    1.2146   -0.0226 N.am    1  UNL1       -0.2849
     24 C           2.6824    2.6169   -0.0105 C.3     1  UNL1        0.0180
     25 C           3.8224    3.6334   -0.0143 C.3     1  UNL1       -0.0138
     26 C           3.3782    5.0799   -0.0189 C.3     1  UNL1        0.0456
     27 O           4.5342    5.9157   -0.0207 O.3     1  UNL1       -0.3950
     28 H           2.1554   -2.9507    0.0284 H       1  UNL1        0.1891
     29 H           6.6215   -3.1540   -1.8325 H       1  UNL1        0.0625
     30 H           9.0907   -3.3858   -1.8110 H       1  UNL1        0.0618
     31 H          10.4217   -2.4636    0.0679 H       1  UNL1        0.0619
     32 H           9.2876   -1.3214    1.9423 H       1  UNL1        0.0654
     33 H           7.3202   -0.5706    2.7376 H       1  UNL1        0.2922
     34 H           5.0284    1.1134   -0.8975 H       1  UNL1        0.0603
     35 H           6.7781    2.2897    0.1816 H       1  UNL1        0.0622
     36 H           7.8686    3.1955    2.1970 H       1  UNL1        0.0618
     37 H           7.0079    2.6071    4.4554 H       1  UNL1        0.0618
     38 H           5.0283    1.1005    4.6713 H       1  UNL1        0.0646
     39 H           2.0531    2.7640    0.8759 H       1  UNL1        0.0466
     40 H           2.0385    2.7713   -0.8833 H       1  UNL1        0.0466
     41 H           4.4967    3.4521   -0.8607 H       1  UNL1        0.0302
     42 H           4.4153    3.5236    0.8933 H       1  UNL1        0.0302
     43 H           2.7876    5.3124    0.8720 H       1  UNL1        0.0557
     44 H           2.7926    5.3065   -0.9114 H       1  UNL1        0.0557
     45 H           5.0387    5.7327    0.7921 H       1  UNL1        0.2094
@<TRIPOS>BOND
     1     1     2    2
     2     2     3    1
     3     3     4   ar
     4     4     5   ar
     5     5     6   ar
     6     6     7    1
     7     7     8   ar
     8     8     9   ar
     9     9    10   ar
    10    10    11   ar
    11    11    12   ar
    12     7    12   ar
    13    12    13    1
    14     6    14   ar
    15     3    14   ar
    16    14    15    1
    17    15    16    1
    18    16    17   ar
    19    17    18   ar
    20    18    19   ar
    21    19    20   ar
    22    20    21   ar
    23    16    21   ar
    24    21    22    1
    25    15    23    1
    26     2    23   am
    27    23    24    1
    28    24    25    1
    29    25    26    1
    30    26    27    1
    31     4    28    1
    32     8    29    1
    33     9    30    1
    34    10    31    1
    35    11    32    1
    36    13    33    1
    37    15    34    1
    38    17    35    1
    39    18    36    1
    40    19    37    1
    41    20    38    1
    42    24    39    1
    43    24    40    1
    44    25    41    1
    45    25    42    1
    46    26    43    1
    47    26    44    1
    48    27    45    1
