@<TRIPOS>MOLECULE
*****
 38 40 0 0 0
SMALL
GASTEIGER

@<TRIPOS>ATOM
      1 C           2.4435   -0.3456   -0.0045 C.3     1  UNL1       -0.0378
      2 C           0.9797   -0.0907    0.0101 C.ar    1  UNL1       -0.0258
      3 C           0.1827   -1.2543    0.0182 C.ar    1  UNL1       -0.0146
      4 C          -1.1987   -1.1803    0.0453 C.ar    1  UNL1        0.1308
      5 O          -1.8609   -2.3927    0.0325 O.3     1  UNL1       -0.4368
      6 C          -3.2378   -2.3987   -0.0497 C.ar    1  UNL1        0.2380
      7 N          -3.8673   -2.9720    1.0085 N.ar    1  UNL1       -0.2199
      8 C          -5.2190   -2.9289    1.0228 C.ar    1  UNL1        0.0315
      9 C          -5.9765   -2.3152    0.0398 C.ar    1  UNL1       -0.0421
     10 C          -5.3143   -1.7818   -1.0613 C.ar    1  UNL1       -0.0377
     11 C          -3.9226   -1.8660   -1.1392 C.ar    1  UNL1        0.1135
     12 C          -3.2435   -1.3444   -2.2882 C.1     1  UNL1        0.1045
     13 N          -2.7141   -0.8734   -3.2008 N.1     1  UNL1       -0.1907
     14 C          -1.7782    0.0886    0.0732 C.ar    1  UNL1       -0.0175
     15 C          -0.9900    1.2617    0.0331 C.ar    1  UNL1       -0.0367
     16 C           0.4165    1.2030    0.0130 C.ar    1  UNL1        0.0369
     17 N           1.1594    2.4427    0.0086 N.am    1  UNL1       -0.2801
     18 C           2.5428    2.6343   -0.0466 C.2     1  UNL1        0.2645
     19 O           3.4340    1.8075   -0.1132 O.2     1  UNL1       -0.2683
     20 C           3.0656    3.9636   -0.0620 C.ar    1  UNL1        0.1021
     21 C           2.8557    5.0477    0.7536 C.ar    1  UNL1       -0.0319
     22 C           3.8783    5.9868    0.4604 C.ar    1  UNL1       -0.0437
     23 C           4.7007    5.4437   -0.5021 C.ar    1  UNL1        0.0023
     24 N           4.2138    4.2066   -0.7963 N.ar    1  UNL1       -0.3571
     25 H           2.7555   -1.3861    0.0036 H       1  UNL1        0.0278
     26 H           2.8488    0.0864    0.9182 H       1  UNL1        0.0278
     27 H           2.8195    0.0519   -0.9538 H       1  UNL1        0.0278
     28 H           0.6781   -2.2245    0.0055 H       1  UNL1        0.0657
     29 H          -5.6963   -3.4064    1.8754 H       1  UNL1        0.0831
     30 H          -7.0573   -2.2632    0.1208 H       1  UNL1        0.0633
     31 H          -5.8823   -1.2945   -1.8503 H       1  UNL1        0.0632
     32 H          -2.8566    0.2054    0.1029 H       1  UNL1        0.0655
     33 H          -1.5304    2.2064    0.0172 H       1  UNL1        0.0637
     34 H           0.6015    3.2889    0.0013 H       1  UNL1        0.1552
     35 H           2.1198    5.0972    1.5439 H       1  UNL1        0.0640
     36 H           4.0318    6.9415    0.9397 H       1  UNL1        0.0633
     37 H           5.6060    5.8029   -0.9739 H       1  UNL1        0.0807
     38 H           4.6645    3.4996   -1.3713 H       1  UNL1        0.1655
@<TRIPOS>BOND
     1     1     2    1
     2     2     3   ar
     3     3     4   ar
     4     4     5    1
     5     5     6    1
     6     6     7   ar
     7     7     8   ar
     8     8     9   ar
     9     9    10   ar
    10    10    11   ar
    11     6    11   ar
    12    11    12    1
    13    12    13    3
    14     4    14   ar
    15    14    15   ar
    16    15    16   ar
    17     2    16   ar
    18    16    17    1
    19    17    18   am
    20    18    19    2
    21    18    20    1
    22    20    21   ar
    23    21    22   ar
    24    22    23   ar
    25    23    24   ar
    26    20    24   ar
    27     1    25    1
    28     1    26    1
    29     1    27    1
    30     3    28    1
    31     8    29    1
    32     9    30    1
    33    10    31    1
    34    14    32    1
    35    15    33    1
    36    17    34    1
    37    21    35    1
    38    22    36    1
    39    23    37    1
    40    24    38    1
