REMARK  13 active torsions:
REMARK  status: ('A' for Active; 'I' for Inactive)
REMARK    1  A    between atoms: C_2  and  C_3 
REMARK    2  A    between atoms: C_3  and  C_4 
REMARK    3  A    between atoms: C_4  and  N_5 
REMARK       I    between atoms: N_5  and  C_6 
REMARK    4  A    between atoms: C_8  and  C_6 
REMARK    5  A    between atoms: C_8  and  N_16 
REMARK    6  A    between atoms: C_8  and  C_9 
REMARK    7  A    between atoms: C_12  and  O_13 
REMARK    8  A    between atoms: N_16  and  C_17 
REMARK       I    between atoms: N_16  and  C_20 
REMARK    9  A    between atoms: C_17  and  C_18 
REMARK   10  A    between atoms: C_20  and  C_22 
REMARK   11  A    between atoms: C_22  and  O_23 
REMARK   12  A    between atoms: C_22  and  C_24 
REMARK   13  A    between atoms: C_22  and  C_30 
ROOT
ATOM      1  N   UNL d   1       8.331  -3.636   2.723  0.00  0.00    -0.331 N 
ATOM      2  C   UNL d   1       9.060  -4.433   3.687  0.00  0.00     0.265 C 
ATOM      3  O   UNL d   1       8.399  -5.201   4.402  0.00  0.00    -0.269 OA
ENDROOT
BRANCH   1   4
ATOM      4  C   UNL d   1       6.784  -3.675   2.800  0.00  0.00     0.212 C 
BRANCH   4   5
ATOM      5  C   UNL d   1       6.032  -2.654   1.903  0.00  0.00    -0.026 C 
ATOM      6  C   UNL d   1       6.422  -2.563   0.571  0.00  0.00     0.012 C 
ATOM      7  C   UNL d   1       6.216  -1.376  -0.159  0.00  0.00     0.037 C 
ATOM      8  C   UNL d   1       5.272  -0.479   0.267  0.00  0.00     0.065 C 
ATOM      9  C   UNL d   1       4.503  -0.829   1.365  0.00  0.00     0.037 C 
ATOM     10  C   UNL d   1       4.907  -1.890   2.219  0.00  0.00     0.012 C 
BRANCH   8  11
ATOM     11  O   UNL d   1       5.067   0.694  -0.392  0.00  0.00    -0.361 OA
ATOM     12  H   UNL d   1       5.774   0.822  -1.051  0.00  0.00     0.217 HD
ENDBRANCH   8  11
ENDBRANCH   4   5
BRANCH   4  13
ATOM     13  C   UNL d   1       6.212  -5.060   2.358  0.00  0.00     0.245 C 
ATOM     14  N   UNL d   1       7.079  -6.083   2.041  0.00  0.00    -0.359 N 
ATOM     15  H   UNL d   1       8.000  -6.068   2.465  0.00  0.00     0.162 HD
ATOM     16  O   UNL d   1       4.977  -5.217   2.220  0.00  0.00    -0.271 OA
BRANCH  14  17
ATOM     17  C   UNL d   1       6.514  -7.352   1.660  0.00  0.00     0.122 C 
BRANCH  17  18
ATOM     18  C   UNL d   1       7.541  -8.465   1.538  0.00  0.00     0.019 C 
BRANCH  18  19
ATOM     19  C   UNL d   1       6.864  -9.747   1.052  0.00  0.00    -0.003 C 
ATOM     20  C   UNL d   1       7.866 -10.878   0.916  0.00  0.00     0.005 C 
ENDBRANCH  18  19
ENDBRANCH  17  18
ENDBRANCH  14  17
ENDBRANCH   4  13
ENDBRANCH   1   4
BRANCH   1  21
ATOM     21  C   UNL d   1       9.064  -2.502   2.197  0.00  0.00     0.127 C 
BRANCH  21  22
ATOM     22  C   UNL d   1       8.640  -1.390   1.281  0.00  0.00     0.015 C 
ATOM     23  C   UNL d   1       9.485  -0.326   0.631  0.00  0.00     0.006 C 
ENDBRANCH  21  22
ENDBRANCH   1  21
BRANCH   2  24
ATOM     24  C   UNL d   1      10.768  -4.510   3.717  0.00  0.00     0.194 C 
BRANCH  24  25
ATOM     25  O   UNL d   1      11.288  -4.892   2.437  0.00  0.00    -0.371 OA
ATOM     26  H   UNL d   1      11.061  -4.224   1.784  0.00  0.00     0.212 HD
ENDBRANCH  24  25
BRANCH  24  27
ATOM     27  C   UNL d   1      11.463  -3.164   4.167  0.00  0.00    -0.010 C 
ATOM     28  C   UNL d   1      12.129  -2.953   5.371  0.00  0.00     0.011 C 
ATOM     29  C   UNL d   1      12.137  -1.712   6.014  0.00  0.00     0.001 C 
ATOM     30  C   UNL d   1      11.667  -0.598   5.350  0.00  0.00     0.000 C 
ATOM     31  C   UNL d   1      11.329  -0.741   4.023  0.00  0.00     0.001 C 
ATOM     32  C   UNL d   1      11.422  -2.000   3.416  0.00  0.00     0.011 C 
ENDBRANCH  24  27
BRANCH  24  33
ATOM     33  C   UNL d   1      11.088  -5.741   4.631  0.00  0.00    -0.010 C 
ATOM     34  C   UNL d   1      11.028  -7.060   4.148  0.00  0.00     0.011 C 
ATOM     35  C   UNL d   1      11.164  -8.145   5.028  0.00  0.00     0.001 C 
ATOM     36  C   UNL d   1      11.534  -7.943   6.357  0.00  0.00     0.000 C 
ATOM     37  C   UNL d   1      11.636  -6.659   6.846  0.00  0.00     0.001 C 
ATOM     38  C   UNL d   1      11.276  -5.608   6.019  0.00  0.00     0.011 C 
ENDBRANCH  24  33
ENDBRANCH   2  24
TORSDOF 13
