@<TRIPOS>MOLECULE
*****
 38 39 0 0 0
SMALL
GASTEIGER

@<TRIPOS>ATOM
      1 C          -2.5405    0.0399   -0.0176 C.3     1  UNL1       -0.0396
      2 C          -1.0447    0.0558    0.0088 C.ar    1  UNL1       -0.0458
      3 C          -0.2822    1.2088    0.0092 C.ar    1  UNL1       -0.0405
      4 C           1.0998    1.0615    0.0038 C.ar    1  UNL1        0.0299
      5 N           1.7585   -0.1393   -0.0084 N.ar    1  UNL1       -0.2401
      6 C           0.9983   -1.2591   -0.0012 C.ar    1  UNL1        0.1251
      7 N           1.6571   -2.5166   -0.0193 N.am    1  UNL1       -0.2689
      8 C           1.0186   -3.7546   -0.0118 C.2     1  UNL1        0.2383
      9 O          -0.2068   -3.9184   -0.0143 O.2     1  UNL1       -0.2734
     10 C           1.8897   -5.0335   -0.0018 C.3     1  UNL1        0.0972
     11 C           2.7776   -5.0589    1.2328 C.3     1  UNL1       -0.0381
     12 N           0.9673   -6.1989   -0.0089 N.am    1  UNL1       -0.3003
     13 C           1.3997   -7.5038   -0.0002 C.2     1  UNL1        0.2447
     14 O           2.5927   -7.8154   -0.0192 O.2     1  UNL1       -0.2702
     15 C           0.3856   -8.5907    0.0359 C.ar    1  UNL1        0.0367
     16 C           0.6430   -9.7332    0.8113 C.ar    1  UNL1       -0.0496
     17 C          -0.1748  -10.8621    0.7017 C.ar    1  UNL1       -0.0610
     18 C          -1.2878  -10.8338   -0.1362 C.ar    1  UNL1       -0.0617
     19 C          -1.5625   -9.6910   -0.8903 C.ar    1  UNL1       -0.0610
     20 C          -0.7260   -8.5705   -0.8114 C.ar    1  UNL1       -0.0496
     21 C          -0.3857   -1.1709    0.0192 C.ar    1  UNL1       -0.0186
     22 H          -2.9589    1.0478   -0.0262 H       1  UNL1        0.0278
     23 H          -2.9233   -0.4902    0.8619 H       1  UNL1        0.0278
     24 H          -2.8855   -0.4851   -0.9164 H       1  UNL1        0.0278
     25 H          -0.7479    2.1889    0.0127 H       1  UNL1        0.0635
     26 H           1.7299    1.9500    0.0067 H       1  UNL1        0.0830
     27 H           2.6674   -2.4415   -0.0406 H       1  UNL1        0.1563
     28 H           2.4753   -5.0753   -0.9263 H       1  UNL1        0.0592
     29 H           2.1711   -5.0103    2.1440 H       1  UNL1        0.0252
     30 H           3.4772   -4.2200    1.2396 H       1  UNL1        0.0252
     31 H           3.3700   -5.9760    1.2849 H       1  UNL1        0.0252
     32 H          -0.0268   -5.9795    0.0437 H       1  UNL1        0.1498
     33 H           1.4976   -9.7564    1.4848 H       1  UNL1        0.0625
     34 H           0.0712  -11.7715    1.2462 H       1  UNL1        0.0618
     35 H          -1.9336  -11.7064   -0.2108 H       1  UNL1        0.0618
     36 H          -2.4112   -9.6887   -1.5702 H       1  UNL1        0.0618
     37 H          -0.9180   -7.7156   -1.4519 H       1  UNL1        0.0625
     38 H          -1.0173   -2.0435    0.0382 H       1  UNL1        0.0655
@<TRIPOS>BOND
     1     1     2    1
     2     2     3   ar
     3     3     4   ar
     4     4     5   ar
     5     5     6   ar
     6     6     7    1
     7     7     8   am
     8     8     9    2
     9     8    10    1
    10    10    11    1
    11    10    12    1
    12    12    13   am
    13    13    14    2
    14    13    15    1
    15    15    16   ar
    16    16    17   ar
    17    17    18   ar
    18    18    19   ar
    19    19    20   ar
    20    15    20   ar
    21     6    21   ar
    22     2    21   ar
    23     1    22    1
    24     1    23    1
    25     1    24    1
    26     3    25    1
    27     4    26    1
    28     7    27    1
    29    10    28    1
    30    11    29    1
    31    11    30    1
    32    11    31    1
    33    12    32    1
    34    16    33    1
    35    17    34    1
    36    18    35    1
    37    19    36    1
    38    20    37    1
    39    21    38    1
