REMARK  10 active torsions:
REMARK  status: ('A' for Active; 'I' for Inactive)
REMARK    1  A    between atoms: C_2  and  O_3 
REMARK    2  A    between atoms: O_3  and  C_4 
REMARK    3  A    between atoms: C_8  and  C_9 
REMARK       I    between atoms: C_9  and  N_11 
REMARK    4  A    between atoms: N_11  and  C_12 
REMARK    5  A    between atoms: C_12  and  N_14 
REMARK    6  A    between atoms: N_14  and  N_15 
REMARK       I    between atoms: N_15  and  C_16 
REMARK    7  A    between atoms: C_16  and  C_18 
REMARK    8  A    between atoms: C_18  and  O_19 
REMARK    9  A    between atoms: O_19  and  C_20 
REMARK   10  A    between atoms: C_23  and  C_24 
ROOT
ATOM      1  N   UNL d   1       6.967  -3.146   3.997  0.00  0.00    -0.273 N 
ATOM      2  H   UNL d   1       5.984  -2.940   4.172  0.00  0.00     0.189 HD
ENDROOT
BRANCH   1   3
ATOM      3  C   UNL d   1       7.667  -2.931   2.798  0.00  0.00     0.193 C 
ATOM      4  S   UNL d   1       9.305  -3.333   2.709  0.00  0.00    -0.039 SA
BRANCH   3   5
ATOM      5  N   UNL d   1       6.902  -2.379   1.748  0.00  0.00    -0.298 N 
ATOM      6  C   UNL d   1       7.358  -2.069   0.445  0.00  0.00     0.258 C 
ATOM      7  O   UNL d   1       8.520  -2.248   0.067  0.00  0.00    -0.267 OA
ATOM      8  H   UNL d   1       5.930  -2.210   1.953  0.00  0.00     0.171 HD
BRANCH   6   9
ATOM      9  C   UNL d   1       6.440  -1.499  -0.599  0.00  0.00     0.035 A 
ATOM     10  C   UNL d   1       6.969  -1.268  -1.891  0.00  0.00     0.017 A 
ATOM     11  C   UNL d   1       6.166  -0.808  -2.938  0.00  0.00     0.004 A 
ATOM     12  C   UNL d   1       4.828  -0.519  -2.695  0.00  0.00     0.037 A 
ATOM     13  C   UNL d   1       4.287  -0.741  -1.425  0.00  0.00     0.069 A 
ATOM     14  C   UNL d   1       5.089  -1.232  -0.383  0.00  0.00     0.053 A 
BRANCH  13  15
ATOM     15  O   UNL d   1       2.933  -0.562  -1.319  0.00  0.00    -0.351 OA
BRANCH  15  16
ATOM     16  C   UNL d   1       2.478  -0.038  -0.071  0.00  0.00     0.171 C 
ATOM     17  C   UNL d   1       0.962  -0.051  -0.068  0.00  0.00     0.034 C 
ENDBRANCH  15  16
ENDBRANCH  13  15
ENDBRANCH   6   9
ENDBRANCH   3   5
ENDBRANCH   1   3
BRANCH   1  18
ATOM     18  N   UNL d   1       7.662  -3.733   5.117  0.00  0.00    -0.266 N 
ATOM     19  C   UNL d   1       7.010  -3.984   6.317  0.00  0.00     0.260 C 
ATOM     20  O   UNL d   1       5.822  -3.705   6.474  0.00  0.00    -0.269 OA
ATOM     21  H   UNL d   1       8.659  -3.906   4.973  0.00  0.00     0.190 HD
BRANCH  19  22
ATOM     22  C   UNL d   1       7.914  -4.582   7.423  0.00  0.00     0.280 C 
BRANCH  22  23
ATOM     23  O   UNL d   1       7.197  -4.850   8.623  0.00  0.00    -0.341 OA
BRANCH  23  24
ATOM     24  C   UNL d   1       7.854  -5.191   9.776  0.00  0.00     0.086 A 
ATOM     25  C   UNL d   1       7.082  -6.013  10.627  0.00  0.00     0.039 A 
ATOM     26  C   UNL d   1       7.502  -6.346  11.925  0.00  0.00     0.010 A 
ATOM     27  C   UNL d   1       8.755  -5.938  12.384  0.00  0.00    -0.053 A 
ATOM     28  C   UNL d   1       9.508  -5.113  11.541  0.00  0.00     0.029 A 
ATOM     29  C   UNL d   1       9.087  -4.744  10.255  0.00  0.00     0.044 A 
ATOM     30 BR   UNL d   1      10.351  -3.622   9.383  0.00  0.00    -0.048 Br
BRANCH  27  31
ATOM     31  C   UNL d   1       9.305  -6.422  13.719  0.00  0.00     0.010 C 
ATOM     32  C   UNL d   1       9.367  -7.955  13.738  0.00  0.00     0.015 C 
ATOM     33  C   UNL d   1      10.713  -5.882  14.018  0.00  0.00     0.015 C 
ENDBRANCH  27  31
ENDBRANCH  23  24
ENDBRANCH  22  23
ENDBRANCH  19  22
ENDBRANCH   1  18
TORSDOF 10
