@<TRIPOS>MOLECULE
*****
 70 72 0 0 0
SMALL
GASTEIGER

@<TRIPOS>ATOM
      1 C           0.9818    0.0945   -0.0511 C.3     1  UNL1       -0.0653
      2 C           2.4996    0.0744   -0.0532 C.3     1  UNL1       -0.0559
      3 C           3.0192   -1.3550   -0.2106 C.3     1  UNL1       -0.0529
      4 C           4.5398   -1.3794   -0.2129 C.3     1  UNL1       -0.0448
      5 C           5.1117   -2.7954   -0.3723 C.3     1  UNL1        0.0243
      6 C           6.6279   -2.7187   -0.3667 C.2     1  UNL1        0.2172
      7 O           7.1990   -1.6374   -0.2183 O.2     1  UNL1       -0.2755
      8 N           7.2877   -3.9240   -0.5641 N.am    1  UNL1       -0.2854
      9 C           8.6990   -4.0135   -0.5117 C.ar    1  UNL1        0.0351
     10 C           9.4075   -4.8653   -1.3526 C.ar    1  UNL1       -0.0404
     11 C          10.7997   -4.9531   -1.2251 C.ar    1  UNL1       -0.0583
     12 C          11.4798   -4.1787   -0.2707 C.ar    1  UNL1       -0.0407
     13 C          10.7797   -3.3398    0.6002 C.ar    1  UNL1        0.0293
     14 N          11.4241   -2.5934    1.5660 N.pl3   1  UNL1       -0.3353
     15 C          10.6996   -1.7943    2.5732 C.3     1  UNL1        0.0861
     16 C          11.6839   -1.2408    3.6088 C.2     1  UNL1        0.2343
     17 O          12.8834   -1.5074    3.4806 O.2     1  UNL1       -0.2738
     18 N          11.1359   -0.5102    4.6777 N.am    1  UNL1       -0.2842
     19 C          11.9251    0.2018    5.6345 C.ar    1  UNL1        0.0341
     20 C          11.5194    0.5242    6.9169 C.ar    1  UNL1       -0.0404
     21 C          12.3513    1.3421    7.7175 C.ar    1  UNL1       -0.0593
     22 C          13.5452    1.9047    7.2139 C.ar    1  UNL1       -0.0495
     23 C          13.9429    1.6181    5.9141 C.ar    1  UNL1        0.0387
     24 C          15.1415    2.3039    5.2643 C.2     1  UNL1        0.2467
     25 O          15.8642    2.9785    5.9806 O.2     1  UNL1       -0.2700
     26 N          15.3812    2.1967    3.8657 N.am    1  UNL1       -0.2963
     27 C          14.5037    1.5267    2.9226 C.3     1  UNL1        0.0038
     28 C          16.6386    2.7612    3.3085 C.3     1  UNL1        0.0397
     29 C          16.9352    2.4190    1.8408 C.ar    1  UNL1       -0.0301
     30 C          16.7785    1.1098    1.3351 C.ar    1  UNL1       -0.0571
     31 C          16.8312    0.8237   -0.0259 C.ar    1  UNL1       -0.0615
     32 C          17.2008    1.8202   -0.9105 C.ar    1  UNL1       -0.0617
     33 C          17.5061    3.0930   -0.4232 C.ar    1  UNL1       -0.0615
     34 C          17.3483    3.4032    0.9368 C.ar    1  UNL1       -0.0571
     35 C          13.1753    0.6644    5.2560 C.ar    1  UNL1       -0.0284
     36 C           9.3966   -3.2679    0.4409 C.ar    1  UNL1       -0.0196
     37 H           0.6125    1.1178    0.0617 H       1  UNL1        0.0230
     38 H           0.5884   -0.5059    0.7753 H       1  UNL1        0.0230
     39 H           0.5885   -0.3113   -0.9886 H       1  UNL1        0.0230
     40 H           2.8708    0.5103    0.8823 H       1  UNL1        0.0263
     41 H           2.8710    0.7034   -0.8714 H       1  UNL1        0.0263
     42 H           2.6434   -1.7822   -1.1474 H       1  UNL1        0.0265
     43 H           2.6427   -1.9762    0.6102 H       1  UNL1        0.0265
     44 H           4.9100   -0.9356    0.7214 H       1  UNL1        0.0270
     45 H           4.9104   -0.7421   -1.0272 H       1  UNL1        0.0270
     46 H           4.7718   -3.2348   -1.3158 H       1  UNL1        0.0358
     47 H           4.7773   -3.4302    0.4558 H       1  UNL1        0.0358
     48 H           6.7740   -4.7405   -0.8685 H       1  UNL1        0.1548
     49 H           8.9119   -5.4090   -2.1512 H       1  UNL1        0.0636
     50 H          11.3636   -5.6245   -1.8698 H       1  UNL1        0.0619
     51 H          12.5645   -4.2455   -0.2163 H       1  UNL1        0.0636
     52 H          12.4219   -2.7184    1.7291 H       1  UNL1        0.1466
     53 H           9.9773   -2.4191    3.1086 H       1  UNL1        0.0557
     54 H          10.1935   -0.9612    2.0745 H       1  UNL1        0.0557
     55 H          10.1286   -0.4034    4.7418 H       1  UNL1        0.1549
     56 H          10.6370    0.0663    7.3544 H       1  UNL1        0.0636
     57 H          12.0686    1.5549    8.7466 H       1  UNL1        0.0618
     58 H          14.1705    2.5299    7.8489 H       1  UNL1        0.0625
     59 H          13.4494    1.5997    3.1613 H       1  UNL1        0.0429
     60 H          14.8201    0.4740    2.9058 H       1  UNL1        0.0429
     61 H          14.5320    1.9893    1.9417 H       1  UNL1        0.0429
     62 H          17.4899    2.4455    3.9220 H       1  UNL1        0.0514
     63 H          16.5501    3.8510    3.4257 H       1  UNL1        0.0514
     64 H          16.5176    0.2827    1.9865 H       1  UNL1        0.0621
     65 H          16.5881   -0.1785   -0.3703 H       1  UNL1        0.0618
     66 H          17.2739    1.5934   -1.9700 H       1  UNL1        0.0618
     67 H          17.8665    3.8511   -1.1127 H       1  UNL1        0.0618
     68 H          17.5509    4.4169    1.2760 H       1  UNL1        0.0621
     69 H          13.5626    0.2225    4.3732 H       1  UNL1        0.0644
     70 H           8.8276   -2.6325    1.1081 H       1  UNL1        0.0655
@<TRIPOS>BOND
     1     1     2    1
     2     2     3    1
     3     3     4    1
     4     4     5    1
     5     5     6    1
     6     6     7    2
     7     6     8   am
     8     8     9    1
     9     9    10   ar
    10    10    11   ar
    11    11    12   ar
    12    12    13   ar
    13    13    14    1
    14    14    15    1
    15    15    16    1
    16    16    17    2
    17    16    18   am
    18    18    19    1
    19    19    20   ar
    20    20    21   ar
    21    21    22   ar
    22    22    23   ar
    23    23    24    1
    24    24    25    2
    25    24    26   am
    26    26    27    1
    27    26    28    1
    28    28    29    1
    29    29    30   ar
    30    30    31   ar
    31    31    32   ar
    32    32    33   ar
    33    33    34   ar
    34    29    34   ar
    35    23    35   ar
    36    19    35   ar
    37    13    36   ar
    38     9    36   ar
    39     1    37    1
    40     1    38    1
    41     1    39    1
    42     2    40    1
    43     2    41    1
    44     3    42    1
    45     3    43    1
    46     4    44    1
    47     4    45    1
    48     5    46    1
    49     5    47    1
    50     8    48    1
    51    10    49    1
    52    11    50    1
    53    12    51    1
    54    14    52    1
    55    15    53    1
    56    15    54    1
    57    18    55    1
    58    20    56    1
    59    21    57    1
    60    22    58    1
    61    27    59    1
    62    27    60    1
    63    27    61    1
    64    28    62    1
    65    28    63    1
    66    30    64    1
    67    31    65    1
    68    32    66    1
    69    33    67    1
    70    34    68    1
    71    35    69    1
    72    36    70    1
