@<TRIPOS>MOLECULE
*****
 43 43 0 0 0
SMALL
GASTEIGER

@<TRIPOS>ATOM
      1 C           0.9908   -0.0114    0.0974 C.3     1  UNL1       -0.0639
      2 C           2.5202   -0.0017    0.1141 C.3     1  UNL1       -0.0402
      3 C           3.0795    0.7135    1.3534 C.3     1  UNL1        0.0128
      4 N           4.5453    0.7546    1.4234 N.am    1  UNL1       -0.2982
      5 C           5.1981    1.3652    2.4820 C.2     1  UNL1        0.3160
      6 O           4.6039    1.9029    3.4137 O.2     1  UNL1       -0.2513
      7 N           6.5842    1.3275    2.4151 N.am    1  UNL1       -0.2182
      8 N           7.3674    1.9271    3.4619 N.am    1  UNL1       -0.2332
      9 C           8.7564    1.8817    3.3919 C.2     1  UNL1        0.2294
     10 O           9.3388    1.3434    2.4503 O.2     1  UNL1       -0.2743
     11 C           9.5130    2.5465    4.5501 C.3     1  UNL1        0.0294
     12 C          11.0512    2.4541    4.3884 C.3     1  UNL1       -0.0194
     13 C          11.7768    3.1349    5.5366 C.ar    1  UNL1       -0.0469
     14 C          12.4137    2.3988    6.5432 C.ar    1  UNL1       -0.0578
     15 C          12.8831    3.0410    7.6997 C.ar    1  UNL1       -0.0475
     16 C          12.8259    4.4385    7.8254 C.ar    1  UNL1        0.0590
     17 C          13.4367    5.0706    9.0346 C.2     1  UNL1        0.3389
     18 O          13.9614    4.4165    9.9312 O.2     1  UNL1       -0.2450
     19 O          13.3733    6.4265    8.9959 O.3     1  UNL1       -0.4645
     20 C          13.9980    7.0798   10.1111 C.3     1  UNL1        0.0820
     21 C          12.2427    5.1796    6.7921 C.ar    1  UNL1       -0.0475
     22 C          11.7336    4.5316    5.6569 C.ar    1  UNL1       -0.0578
     23 H           0.6152   -0.5263   -0.7948 H       1  UNL1        0.0230
     24 H           0.5867    1.0064    0.0869 H       1  UNL1        0.0230
     25 H           0.5867   -0.5298    0.9735 H       1  UNL1        0.0230
     26 H           2.8781    0.4879   -0.7991 H       1  UNL1        0.0278
     27 H           2.8782   -1.0374    0.0813 H       1  UNL1        0.0278
     28 H           2.7131    0.2171    2.2597 H       1  UNL1        0.0462
     29 H           2.7127    1.7464    1.3771 H       1  UNL1        0.0462
     30 H           5.0788    0.3254    0.6821 H       1  UNL1        0.1503
     31 H           7.1080    0.8909    1.6631 H       1  UNL1        0.1744
     32 H           6.8408    2.3623    4.2183 H       1  UNL1        0.1728
     33 H           9.2216    2.0725    5.4959 H       1  UNL1        0.0362
     34 H           9.2134    3.6006    4.6064 H       1  UNL1        0.0362
     35 H          11.3650    2.9204    3.4450 H       1  UNL1        0.0318
     36 H          11.3593    1.4022    4.3209 H       1  UNL1        0.0318
     37 H          12.5401    1.3210    6.4504 H       1  UNL1        0.0620
     38 H          13.2838    2.4387    8.5145 H       1  UNL1        0.0626
     39 H          13.8878    8.1618    9.9861 H       1  UNL1        0.0661
     40 H          15.0688    6.8505   10.1482 H       1  UNL1        0.0661
     41 H          13.5126    6.7945   11.0503 H       1  UNL1        0.0661
     42 H          12.1567    6.2608    6.8592 H       1  UNL1        0.0626
     43 H          11.2831    5.1249    4.8637 H       1  UNL1        0.0620
@<TRIPOS>BOND
     1     1     2    1
     2     2     3    1
     3     3     4    1
     4     4     5   am
     5     5     6    2
     6     5     7   am
     7     7     8    1
     8     8     9   am
     9     9    10    2
    10     9    11    1
    11    11    12    1
    12    12    13    1
    13    13    14   ar
    14    14    15   ar
    15    15    16   ar
    16    16    17    1
    17    17    18    2
    18    17    19    1
    19    19    20    1
    20    16    21   ar
    21    21    22   ar
    22    13    22   ar
    23     1    23    1
    24     1    24    1
    25     1    25    1
    26     2    26    1
    27     2    27    1
    28     3    28    1
    29     3    29    1
    30     4    30    1
    31     7    31    1
    32     8    32    1
    33    11    33    1
    34    11    34    1
    35    12    35    1
    36    12    36    1
    37    14    37    1
    38    15    38    1
    39    20    39    1
    40    20    40    1
    41    20    41    1
    42    21    42    1
    43    22    43    1
