REMARK  5 active torsions:
REMARK  status: ('A' for Active; 'I' for Inactive)
REMARK    1  A    between atoms: N_1  and  C_2 
REMARK    2  A    between atoms: C_4  and  S_5 
REMARK    3  A    between atoms: S_5  and  C_6 
REMARK    4  A    between atoms: C_6  and  C_7 
REMARK       I    between atoms: C_7  and  N_9 
REMARK    5  A    between atoms: C_13  and  C_14 
ROOT
ATOM      1  C   UNL d   1       3.210   4.588  -0.046  0.00  0.00     0.230 C 
ATOM      2  O   UNL d   1       4.361   4.184  -0.255  0.00  0.00    -0.273 OA
ATOM      3  N   UNL d   1       2.968   5.956  -0.009  0.00  0.00    -0.343 N 
ATOM      4  C   UNL d   1       1.935   6.676   0.710  0.00  0.00     0.127 C 
ATOM      5  C   UNL d   1       1.799   7.976  -0.070  0.00  0.00     0.022 C 
ATOM      6  C   UNL d   1       3.230   8.288  -0.509  0.00  0.00     0.032 C 
ATOM      7  C   UNL d   1       3.929   6.914  -0.581  0.00  0.00     0.120 C 
ENDROOT
BRANCH   1   8
ATOM      8  C   UNL d   1       2.018   3.597   0.040  0.00  0.00     0.185 C 
BRANCH   8   9
ATOM      9  S   UNL d   1       2.657   1.877   0.026  0.00  0.00    -0.079 SA
BRANCH   9  10
ATOM     10  C   UNL d   1       1.268   0.829   0.004  0.00  0.00     0.226 A 
ATOM     11  N   UNL d   1      -0.042   1.228   0.009  0.00  0.00    -0.035 NA
ATOM     12  C   UNL d   1      -0.703   0.095   0.005  0.00  0.00     0.716 A 
ATOM     13  N   UNL d   1       0.184  -0.945  -0.002  0.00  0.00    -0.105 N 
ATOM     14  N   UNL d   1       1.448  -0.500  -0.004  0.00  0.00    -0.132 NA
ATOM     15  H   UNL d   1      -0.003  -1.940  -0.000  0.00  0.00     0.208 HD
BRANCH  12  16
ATOM     16  N   UNL d   1      -2.027  -0.100   0.014  0.00  0.00    -0.231 N 
ATOM     17  H   UNL d   1      -2.641   0.708  -0.013  0.00  0.00     0.174 HD
ATOM     18  H   UNL d   1      -2.487  -1.000  -0.048  0.00  0.00     0.174 HD
ENDBRANCH  12  16
ENDBRANCH   9  10
ENDBRANCH   8   9
ENDBRANCH   1   8
BRANCH   7  19
ATOM     19  C   UNL d   1       5.277   6.932   0.121  0.00  0.00    -0.033 A 
ATOM     20  C   UNL d   1       6.437   6.684  -0.630  0.00  0.00     0.012 A 
ATOM     21  C   UNL d   1       7.684   6.644  -0.012  0.00  0.00     0.040 A 
ATOM     22  C   UNL d   1       7.779   6.793   1.369  0.00  0.00     0.102 A 
ATOM     23  C   UNL d   1       6.642   7.017   2.143  0.00  0.00     0.102 A 
ATOM     24  O   UNL d   1       9.032   6.731   1.915  0.00  0.00    -0.348 OA
ATOM     25  C   UNL d   1       5.402   7.139   1.511  0.00  0.00     0.049 A 
ATOM     26  O   UNL d   1       6.701   7.178   3.504  0.00  0.00    -0.348 OA
ATOM     27  C   UNL d   1       7.166   5.999   4.180  0.00  0.00     0.178 C 
ATOM     28  C   UNL d   1       8.679   5.801   4.125  0.00  0.00     0.053 C 
ATOM     29  C   UNL d   1       9.150   5.549   2.704  0.00  0.00     0.178 C 
ENDBRANCH   7  19
TORSDOF 5
