@<TRIPOS>MOLECULE
*****
 63 65 0 0 0
SMALL
GASTEIGER

@<TRIPOS>ATOM
      1 C           0.9568    0.0688    0.0537 C.3     1  UNL1       -0.0653
      2 C           2.4799    0.0555    0.0535 C.3     1  UNL1       -0.0552
      3 C           3.0214   -1.3773    0.0544 C.3     1  UNL1       -0.0438
      4 C           4.5568   -1.4183    0.0501 C.3     1  UNL1        0.0011
      5 S           5.1040   -3.1647    0.0278 S.3     1  UNL1       -0.0860
      6 C           6.8688   -2.9920    0.0584 C.ar    1  UNL1        0.1896
      7 N           7.5337   -2.9253   -1.1054 N.ar    1  UNL1       -0.2295
      8 C           8.8942   -2.9362   -1.0493 C.ar    1  UNL1        0.0455
      9 C           9.6276   -3.0104    0.1194 C.ar    1  UNL1        0.0916
     10 C          11.1216   -2.9488    0.0705 C.2     1  UNL1        0.2487
     11 O          11.7063   -2.8855   -1.0115 O.2     1  UNL1       -0.2700
     12 N          11.8260   -2.9441    1.2570 N.am    1  UNL1       -0.3055
     13 C          13.2965   -2.9135    1.3607 C.3     1  UNL1        0.0592
     14 C          13.7870   -3.0823    2.8464 C.3     1  UNL1        0.0208
     15 C          13.2492   -4.3878    3.4134 C.ar    1  UNL1        0.0019
     16 C          12.7600   -4.4548    4.7240 C.ar    1  UNL1       -0.0498
     17 C          12.6330   -5.7014    5.3427 C.ar    1  UNL1       -0.0195
     18 C          12.8958   -6.8813    4.6376 C.ar    1  UNL1        0.1201
     19 O          12.7029   -8.0486    5.3209 O.3     1  UNL1       -0.4951
     20 C          12.8206   -9.2437    4.5480 C.3     1  UNL1        0.0788
     21 C          13.3272   -6.8104    3.3184 C.ar    1  UNL1       -0.0195
     22 C          13.4744   -5.5794    2.7021 C.ar    1  UNL1       -0.0498
     23 N          15.3638   -3.0093    3.0025 N.4     1  UNL1        0.2418
     24 C          15.8141   -1.6740    3.5968 C.3     1  UNL1       -0.0313
     25 C          17.3292   -1.6532    3.8121 C.3     1  UNL1       -0.0123
     26 C          17.7539   -2.7986    4.7175 C.3     1  UNL1       -0.0434
     27 C          17.4487   -4.0889    3.9934 C.3     1  UNL1       -0.0123
     28 C          15.9525   -4.1995    3.7991 C.3     1  UNL1       -0.0313
     29 C           8.8240   -3.1015    1.2395 C.ar    1  UNL1        0.1456
     30 CL          9.4204   -3.2512    2.8550 Cl      1  UNL1       -0.0611
     31 N           7.4721   -3.0914    1.2455 N.ar    1  UNL1       -0.2095
     32 H           0.5822    1.0974    0.0521 H       1  UNL1        0.0230
     33 H           0.5604   -0.4349    0.9414 H       1  UNL1        0.0230
     34 H           0.5603   -0.4376   -0.8324 H       1  UNL1        0.0230
     35 H           2.8429    0.5946    0.9360 H       1  UNL1        0.0263
     36 H           2.8425    0.5925   -0.8305 H       1  UNL1        0.0263
     37 H           2.6294   -1.9006   -0.8275 H       1  UNL1        0.0273
     38 H           2.6331   -1.8984    0.9395 H       1  UNL1        0.0273
     39 H           4.9439   -0.9124    0.9415 H       1  UNL1        0.0381
     40 H           4.9408   -0.9027   -0.8361 H       1  UNL1        0.0381
     41 H           9.3754   -2.8789   -2.0253 H       1  UNL1        0.0839
     42 H          11.2958   -3.1062    2.1094 H       1  UNL1        0.1492
     43 H          13.6408   -1.9672    0.9334 H       1  UNL1        0.0522
     44 H          13.6859   -3.7080    0.7138 H       1  UNL1        0.0522
     45 H          13.3851   -2.2393    3.4256 H       1  UNL1        0.0920
     46 H          12.5321   -3.5557    5.2954 H       1  UNL1        0.0623
     47 H          12.3539   -5.7555    6.3941 H       1  UNL1        0.0654
     48 H          12.5089  -10.0869    5.1679 H       1  UNL1        0.0660
     49 H          13.8647   -9.4037    4.2567 H       1  UNL1        0.0660
     50 H          12.1699   -9.2234    3.6644 H       1  UNL1        0.0660
     51 H          13.6075   -7.6917    2.7506 H       1  UNL1        0.0654
     52 H          13.8888   -5.5773    1.6959 H       1  UNL1        0.0623
     53 H          15.7556   -3.0750    2.0555 H       1  UNL1        0.2040
     54 H          15.2925   -1.5468    4.5525 H       1  UNL1        0.0814
     55 H          15.5114   -0.8816    2.9051 H       1  UNL1        0.0814
     56 H          17.6406   -0.7059    4.2640 H       1  UNL1        0.0317
     57 H          17.8470   -1.7343    2.8476 H       1  UNL1        0.0317
     58 H          17.1954   -2.7584    5.6632 H       1  UNL1        0.0269
     59 H          18.8170   -2.7434    4.9660 H       1  UNL1        0.0269
     60 H          17.8081   -4.9441    4.5780 H       1  UNL1        0.0317
     61 H          17.9573   -4.1275    3.0229 H       1  UNL1        0.0317
     62 H          15.4580   -4.2278    4.7758 H       1  UNL1        0.0814
     63 H          15.7771   -5.1130    3.2319 H       1  UNL1        0.0814
@<TRIPOS>UNITY_ATOM_ATTR
23 1
charge 1
@<TRIPOS>BOND
     1     1     2    1
     2     2     3    1
     3     3     4    1
     4     4     5    1
     5     5     6    1
     6     6     7   ar
     7     7     8   ar
     8     8     9   ar
     9     9    10    1
    10    10    11    2
    11    10    12   am
    12    12    13    1
    13    13    14    1
    14    14    15    1
    15    15    16   ar
    16    16    17   ar
    17    17    18   ar
    18    18    19    1
    19    19    20    1
    20    18    21   ar
    21    21    22   ar
    22    15    22   ar
    23    14    23    1
    24    23    24    1
    25    24    25    1
    26    25    26    1
    27    26    27    1
    28    27    28    1
    29    23    28    1
    30     9    29   ar
    31    29    30    1
    32    29    31   ar
    33     6    31   ar
    34     1    32    1
    35     1    33    1
    36     1    34    1
    37     2    35    1
    38     2    36    1
    39     3    37    1
    40     3    38    1
    41     4    39    1
    42     4    40    1
    43     8    41    1
    44    12    42    1
    45    13    43    1
    46    13    44    1
    47    14    45    1
    48    16    46    1
    49    17    47    1
    50    20    48    1
    51    20    49    1
    52    20    50    1
    53    21    51    1
    54    22    52    1
    55    23    53    1
    56    24    54    1
    57    24    55    1
    58    25    56    1
    59    25    57    1
    60    26    58    1
    61    26    59    1
    62    27    60    1
    63    27    61    1
    64    28    62    1
    65    28    63    1
