@<TRIPOS>MOLECULE
*****
 51 53 0 0 0
SMALL
GASTEIGER

@<TRIPOS>ATOM
      1 N           7.6930   -7.7043  -12.2996 N.1     1  UNL1       -0.1909
      2 C           7.4759   -8.7167  -11.7903 C.1     1  UNL1        0.0992
      3 C           7.2340   -9.9613  -11.1141 C.ar    1  UNL1        0.0535
      4 C           7.3042  -11.1815  -11.7708 C.ar    1  UNL1       -0.0442
      5 C           7.1404  -12.3631  -11.0417 C.ar    1  UNL1       -0.0588
      6 C           6.9052  -12.3250   -9.6537 C.ar    1  UNL1       -0.0404
      7 C           6.7968  -11.0938   -8.9933 C.ar    1  UNL1        0.0349
      8 N           6.5344  -11.0300   -7.5971 N.am    1  UNL1       -0.2815
      9 C           6.3646   -9.8373   -6.8930 C.2     1  UNL1        0.2485
     10 O           6.4236   -8.6929   -7.3290 O.2     1  UNL1       -0.2698
     11 C           6.1274   -9.9068   -5.4468 C.ar    1  UNL1        0.0435
     12 C           5.2866   -8.9770   -4.8443 C.ar    1  UNL1       -0.0475
     13 C           5.2454   -8.9023   -3.4548 C.ar    1  UNL1       -0.0335
     14 C           5.9660   -9.8131   -2.6275 C.ar    1  UNL1        0.1054
     15 N           5.4846   -9.8612   -1.3182 N.pl3   1  UNL1       -0.3383
     16 C           6.2322  -10.5128   -0.2724 C.3     1  UNL1        0.0146
     17 C           5.7880  -10.3050    1.1543 C.3     1  UNL1        0.0045
     18 C           5.2504   -8.8963    1.4442 C.3     1  UNL1        0.0488
     19 O           5.5260   -7.9142    0.4458 O.3     1  UNL1       -0.3947
     20 C           6.9901  -10.6099    2.0919 C.3     1  UNL1        0.0118
     21 C           7.6416  -11.9427    1.9079 C.ar    1  UNL1        0.1052
     22 C           8.9305  -12.2747    1.5440 C.ar    1  UNL1       -0.0207
     23 C           8.9929  -13.6837    1.5065 C.ar    1  UNL1       -0.0237
     24 C           7.7414  -14.1277    1.8643 C.ar    1  UNL1        0.0921
     25 O           6.9100  -13.0756    2.1161 O.2     1  UNL1       -0.4678
     26 C           6.8781  -10.6960   -3.2669 C.ar    1  UNL1        0.2944
     27 N           7.8691  -11.6327   -2.6515 N.pl3   1  UNL1        0.0815
     28 O           8.0811  -11.6705   -1.4444 O.2     1  UNL1        0.0415
     29 O           8.5183  -12.3508   -3.4267 O.co2   1  UNL1       -0.5760
     30 C           6.9270  -10.7279   -4.6719 C.ar    1  UNL1        0.0296
     31 C           6.9601   -9.9313   -9.7502 C.ar    1  UNL1       -0.0231
     32 H           7.4984  -11.2141  -12.8402 H       1  UNL1        0.0630
     33 H           7.2080  -13.3157  -11.5644 H       1  UNL1        0.0619
     34 H           6.8093  -13.2707   -9.1240 H       1  UNL1        0.0636
     35 H           6.4397  -11.9121   -7.1047 H       1  UNL1        0.1551
     36 H           4.6746   -8.3090   -5.4508 H       1  UNL1        0.0626
     37 H           4.6245   -8.1183   -3.0134 H       1  UNL1        0.0638
     38 H           4.9905   -9.0354   -1.0109 H       1  UNL1        0.1463
     39 H           7.2579  -10.1362   -0.3002 H       1  UNL1        0.0465
     40 H           6.1114  -11.5827   -0.4666 H       1  UNL1        0.0465
     41 H           5.0056  -11.0405    1.3858 H       1  UNL1        0.0342
     42 H           4.1661   -8.9634    1.5646 H       1  UNL1        0.0560
     43 H           5.6947   -8.5171    2.3642 H       1  UNL1        0.0560
     44 H           4.6877   -7.6196    0.0459 H       1  UNL1        0.2094
     45 H           6.6888  -10.4996    3.1381 H       1  UNL1        0.0347
     46 H           7.7669   -9.8522    1.9112 H       1  UNL1        0.0347
     47 H           9.7133  -11.5701    1.3024 H       1  UNL1        0.0652
     48 H           9.8430  -14.2952    1.2383 H       1  UNL1        0.0649
     49 H           7.3108  -15.1140    1.9716 H       1  UNL1        0.1029
     50 H           7.6301  -11.3814   -5.1777 H       1  UNL1        0.0693
     51 H           6.8949   -8.9477   -9.3049 H       1  UNL1        0.0649
@<TRIPOS>UNITY_ATOM_ATTR
27 1
charge 1
29 1
charge -1
@<TRIPOS>BOND
     1     1     2    3
     2     2     3    1
     3     3     4   ar
     4     4     5   ar
     5     5     6   ar
     6     6     7   ar
     7     7     8    1
     8     8     9   am
     9     9    10    2
    10     9    11    1
    11    11    12   ar
    12    12    13   ar
    13    13    14   ar
    14    14    15    1
    15    15    16    1
    16    18    19    1
    17    17    20    1
    18    20    21    1
    19    21    22   ar
    20    22    23   ar
    21    23    24   ar
    22    24    25   ar
    23    21    25   ar
    24    14    26   ar
    25    26    27    1
    26    27    28    2
    27    27    29    1
    28    26    30   ar
    29    11    30   ar
    30     7    31   ar
    31     3    31   ar
    32    17    18    1
    33    17    16    1
    34     4    32    1
    35     5    33    1
    36     6    34    1
    37     8    35    1
    38    12    36    1
    39    13    37    1
    40    15    38    1
    41    16    39    1
    42    16    40    1
    43    17    41    1
    44    18    42    1
    45    18    43    1
    46    19    44    1
    47    20    45    1
    48    20    46    1
    49    22    47    1
    50    23    48    1
    51    24    49    1
    52    30    50    1
    53    31    51    1
