@<TRIPOS>MOLECULE
*****
 34 34 0 0 0
SMALL
GASTEIGER

@<TRIPOS>ATOM
      1 C           0.7949   -0.1220    0.1614 C.3     1  UNL1       -0.0649
      2 C           2.2918   -0.1232    0.1657 C.3     1  UNL1       -0.0504
      3 C           3.0335   -0.7213    1.3365 C.3     1  UNL1       -0.0089
      4 C           4.5798   -0.6849    1.2305 C.2     1  UNL1        0.0622
      5 N           5.3354   -0.1915    0.2651 N.2     1  UNL1       -0.1834
      6 N           4.8038    0.3853   -0.8509 N.am    1  UNL1       -0.1907
      7 C           5.4367    0.9207   -1.9150 C.2     1  UNL1        0.3165
      8 N           6.7689    0.9148   -1.8938 N.am    1  UNL1       -0.3120
      9 O           4.7855    1.3896   -2.8507 O.2     1  UNL1       -0.2513
     10 C           5.3031   -1.2906    2.4297 C.2     1  UNL1       -0.0285
     11 C           6.3751   -0.6309    2.9053 C.2     1  UNL1       -0.0791
     12 C           7.2613   -1.1665    3.9934 C.3     1  UNL1       -0.0341
     13 C           7.0404   -2.6557    4.2613 C.3     1  UNL1       -0.0493
     14 C           5.5528   -2.9743    4.3375 C.3     1  UNL1       -0.0487
     15 C           4.8376   -2.5988    3.0276 C.3     1  UNL1       -0.0262
     16 H           0.4717    0.3487   -0.7769 H       1  UNL1        0.0230
     17 H           0.4097    0.4656    0.9939 H       1  UNL1        0.0230
     18 H           0.4103   -1.1411    0.1867 H       1  UNL1        0.0230
     19 H           2.5770    0.9344    0.1016 H       1  UNL1        0.0266
     20 H           2.5737   -0.7007   -0.7243 H       1  UNL1        0.0266
     21 H           2.7170   -1.7650    1.4473 H       1  UNL1        0.0329
     22 H           2.7439   -0.1973    2.2569 H       1  UNL1        0.0329
     23 H           3.8307    0.4732   -1.0316 H       1  UNL1        0.1788
     24 H           7.2181    0.4989   -1.0932 H       1  UNL1        0.1465
     25 H           7.2647    1.3005   -2.6803 H       1  UNL1        0.1465
     26 H           6.6679    0.3219    2.4699 H       1  UNL1        0.0575
     27 H           7.0866   -0.5910    4.9100 H       1  UNL1        0.0308
     28 H           8.3085   -1.0131    3.7097 H       1  UNL1        0.0308
     29 H           7.5428   -2.9469    5.1909 H       1  UNL1        0.0268
     30 H           7.4944   -3.2475    3.4559 H       1  UNL1        0.0268
     31 H           5.1065   -2.4279    5.1791 H       1  UNL1        0.0268
     32 H           5.4101   -4.0415    4.5465 H       1  UNL1        0.0268
     33 H           3.7626   -2.5849    3.2360 H       1  UNL1        0.0314
     34 H           5.0171   -3.3936    2.2938 H       1  UNL1        0.0314
@<TRIPOS>BOND
     1     1     2    1
     2     2     3    1
     3     3     4    1
     4     4     5    2
     5     5     6    1
     6     6     7   am
     7     7     8   am
     8     7     9    2
     9     4    10    1
    10    10    11    2
    11    11    12    1
    12    12    13    1
    13    13    14    1
    14    14    15    1
    15    10    15    1
    16     1    16    1
    17     1    17    1
    18     1    18    1
    19     2    19    1
    20     2    20    1
    21     3    21    1
    22     3    22    1
    23     6    23    1
    24     8    24    1
    25     8    25    1
    26    11    26    1
    27    12    27    1
    28    12    28    1
    29    13    29    1
    30    13    30    1
    31    14    31    1
    32    14    32    1
    33    15    33    1
    34    15    34    1
