@<TRIPOS>MOLECULE
*****
 53 56 0 0 0
SMALL
GASTEIGER

@<TRIPOS>ATOM
      1 C           0.9610   -0.0795   -0.0325 C.3     1  UNL1       -0.0307
      2 C           2.4839   -0.0837   -0.0377 C.3     1  UNL1        0.0868
      3 O           2.9488   -1.2290    0.6835 O.3     1  UNL1       -0.4922
      4 C           4.3022   -1.3227    0.8757 C.ar    1  UNL1        0.1206
      5 C           4.8381   -2.6106    0.8501 C.ar    1  UNL1       -0.0182
      6 C           6.1981   -2.8327    1.1279 C.ar    1  UNL1       -0.0364
      7 C           7.0643   -1.7699    1.4165 C.ar    1  UNL1        0.0441
      8 N           8.4552   -2.0303    1.6181 N.am    1  UNL1       -0.2095
      9 C           9.1650   -1.5679    2.7018 C.2     1  UNL1        0.2277
     10 O           8.7727   -0.9376    3.6505 O.2     1  UNL1       -0.2748
     11 C          10.6007   -2.0435    2.5772 C.3     1  UNL1        0.0457
     12 C          10.7048   -2.8524    1.2924 C.3     1  UNL1        0.1019
     13 S          11.2789   -4.7015    1.5291 S.3     1  UNL1       -0.0255
     14 C          13.0424   -4.8407    2.0878 C.2     1  UNL1        0.3192
     15 N          13.6115   -3.6746    2.3163 N.2     1  UNL1       -0.2345
     16 N          13.6770   -6.1067    2.2445 N.pl3   1  UNL1       -0.1774
     17 N          15.3133   -6.6078    2.6056 N.2     1  UNL1       -0.1850
     18 C          15.6215   -7.9641    2.6060 C.2     1  UNL1        0.0549
     19 C          17.0037   -8.7722    3.2264 C.ar    1  UNL1        0.0195
     20 C          16.7361   -8.7410    4.5884 C.ar    1  UNL1        0.0114
     21 N          18.0173   -8.4361    4.9937 N.ar    1  UNL1       -0.3600
     22 C          18.6740   -9.6173    4.8175 C.ar    1  UNL1        0.0471
     23 C          19.5930  -10.1484    5.7529 C.ar    1  UNL1       -0.0378
     24 C          20.1798  -11.3758    5.6432 C.ar    1  UNL1       -0.0598
     25 C          19.7983  -12.0491    4.5064 C.ar    1  UNL1       -0.0611
     26 C          18.8389  -11.4390    3.4461 C.ar    1  UNL1       -0.0520
     27 C          18.1508  -10.0793    3.5900 C.ar    1  UNL1        0.0083
     28 C           9.2599   -2.7240    0.7285 C.2     1  UNL1        0.2402
     29 O           8.9533   -3.0649   -0.4064 O.2     1  UNL1       -0.2736
     30 C           6.5078   -0.4810    1.4908 C.ar    1  UNL1       -0.0364
     31 C           5.1413   -0.2584    1.2028 C.ar    1  UNL1       -0.0182
     32 H           0.5735    0.7529   -0.6291 H       1  UNL1        0.0262
     33 H           0.5769    0.0216    0.9887 H       1  UNL1        0.0262
     34 H           0.5615   -1.0163   -0.4336 H       1  UNL1        0.0262
     35 H           2.8211    0.8535    0.4139 H       1  UNL1        0.0694
     36 H           2.8419   -0.1446   -1.0712 H       1  UNL1        0.0694
     37 H           4.1952   -3.4544    0.6061 H       1  UNL1        0.0655
     38 H           6.5554   -3.8576    1.1712 H       1  UNL1        0.0637
     39 H          10.8550   -2.6415    3.4514 H       1  UNL1        0.0374
     40 H          11.2410   -1.1551    2.5386 H       1  UNL1        0.0374
     41 H          11.3682   -2.3520    0.5717 H       1  UNL1        0.0518
     42 H          13.1314   -2.7991    2.1506 H       1  UNL1        0.4453
     43 H          14.5447   -3.6483    2.6936 H       1  UNL1        0.4453
     44 H          13.0279   -6.8797    2.1021 H       1  UNL1        0.1807
     45 H          14.7601   -8.6254    2.4950 H       1  UNL1        0.0852
     46 H          16.2249   -9.6209    5.0016 H       1  UNL1        0.0813
     47 H          18.5486   -7.6169    4.7526 H       1  UNL1        0.1654
     48 H          19.7532   -9.5689    6.6485 H       1  UNL1        0.0638
     49 H          20.8512  -11.7367    6.4362 H       1  UNL1        0.0618
     50 H          20.2168  -13.0726    4.4505 H       1  UNL1        0.0618
     51 H          18.7343  -12.1756    2.6432 H       1  UNL1        0.0624
     52 H           7.1180    0.3848    1.7391 H       1  UNL1        0.0637
     53 H           4.7537    0.7546    1.2651 H       1  UNL1        0.0655
@<TRIPOS>UNITY_ATOM_ATTR
15 1
charge 1
@<TRIPOS>BOND
     1     1     2    1
     2     2     3    1
     3     3     4    1
     4     4     5   ar
     5     5     6   ar
     6     6     7   ar
     7     7     8    1
     8     8     9   am
     9     9    10    2
    10     9    11    1
    11    11    12    1
    12    12    13    1
    13    13    14    1
    14    14    15    2
    15    14    16    1
    16    16    17    1
    17    17    18    2
    18    18    19    1
    19    19    20   ar
    20    20    21   ar
    21    21    22   ar
    22    22    23   ar
    23    23    24   ar
    24    24    25   ar
    25    25    26   ar
    26    26    27   ar
    27    19    27   ar
    28    22    27   ar
    29    12    28    1
    30     8    28   am
    31    28    29    2
    32     7    30   ar
    33    30    31   ar
    34     4    31   ar
    35     1    32    1
    36     1    33    1
    37     1    34    1
    38     2    35    1
    39     2    36    1
    40     5    37    1
    41     6    38    1
    42    11    39    1
    43    11    40    1
    44    12    41    1
    45    15    42    1
    46    15    43    1
    47    16    44    1
    48    18    45    1
    49    20    46    1
    50    21    47    1
    51    23    48    1
    52    24    49    1
    53    25    50    1
    54    26    51    1
    55    30    52    1
    56    31    53    1
