REMARK  9 active torsions:
REMARK  status: ('A' for Active; 'I' for Inactive)
REMARK    1  A    between atoms: C_2  and  C_3 
REMARK       I    between atoms: C_2  and  N_30 
REMARK    2  A    between atoms: C_3  and  S_4 
REMARK    3  A    between atoms: S_4  and  C_5 
REMARK    4  A    between atoms: N_15  and  N_16 
REMARK       I    between atoms: N_16  and  C_17 
REMARK    5  A    between atoms: C_17  and  C_19 
REMARK    6  A    between atoms: C_19  and  C_20 
REMARK    7  A    between atoms: C_20  and  C_21 
REMARK    8  A    between atoms: N_30  and  C_31 
REMARK    9  A    between atoms: C_31  and  C_32 
ROOT
ATOM      1  C   UNL d   1       2.876  -1.100  -4.099  0.00  0.00     0.274 C 
ATOM      2  N   UNL d   1       4.038  -0.237  -4.116  0.00  0.00    -0.358 N 
ATOM      3  C   UNL d   1       5.037  -0.556  -5.037  0.00  0.00     0.046 A 
ATOM      4  C   UNL d   1       6.001   0.370  -5.438  0.00  0.00     0.030 A 
ATOM      5  C   UNL d   1       7.094  -0.022  -6.231  0.00  0.00     0.002 A 
ATOM      6  C   UNL d   1       7.262  -1.352  -6.610  0.00  0.00     0.001 A 
ATOM      7  C   UNL d   1       6.303  -2.279  -6.244  0.00  0.00     0.019 A 
ATOM      8  C   UNL d   1       5.199  -1.869  -5.486  0.00  0.00     0.060 A 
ATOM      9  C   UNL d   1       4.193  -2.867  -5.123  0.00  0.00     0.277 C 
ATOM     10  O   UNL d   1       4.218  -3.927  -5.748  0.00  0.00    -0.266 OA
ATOM     11  N   UNL d   1       3.311  -2.498  -4.099  0.00  0.00    -0.221 N 
ATOM     12  H   UNL d   1       3.868   0.744  -3.933  0.00  0.00     0.162 HD
ENDROOT
BRANCH  11  13
ATOM     13  N   UNL d   1       2.363  -3.483  -3.611  0.00  0.00    -0.262 N 
ATOM     14  C   UNL d   1       2.807  -4.786  -3.423  0.00  0.00     0.236 C 
ATOM     15  O   UNL d   1       3.893  -5.244  -3.769  0.00  0.00    -0.272 OA
ATOM     16  H   UNL d   1       1.656  -3.103  -2.982  0.00  0.00     0.190 HD
BRANCH  14  17
ATOM     17  C   UNL d   1       1.886  -5.689  -2.648  0.00  0.00     0.109 C 
BRANCH  17  18
ATOM     18  C   UNL d   1       2.442  -7.112  -2.811  0.00  0.00     0.046 C 
BRANCH  18  19
ATOM     19  C   UNL d   1       1.745  -8.164  -2.038  0.00  0.00    -0.050 A 
ATOM     20  C   UNL d   1       2.009  -9.469  -2.126  0.00  0.00    -0.006 A 
ATOM     21  C   UNL d   1       2.912 -10.240  -2.913  0.00  0.00     0.014 A 
ATOM     22  C   UNL d   1       1.136 -10.088  -1.120  0.00  0.00     0.038 A 
ATOM     23  C   UNL d   1       2.942 -11.567  -2.722  0.00  0.00     0.001 A 
ATOM     24  C   UNL d   1       2.088 -12.213  -1.734  0.00  0.00     0.002 A 
ATOM     25  C   UNL d   1       1.215 -11.548  -0.951  0.00  0.00     0.030 A 
ATOM     26  N   UNL d   1       0.415  -9.226  -0.507  0.00  0.00    -0.385 N 
ATOM     27  C   UNL d   1       0.703  -7.873  -1.010  0.00  0.00     0.155 A 
ATOM     28  H   UNL d   1      -0.247  -9.463   0.226  0.00  0.00     0.160 HD
ENDBRANCH  18  19
ENDBRANCH  17  18
ENDBRANCH  14  17
ENDBRANCH  11  13
BRANCH   1  29
ATOM     29  S   UNL d   1       1.802  -0.650  -2.706  0.00  0.00    -0.112 SA
BRANCH  29  30
ATOM     30  C   UNL d   1       3.014  -0.386  -1.357  0.00  0.00     0.180 C 
BRANCH  30  31
ATOM     31  C   UNL d   1       2.285  -0.092  -0.039  0.00  0.00     0.227 C 
ATOM     32  O   UNL d   1       1.062  -0.107   0.096  0.00  0.00    -0.273 OA
ATOM     33  N   UNL d   1       3.038   0.195   1.068  0.00  0.00    -0.358 N 
ATOM     34  H   UNL d   1       2.479   0.358   1.900  0.00  0.00     0.162 HD
BRANCH  33  35
ATOM     35  C   UNL d   1       4.486   0.183   1.171  0.00  0.00     0.154 C 
BRANCH  35  36
ATOM     36  C   UNL d   1       5.000   0.537   2.574  0.00  0.00     0.139 C 
ATOM     37  C   UNL d   1       5.331   2.012   2.737  0.00  0.00     0.035 C 
ATOM     38  C   UNL d   1       6.455   1.993   3.742  0.00  0.00     0.029 C 
ATOM     39  C   UNL d   1       7.174   0.701   3.423  0.00  0.00     0.168 C 
ATOM     40  O   UNL d   1       6.214  -0.190   2.839  0.00  0.00    -0.384 OA
ENDBRANCH  35  36
ENDBRANCH  33  35
ENDBRANCH  30  31
ENDBRANCH  29  30
ENDBRANCH   1  29
TORSDOF 9
