REMARK  4 active torsions:
REMARK  status: ('A' for Active; 'I' for Inactive)
REMARK    1  A    between atoms: C_6  and  N_7 
REMARK    2  A    between atoms: N_7  and  C_8 
REMARK    3  A    between atoms: C_8  and  C_10 
REMARK       I    between atoms: C_10  and  N_12 
REMARK    4  A    between atoms: N_12  and  C_13 
ROOT
ATOM      1  C   UNL d   1      -2.124   4.894  -0.084  0.00  0.00     0.244 C 
ATOM      2  O   UNL d   1      -3.317   4.604  -0.256  0.00  0.00    -0.271 OA
ATOM      3  N   UNL d   1      -1.642   6.198   0.058  0.00  0.00    -0.324 N 
ATOM      4  H   UNL d   1      -0.669   6.376  -0.155  0.00  0.00     0.169 HD
ENDROOT
BRANCH   1   5
ATOM      5  C   UNL d   1      -1.058   3.777  -0.038  0.00  0.00     0.170 C 
ATOM      6  C   UNL d   1      -0.213   3.930  -1.302  0.00  0.00     0.042 C 
BRANCH   5   7
ATOM      7  N   UNL d   1      -1.726   2.462   0.010  0.00  0.00    -0.377 N 
ATOM      8  H   UNL d   1      -2.746   2.493  -0.018  0.00  0.00     0.160 HD
BRANCH   7   9
ATOM      9  C   UNL d   1      -1.080   1.245   0.057  0.00  0.00     0.029 A 
ATOM     10  C   UNL d   1      -1.795   0.044   0.006  0.00  0.00     0.029 A 
ATOM     11  C   UNL d   1      -1.130  -1.192  -0.000  0.00  0.00     0.003 A 
ATOM     12  C   UNL d   1       0.265  -1.246   0.006  0.00  0.00     0.007 A 
ATOM     13  C   UNL d   1       0.998  -0.066   0.052  0.00  0.00    -0.060 A 
ATOM     14  C   UNL d   1       2.494  -0.038   0.004  0.00  0.00     0.048 C 
ATOM     15  C   UNL d   1       0.313   1.150   0.124  0.00  0.00     0.036 A 
ENDBRANCH   7   9
ENDBRANCH   5   7
ENDBRANCH   1   5
BRANCH   3  16
ATOM     16  C   UNL d   1      -2.507   7.323   0.084  0.00  0.00     0.046 A 
ATOM     17  C   UNL d   1      -3.624   7.340   0.944  0.00  0.00    -0.035 A 
ATOM     18  C   UNL d   1      -3.920   6.248   1.938  0.00  0.00     0.050 C 
ATOM     19  C   UNL d   1      -4.500   8.437   0.917  0.00  0.00     0.009 A 
ATOM     20  C   UNL d   1      -4.270   9.517   0.071  0.00  0.00     0.001 A 
ATOM     21  C   UNL d   1      -3.145   9.522  -0.748  0.00  0.00     0.009 A 
ATOM     22  C   UNL d   1      -2.239   8.444  -0.738  0.00  0.00    -0.035 A 
ATOM     23  C   UNL d   1      -1.058   8.503  -1.668  0.00  0.00     0.050 C 
ENDBRANCH   3  16
TORSDOF 4
