REMARK  6 active torsions:
REMARK  status: ('A' for Active; 'I' for Inactive)
REMARK    1  A    between atoms: C_5  and  N_6 
REMARK       I    between atoms: N_6  and  C_7 
REMARK    2  A    between atoms: C_7  and  C_9 
REMARK       I    between atoms: C_9  and  N_11 
REMARK    3  A    between atoms: N_11  and  C_12 
REMARK    4  A    between atoms: C_12  and  C_13 
REMARK    5  A    between atoms: C_13  and  C_14 
REMARK    6  A    between atoms: C_24  and  C_25 
REMARK       I    between atoms: C_25  and  N_26 
ROOT
ATOM      1  N   UNL d   1      -3.273   0.145  -0.035  0.00  0.00    -0.319 N 
ATOM      2  C   UNL d   1      -4.007   1.335  -0.060  0.00  0.00     0.313 C 
ATOM      3  O   UNL d   1      -3.588   2.491  -0.048  0.00  0.00    -0.262 OA
ATOM      4  H   UNL d   1      -3.808  -0.721  -0.051  0.00  0.00     0.169 HD
ENDROOT
BRANCH   2   5
ATOM      5  C   UNL d   1      -5.534   1.212  -0.115  0.00  0.00     0.309 C 
ATOM      6  O   UNL d   1      -6.079   0.115  -0.109  0.00  0.00    -0.262 OA
ATOM      7  N   UNL d   1      -6.160   2.449  -0.167  0.00  0.00    -0.352 N 
ATOM      8  H   UNL d   1      -5.551   3.260  -0.086  0.00  0.00     0.162 HD
BRANCH   7   9
ATOM      9  C   UNL d   1      -7.589   2.574  -0.128  0.00  0.00     0.138 C 
BRANCH   9  10
ATOM     10  C   UNL d   1      -8.217   4.007  -0.083  0.00  0.00     0.009 C 
ATOM     11  C   UNL d   1      -7.296   5.212   0.226  0.00  0.00     0.016 C 
ATOM     12  C   UNL d   1      -8.082   6.429  -0.289  0.00  0.00     0.001 C 
ATOM     13  C   UNL d   1      -8.855   5.926  -1.504  0.00  0.00     0.001 C 
ATOM     14  C   UNL d   1      -8.675   4.408  -1.509  0.00  0.00     0.016 C 
BRANCH  10  15
ATOM     15  C   UNL d   1      -9.387   3.895   0.914  0.00  0.00    -0.007 A 
ATOM     16  C   UNL d   1     -10.433   2.987   0.856  0.00  0.00     0.016 A 
ATOM     17  C   UNL d   1     -11.233   2.988   2.032  0.00  0.00     0.008 A 
ATOM     18  C   UNL d   1     -10.802   3.913   2.951  0.00  0.00     0.050 A 
ATOM     19  S   UNL d   1      -9.409   4.728   2.424  0.00  0.00    -0.106 SA
ENDBRANCH  10  15
ENDBRANCH   9  10
ENDBRANCH   7   9
ENDBRANCH   2   5
BRANCH   1  20
ATOM     20  C   UNL d   1      -1.851   0.073  -0.009  0.00  0.00     0.036 A 
ATOM     21  C   UNL d   1      -1.177  -1.149  -0.002  0.00  0.00     0.030 A 
ATOM     22  C   UNL d   1       0.234  -1.177   0.004  0.00  0.00     0.010 A 
ATOM     23  C   UNL d   1       0.996   0.011   0.002  0.00  0.00    -0.046 A 
ATOM     24  C   UNL d   1       2.498  -0.060  -0.013  0.00  0.00     0.049 C 
ATOM     25  C   UNL d   1       0.325   1.243   0.004  0.00  0.00     0.039 A 
ATOM     26  C   UNL d   1      -1.075   1.234   0.004  0.00  0.00     0.047 A 
BRANCH  25  27
ATOM     27  C   UNL d   1       1.050   2.564   0.000  0.00  0.00     0.249 C 
ATOM     28  N   UNL d   1       0.321   3.725  -0.007  0.00  0.00    -0.366 N 
ATOM     29  H   UNL d   1      -0.684   3.807  -0.013  0.00  0.00     0.159 HD
ATOM     30  H   UNL d   1       0.849   4.587  -0.012  0.00  0.00     0.159 HD
ATOM     31  O   UNL d   1       2.273   2.658   0.002  0.00  0.00    -0.268 OA
ENDBRANCH  25  27
ENDBRANCH   1  20
TORSDOF 6
