@<TRIPOS>MOLECULE
*****
 58 61 0 0 0
SMALL
GASTEIGER

@<TRIPOS>ATOM
      1 CG1         0.9897    0.1983   -0.1458 C.3     1  VAL1       -0.0606
      2 CB          2.5103    0.1274   -0.0535 C.3     1  VAL1       -0.0230
      3 CG2         2.9894    1.4765    0.4439 C.3     1  VAL1       -0.0606
      4 CA          2.9843   -1.0555    0.8060 C.3     1  VAL1        0.0649
      5 N           2.2986   -2.2718    0.2273 N.am    1  VAL1       -0.3056
      6 C           1.0968   -2.7137    0.7716 C.2     0  UNK0        0.2345
      7 O           0.5409   -2.0965    1.6739 O.2     0  UNK0       -0.2737
      8 C           0.4667   -4.0224    0.2499 C.3     0  UNK0        0.1103
      9 C           1.0451   -5.1259    1.1913 C.3     0  UNK0        0.0017
     10 C           2.5462   -5.2219    1.2544 C.ar    0  UNK0       -0.0201
     11 C           3.4146   -4.2584    1.7002 C.ar    0  UNK0        0.0060
     12 N           4.6803   -4.5722    1.2909 N.ar    0  UNK0       -0.3604
     13 C           4.7168   -5.9322    1.1505 C.ar    0  UNK0        0.0467
     14 C           5.8037   -6.7995    1.0903 C.ar    0  UNK0       -0.0378
     15 C           5.5067   -8.1631    1.0715 C.ar    0  UNK0       -0.0598
     16 C           4.1880   -8.6248    1.0836 C.ar    0  UNK0       -0.0611
     17 C           3.1145   -7.7357    1.0939 C.ar    0  UNK0       -0.0523
     18 C           3.3831   -6.3631    1.1360 C.ar    0  UNK0        0.0029
     19 N          -1.0698   -4.0159    0.2326 N.am    0  UNK0       -0.2445
     20 C          -1.7723   -5.2216    0.0083 C.2     0  UNK0        0.2521
     21 O          -1.5362   -6.2762    0.5556 O.2     0  UNK0       -0.2698
     22 C          -2.8832   -5.1514   -1.0037 C.ar    0  UNK0        0.0579
     23 C          -3.5322   -6.3037   -1.4512 C.ar    0  UNK0       -0.0478
     24 C          -4.4888   -6.2031   -2.4652 C.ar    0  UNK0       -0.0609
     25 C          -4.8027   -4.9585   -3.0160 C.ar    0  UNK0       -0.0600
     26 C          -4.1469   -3.8109   -2.5708 C.ar    0  UNK0       -0.0400
     27 C          -3.1863   -3.9026   -1.5636 C.ar    0  UNK0        0.0424
     28 N          -2.4207   -2.8009   -1.2004 N.pl3   0  UNK0       -0.3031
     29 C          -1.9670   -2.8825    0.1492 C.3     0  UNK0        0.1965
     30 O          -1.5191   -1.6060    0.4146 O.3     0  UNK0       -0.3588
     31 C           4.5764   -1.1321    0.9077 C.2     1  VAL1        0.0622
     32 O           5.2309   -0.4877    0.0412 O.co2   1  VAL1       -0.5479
     33 OXT         5.0513   -1.8595    1.8299 O.co2   1  VAL1       -0.5479
     34 HG11        0.6339    1.0457   -0.7303 H       1  VAL1        0.0233
     35 HG12        0.5303    0.2500    0.8501 H       1  VAL1        0.0233
     36 HG13        0.6468   -0.6744   -0.6956 H       1  VAL1        0.0233
     37 HB          2.8806   -0.0476   -1.0710 H       1  VAL1        0.0317
     38 HG21        2.6120    1.6771    1.4509 H       1  VAL1        0.0233
     39 HG22        2.6181    2.2508   -0.2334 H       1  VAL1        0.0233
     40 HG23        4.0757    1.5561    0.4608 H       1  VAL1        0.0233
     41 HA          2.6247   -0.9385    1.8404 H       1  VAL1        0.0562
     42 H           2.9128   -2.9124   -0.2655 H       1  VAL1        0.1494
     43 H           0.7873   -4.2101   -0.7871 H       0  UNK0        0.0601
     44 H           0.6788   -6.1055    0.8798 H       0  UNK0        0.0337
     45 H           0.6708   -4.9433    2.2051 H       0  UNK0        0.0337
     46 H           3.2458   -3.2910    2.1426 H       0  UNK0        0.0810
     47 H           5.4530   -3.9062    1.3190 H       0  UNK0        0.1653
     48 H           6.8227   -6.4283    1.1208 H       0  UNK0        0.0638
     49 H           6.3236   -8.8770    1.0681 H       0  UNK0        0.0618
     50 H           3.9816   -9.6887    1.1040 H       0  UNK0        0.0618
     51 H           2.0888   -8.0833    1.1564 H       0  UNK0        0.0624
     52 H          -3.2700   -7.2735   -1.0374 H       0  UNK0        0.0626
     53 H          -4.9810   -7.0979   -2.8365 H       0  UNK0        0.0618
     54 H          -5.5484   -4.8801   -3.8033 H       0  UNK0        0.0618
     55 H          -4.3893   -2.8464   -3.0093 H       0  UNK0        0.0636
     56 H          -2.7348   -1.8746   -1.4524 H       0  UNK0        0.1501
     57 H          -2.7746   -3.0618    0.8754 H       0  UNK0        0.1036
     58 H          -0.6493   -1.6014    0.0174 H       0  UNK0        0.2134
@<TRIPOS>UNITY_ATOM_ATTR
33 1
charge -1
@<TRIPOS>BOND
     1     1     2    1
     2     2     3    1
     3     2     4    1
     4     4     5    1
     5     5     6   am
     6     6     7    2
     7     6     8    1
     8     8     9    1
     9     9    10    1
    10    10    11   ar
    11    11    12   ar
    12    12    13   ar
    13    13    14   ar
    14    14    15   ar
    15    15    16   ar
    16    16    17   ar
    17    17    18   ar
    18    10    18   ar
    19    13    18   ar
    20     8    19    1
    21    19    20   am
    22    20    21    2
    23    20    22    1
    24    22    23   ar
    25    23    24   ar
    26    24    25   ar
    27    25    26   ar
    28    26    27   ar
    29    22    27   ar
    30    27    28    1
    31    28    29    1
    32    19    29    1
    33    29    30    1
    34     4    31    1
    35    31    32   ar
    36    31    33   ar
    37     1    34    1
    38     1    35    1
    39     1    36    1
    40     2    37    1
    41     3    38    1
    42     3    39    1
    43     3    40    1
    44     4    41    1
    45     5    42    1
    46     8    43    1
    47     9    44    1
    48     9    45    1
    49    11    46    1
    50    12    47    1
    51    14    48    1
    52    15    49    1
    53    16    50    1
    54    17    51    1
    55    23    52    1
    56    24    53    1
    57    25    54    1
    58    26    55    1
    59    28    56    1
    60    29    57    1
    61    30    58    1
