@<TRIPOS>MOLECULE
*****
 53 56 0 0 0
SMALL
GASTEIGER

@<TRIPOS>ATOM
      1 C           1.0704   -0.0544   -0.0447 C.3     1  UNL1        0.0788
      2 O           2.4898    0.0165    0.0514 O.3     1  UNL1       -0.4951
      3 C           3.1297   -1.1705    0.2766 C.ar    1  UNL1        0.1201
      4 C           4.2989   -1.1133    1.0333 C.ar    1  UNL1       -0.0196
      5 C           5.0932   -2.2597    1.2022 C.ar    1  UNL1       -0.0536
      6 C           4.6894   -3.5075    0.6814 C.ar    1  UNL1       -0.0301
      7 C           5.4921   -4.7562    1.0098 C.3     1  UNL1        0.0360
      8 N           4.9789   -6.0457    0.4889 N.am    1  UNL1       -0.3213
      9 C           5.5491   -7.2886    0.7221 C.2     1  UNL1        0.1470
     10 S           6.9402   -7.5087    1.6383 S.2     1  UNL1       -0.0174
     11 N           4.8734   -8.3544    0.1164 N.am    1  UNL1       -0.2456
     12 N           5.3608   -9.6990    0.2667 N.am    1  UNL1       -0.2311
     13 C           4.7546  -10.7731   -0.3821 C.2     1  UNL1        0.2602
     14 O           3.7650  -10.6478   -1.0991 O.2     1  UNL1       -0.2687
     15 C           5.3486  -12.1485   -0.1566 C.ar    1  UNL1        0.0399
     16 C           5.3904  -13.1012   -1.1641 C.ar    1  UNL1       -0.0495
     17 C           5.7948  -14.4157   -0.8548 C.ar    1  UNL1       -0.0593
     18 C           6.2381  -14.7861    0.4498 C.ar    1  UNL1       -0.0398
     19 C           6.2275  -13.8504    1.4918 C.ar    1  UNL1        0.0452
     20 N           6.5968  -14.1001    2.8852 N.am    1  UNL1       -0.2023
     21 C           6.2175  -13.1996    3.8436 C.2     1  UNL1        0.2582
     22 O           5.8580  -12.0490    3.8080 O.2     1  UNL1       -0.2692
     23 C           6.4560  -13.7588    5.1392 C.ar    1  UNL1        0.0498
     24 C           5.9423  -13.1827    6.2909 C.ar    1  UNL1       -0.0489
     25 C           6.5647  -13.4493    7.4845 C.ar    1  UNL1       -0.0610
     26 C           7.6764  -14.2972    7.4648 C.ar    1  UNL1       -0.0610
     27 C           8.1035  -14.9570    6.2488 C.ar    1  UNL1       -0.0489
     28 C           7.4038  -14.7350    5.0429 C.ar    1  UNL1        0.0498
     29 C           7.2556  -15.1526    3.5415 C.2     1  UNL1        0.2582
     30 O           7.5191  -16.2584    3.0927 O.2     1  UNL1       -0.2692
     31 C           5.7588  -12.5465    1.1247 C.ar    1  UNL1       -0.0277
     32 C           3.5224   -3.5324   -0.0871 C.ar    1  UNL1       -0.0536
     33 C           2.7514   -2.3830   -0.2870 C.ar    1  UNL1       -0.0196
     34 H           0.7063    0.9377   -0.3290 H       1  UNL1        0.0660
     35 H           0.6474   -0.3080    0.9317 H       1  UNL1        0.0660
     36 H           0.7161   -0.7493   -0.8119 H       1  UNL1        0.0660
     37 H           4.5882   -0.1740    1.5012 H       1  UNL1        0.0654
     38 H           6.0330   -2.1596    1.7453 H       1  UNL1        0.0622
     39 H           5.5251   -4.8420    2.1039 H       1  UNL1        0.0511
     40 H           6.5184   -4.6279    0.6453 H       1  UNL1        0.0511
     41 H           4.1210   -6.0297   -0.0356 H       1  UNL1        0.1481
     42 H           4.0258   -8.2570   -0.4401 H       1  UNL1        0.1718
     43 H           6.2065   -9.7913    0.8255 H       1  UNL1        0.1731
     44 H           5.1074  -12.8321   -2.1809 H       1  UNL1        0.0625
     45 H           5.7404  -15.1681   -1.6450 H       1  UNL1        0.0618
     46 H           6.5465  -15.8194    0.6009 H       1  UNL1        0.0636
     47 H           5.0900  -12.5198    6.2071 H       1  UNL1        0.0625
     48 H           6.2108  -12.9523    8.3863 H       1  UNL1        0.0618
     49 H           8.1912  -14.4392    8.4207 H       1  UNL1        0.0618
     50 H           9.0121  -15.5516    6.3440 H       1  UNL1        0.0625
     51 H           5.6729  -11.7583    1.8547 H       1  UNL1        0.0644
     52 H           3.1788   -4.4371   -0.5707 H       1  UNL1        0.0622
     53 H           1.8719   -2.4748   -0.9127 H       1  UNL1        0.0654
@<TRIPOS>BOND
     1     1     2    1
     2     2     3    1
     3     3     4   ar
     4     4     5   ar
     5     5     6   ar
     6     6     7    1
     7     7     8    1
     8     8     9    1
     9     9    10    2
    10     9    11    1
    11    11    12    1
    12    12    13   am
    13    13    14    2
    14    13    15    1
    15    15    16   ar
    16    16    17   ar
    17    17    18   ar
    18    18    19   ar
    19    19    20    1
    20    20    21   am
    21    21    22    2
    22    21    23    1
    23    23    24   ar
    24    24    25   ar
    25    25    26   ar
    26    26    27   ar
    27    27    28   ar
    28    23    28   ar
    29    28    29    1
    30    20    29   am
    31    29    30    2
    32    19    31   ar
    33    15    31   ar
    34     6    32   ar
    35    32    33   ar
    36     3    33   ar
    37     1    34    1
    38     1    35    1
    39     1    36    1
    40     4    37    1
    41     5    38    1
    42     7    39    1
    43     7    40    1
    44     8    41    1
    45    11    42    1
    46    12    43    1
    47    16    44    1
    48    17    45    1
    49    18    46    1
    50    24    47    1
    51    25    48    1
    52    26    49    1
    53    27    50    1
    54    31    51    1
    55    32    52    1
    56    33    53    1
