@<TRIPOS>MOLECULE
*****
 46 46 0 0 0
SMALL
GASTEIGER

@<TRIPOS>ATOM
      1 C           3.0779   -1.4327    0.0099 C.3     1  UNL1       -0.0375
      2 C           2.6144    0.0177    0.0581 C.3     1  UNL1        0.0679
      3 O           1.1850    0.0427    0.0742 O.3     1  UNL1       -0.3905
      4 C           3.1511    0.8298   -1.1355 C.3     1  UNL1        0.0378
      5 N           4.6007    0.8964   -1.2160 N.am    1  UNL1       -0.3051
      6 C           5.2665    1.5516   -2.2355 C.2     1  UNL1        0.2994
      7 O           4.7361    2.1501   -3.1663 O.2     1  UNL1       -0.2652
      8 C           6.8087    1.4729   -2.1385 C.2     1  UNL1        0.3031
      9 O           7.2895    0.8119   -1.2217 O.2     1  UNL1       -0.2648
     10 N           7.5105    2.2043   -3.0938 N.am    1  UNL1       -0.2777
     11 C           8.9198    2.1917   -3.1985 C.ar    1  UNL1        0.0345
     12 C           9.6290    3.3315   -3.5893 C.ar    1  UNL1       -0.0404
     13 C          11.0223    3.2781   -3.7372 C.ar    1  UNL1       -0.0593
     14 C          11.7078    2.0900   -3.4816 C.ar    1  UNL1       -0.0495
     15 C          11.0019    0.9356   -3.1171 C.ar    1  UNL1        0.0385
     16 C          11.7562   -0.3363   -2.9567 C.2     1  UNL1        0.2445
     17 O          12.9751   -0.3099   -3.1077 O.2     1  UNL1       -0.2702
     18 N          11.0461   -1.4930   -2.6685 N.am    1  UNL1       -0.3066
     19 C          11.6898   -2.8003   -2.4985 C.3     1  UNL1        0.0265
     20 C          12.3952   -3.2143   -3.7977 C.3     1  UNL1       -0.0442
     21 C          12.6819   -2.7450   -1.3291 C.3     1  UNL1       -0.0442
     22 C          10.6277   -3.8700   -2.1727 C.3     1  UNL1       -0.0442
     23 C           9.6157    1.0041   -2.9676 C.ar    1  UNL1       -0.0284
     24 H           4.1689   -1.5035    0.0312 H       1  UNL1        0.0255
     25 H           2.7135   -1.9258   -0.8977 H       1  UNL1        0.0255
     26 H           2.6807   -1.9963    0.8605 H       1  UNL1        0.0255
     27 H           2.9491    0.4727    0.9971 H       1  UNL1        0.0606
     28 H           0.8571   -0.3954   -0.7307 H       1  UNL1        0.2098
     29 H           2.7631    1.8542   -1.0914 H       1  UNL1        0.0487
     30 H           2.7746    0.4049   -2.0741 H       1  UNL1        0.0487
     31 H           5.1818    0.4539   -0.5052 H       1  UNL1        0.1492
     32 H           6.9766    2.8190   -3.7027 H       1  UNL1        0.1553
     33 H           9.1303    4.2881   -3.7193 H       1  UNL1        0.0636
     34 H          11.5821    4.1562   -4.0544 H       1  UNL1        0.0618
     35 H          12.7939    2.0627   -3.5767 H       1  UNL1        0.0625
     36 H          10.0460   -1.4668   -2.5463 H       1  UNL1        0.1495
     37 H          13.1654   -2.4975   -4.0953 H       1  UNL1        0.0250
     38 H          11.6793   -3.2785   -4.6261 H       1  UNL1        0.0250
     39 H          12.8826   -4.1878   -3.6891 H       1  UNL1        0.0250
     40 H          13.4689   -2.0036   -1.4915 H       1  UNL1        0.0250
     41 H          13.1727   -3.7111   -1.1807 H       1  UNL1        0.0250
     42 H          12.1698   -2.4705   -0.3991 H       1  UNL1        0.0250
     43 H           9.8861   -3.9613   -2.9749 H       1  UNL1        0.0250
     44 H          10.0845   -3.6318   -1.2508 H       1  UNL1        0.0250
     45 H          11.0943   -4.8536   -2.0384 H       1  UNL1        0.0250
     46 H           9.0456    0.1219   -2.7171 H       1  UNL1        0.0644
@<TRIPOS>BOND
     1     2     4    1
     2     4     5    1
     3     5     6   am
     4     6     7    2
     5     6     8    1
     6     8     9    2
     7     8    10   am
     8    10    11    1
     9    11    12   ar
    10    12    13   ar
    11    13    14   ar
    12    14    15   ar
    13    15    16    1
    14    16    17    2
    15    16    18   am
    16    18    19    1
    17    19    20    1
    18    19    21    1
    19    19    22    1
    20    15    23   ar
    21    11    23   ar
    22     2     3    1
    23     2     1    1
    24     1    24    1
    25     1    25    1
    26     1    26    1
    27     2    27    1
    28     3    28    1
    29     4    29    1
    30     4    30    1
    31     5    31    1
    32    10    32    1
    33    12    33    1
    34    13    34    1
    35    14    35    1
    36    18    36    1
    37    20    37    1
    38    20    38    1
    39    20    39    1
    40    21    40    1
    41    21    41    1
    42    21    42    1
    43    22    43    1
    44    22    44    1
    45    22    45    1
    46    23    46    1
