@<TRIPOS>MOLECULE
*****
 74 76 0 0 0
SMALL
GASTEIGER

@<TRIPOS>ATOM
      1 C           0.9603    0.2402    0.1009 C.3     1  UNL1       -0.0389
      2 C           2.4394    0.0694    0.0770 C.2     1  UNL1       -0.0365
      3 C           3.1452    1.2068   -0.0212 C.2     1  UNL1        0.0127
      4 C           4.6338    1.2072   -0.0928 C.2     1  UNL1        0.2029
      5 N           5.3238    2.2770    0.1971 N.2     1  UNL1       -0.2239
      6 C           6.8341    2.3932    0.2552 C.3     1  UNL1        0.1685
      7 C           7.6096    1.1445   -0.0696 C.3     1  UNL1        0.1030
      8 O           9.0004    1.3247    0.0386 O.3     1  UNL1       -0.3888
      9 C           4.5689    3.5634    0.5537 C.3     1  UNL1        0.1685
     10 C           5.4546    4.7676    0.8277 C.3     1  UNL1        0.1030
     11 O           4.6570    5.8967    1.1363 O.3     1  UNL1       -0.3888
     12 C           5.1721   -0.1065   -0.5410 C.2     1  UNL1        0.0099
     13 C           4.4744   -1.2255   -0.4368 C.2     1  UNL1       -0.0475
     14 C           3.1403   -1.2312    0.1261 C.2     1  UNL1       -0.0134
     15 C           2.6761   -2.4243    0.5834 C.2     1  UNL1       -0.0031
     16 C           1.2523   -2.6465    0.9159 C.ar    1  UNL1       -0.0163
     17 C           0.8593   -3.0339    2.1991 C.ar    1  UNL1       -0.0476
     18 C          -0.4956   -3.2160    2.4736 C.ar    1  UNL1        0.0162
     19 C          -1.4491   -2.8831    1.5021 C.ar    1  UNL1        0.2732
     20 N          -2.8746   -2.8763    1.8348 N.pl3   1  UNL1        0.0796
     21 O          -3.1944   -3.2703    2.9743 O.2     1  UNL1        0.0414
     22 O          -3.6627   -2.4588    0.9874 O.co2   1  UNL1       -0.5760
     23 C          -1.0588   -2.5222    0.2097 C.ar    1  UNL1        0.0162
     24 C           0.2942   -2.5222   -0.1006 C.ar    1  UNL1       -0.0476
     25 C           3.5940   -3.5921    0.6925 C.ar    1  UNL1       -0.0137
     26 C           3.2271   -4.6797   -0.0532 C.ar    1  UNL1       -0.0520
     27 C           3.8701   -5.8810    0.1642 C.ar    1  UNL1       -0.0401
     28 C           5.0332   -6.0796    0.9195 C.ar    1  UNL1        0.0301
     29 N           5.7345   -7.2864    0.9819 N.pl3   1  UNL1       -0.3255
     30 C           5.4213   -8.5226    0.2066 C.3     1  UNL1        0.0354
     31 C           4.1657   -8.5557   -0.6414 C.3     1  UNL1        0.0599
     32 O           3.9540   -9.7637   -1.3439 O.3     1  UNL1       -0.3935
     33 C           7.0007   -7.3421    1.7775 C.3     1  UNL1        0.0354
     34 C           7.7656   -8.6813    1.7215 C.3     1  UNL1        0.0599
     35 O           8.9336   -8.6577    2.5354 O.3     1  UNL1       -0.3935
     36 C           5.4210   -4.9308    1.6233 C.ar    1  UNL1       -0.0372
     37 C           4.7120   -3.7040    1.5413 C.ar    1  UNL1       -0.0410
     38 C           5.1906   -2.5375    2.3524 C.3     1  UNL1       -0.0391
     39 H           0.6478    1.2869    0.0883 H       1  UNL1        0.0278
     40 H           0.5375   -0.1790    1.0139 H       1  UNL1        0.0278
     41 H           0.5459   -0.1842   -0.8150 H       1  UNL1        0.0278
     42 H           2.6010    2.1433   -0.0538 H       1  UNL1        0.0686
     43 H           7.1017    2.7208    1.2640 H       1  UNL1        0.1050
     44 H           7.1182    3.1645   -0.4660 H       1  UNL1        0.1050
     45 H           7.4308    0.8942   -1.1184 H       1  UNL1        0.0620
     46 H           7.3305    0.3424    0.6248 H       1  UNL1        0.0620
     47 H           9.3213    1.6555   -0.8203 H       1  UNL1        0.2097
     48 H           3.9376    3.3591    1.4290 H       1  UNL1        0.1050
     49 H           3.9158    3.8040   -0.2953 H       1  UNL1        0.1050
     50 H           6.0814    5.0108   -0.0354 H       1  UNL1        0.0620
     51 H           6.1011    4.5828    1.6902 H       1  UNL1        0.0620
     52 H           4.1809    6.1945    0.3404 H       1  UNL1        0.2097
     53 H           6.1452   -0.3195   -0.9288 H       1  UNL1        0.0683
     54 H           4.9879   -2.1492   -0.7105 H       1  UNL1        0.0626
     55 H           1.5980   -3.1970    2.9822 H       1  UNL1        0.0626
     56 H          -0.7923   -3.5962    3.4489 H       1  UNL1        0.0685
     57 H          -1.7746   -2.2163   -0.5489 H       1  UNL1        0.0685
     58 H           0.6084   -2.2872   -1.1169 H       1  UNL1        0.0626
     59 H           2.3913   -4.6658   -0.7506 H       1  UNL1        0.0624
     60 H           3.2732   -6.6410   -0.2886 H       1  UNL1        0.0636
     61 H           5.3400   -9.3622    0.9058 H       1  UNL1        0.0486
     62 H           6.2595   -8.7449   -0.4645 H       1  UNL1        0.0486
     63 H           4.2358   -7.7726   -1.4064 H       1  UNL1        0.0573
     64 H           3.3049   -8.4462    0.0267 H       1  UNL1        0.0573
     65 H           4.5688   -9.7572   -2.0944 H       1  UNL1        0.2095
     66 H           6.7873   -7.1301    2.8334 H       1  UNL1        0.0486
     67 H           7.6948   -6.5622    1.4329 H       1  UNL1        0.0486
     68 H           8.0772   -8.9188    0.6987 H       1  UNL1        0.0573
     69 H           7.1376   -9.4988    2.0870 H       1  UNL1        0.0573
     70 H           9.5560   -8.0210    2.1468 H       1  UNL1        0.2095
     71 H           6.2696   -4.9665    2.3022 H       1  UNL1        0.0639
     72 H           6.0223   -2.8073    3.0050 H       1  UNL1        0.0278
     73 H           4.3726   -2.1369    2.9556 H       1  UNL1        0.0278
     74 H           5.5791   -1.7555    1.7003 H       1  UNL1        0.0278
@<TRIPOS>UNITY_ATOM_ATTR
5 1
charge 1
20 1
charge 1
22 1
charge -1
@<TRIPOS>BOND
     1     1     2    1
     2     2     3    2
     3     3     4    1
     4     4     5    2
     5     5     6    1
     6     6     7    1
     7     7     8    1
     8     5     9    1
     9     9    10    1
    10    10    11    1
    11     4    12    1
    12    12    13    2
    13    13    14    1
    14     2    14    1
    15    14    15    2
    16    15    16    1
    17    16    17   ar
    18    17    18   ar
    19    18    19   ar
    20    19    20    1
    21    20    21    2
    22    20    22    1
    23    19    23   ar
    24    23    24   ar
    25    16    24   ar
    26    15    25    1
    27    25    26   ar
    28    26    27   ar
    29    27    28   ar
    30    28    29    1
    31    29    30    1
    32    30    31    1
    33    31    32    1
    34    29    33    1
    35    33    34    1
    36    34    35    1
    37    28    36   ar
    38    36    37   ar
    39    25    37   ar
    40    37    38    1
    41     1    39    1
    42     1    40    1
    43     1    41    1
    44     3    42    1
    45     6    43    1
    46     6    44    1
    47     7    45    1
    48     7    46    1
    49     8    47    1
    50     9    48    1
    51     9    49    1
    52    10    50    1
    53    10    51    1
    54    11    52    1
    55    12    53    1
    56    13    54    1
    57    17    55    1
    58    18    56    1
    59    23    57    1
    60    24    58    1
    61    26    59    1
    62    27    60    1
    63    30    61    1
    64    30    62    1
    65    31    63    1
    66    31    64    1
    67    32    65    1
    68    33    66    1
    69    33    67    1
    70    34    68    1
    71    34    69    1
    72    35    70    1
    73    36    71    1
    74    38    72    1
    75    38    73    1
    76    38    74    1
