@<TRIPOS>MOLECULE
*****
 64 68 0 0 0
SMALL
GASTEIGER

@<TRIPOS>ATOM
      1 C           0.9769   -0.1158    0.0051 C.2     1  UNL1       -0.1010
      2 C           2.2906   -0.1674   -0.2423 C.2     1  UNL1       -0.0715
      3 C           3.2305   -1.1231    0.3799 C.3     1  UNL1        0.0448
      4 N           4.6613   -0.8701    0.3430 N.ar    1  UNL1       -0.3009
      5 C           5.4022    0.3169    0.3391 C.ar    1  UNL1        0.1515
      6 C           4.9634    1.7877    0.3792 C.3     1  UNL1        0.0693
      7 N           3.5558    2.0237    0.6171 N.pl3   1  UNL1       -0.3362
      8 C           2.8488    3.2203    0.5976 C.ar    1  UNL1        0.0353
      9 C           3.1397    4.2449   -0.3107 C.ar    1  UNL1       -0.0402
     10 C           2.4224    5.4441   -0.2900 C.ar    1  UNL1       -0.0594
     11 C           1.3893    5.6290    0.6273 C.ar    1  UNL1       -0.0539
     12 C           1.0105    4.5973    1.4956 C.ar    1  UNL1       -0.0161
     13 C          -0.0683    4.7706    2.3847 C.ar    1  UNL1       -0.0540
     14 C          -0.4704    3.7506    3.2477 C.ar    1  UNL1       -0.0612
     15 C           0.1968    2.5401    3.2343 C.ar    1  UNL1       -0.0611
     16 C           1.2753    2.3641    2.3720 C.ar    1  UNL1       -0.0523
     17 C           1.7233    3.3750    1.4792 C.ar    1  UNL1        0.0030
     18 N           6.6809   -0.0168    0.2849 N.ar    1  UNL1       -0.1319
     19 N           6.7916   -1.3822    0.2823 N.ar    1  UNL1       -0.1224
     20 C           5.5865   -1.9068    0.3377 C.ar    1  UNL1        0.1924
     21 S           5.3574   -3.6485    0.3825 S.3     1  UNL1       -0.0766
     22 C           3.6054   -4.1539    0.4861 C.3     1  UNL1        0.0792
     23 C           3.4075   -5.6806    0.5488 C.2     1  UNL1        0.2425
     24 O           4.3334   -6.4739    0.4993 O.2     1  UNL1       -0.2732
     25 N           2.0560   -6.0896    0.6526 N.am    1  UNL1       -0.2063
     26 N           1.8036   -7.4447    0.7189 N.2     1  UNL1       -0.1876
     27 C           0.5771   -7.8731    0.6963 C.2     1  UNL1        0.0569
     28 C           0.2964   -9.3434    0.7215 C.ar    1  UNL1        0.0436
     29 C           1.0786  -10.1745    1.5385 C.ar    1  UNL1        0.1261
     30 O           2.0304   -9.6967    2.3994 O.3     1  UNL1       -0.5061
     31 C           0.8859  -11.5533    1.5467 C.ar    1  UNL1       -0.0189
     32 C          -0.1008  -12.1250    0.7456 C.ar    1  UNL1       -0.0505
     33 C          -0.9349  -11.3220   -0.0447 C.ar    1  UNL1       -0.0170
     34 C          -1.9538  -11.9187   -0.8101 C.ar    1  UNL1       -0.0540
     35 C          -2.7979  -11.1461   -1.6037 C.ar    1  UNL1       -0.0612
     36 C          -2.6270   -9.7693   -1.6471 C.ar    1  UNL1       -0.0611
     37 C          -1.6133   -9.1618   -0.8991 C.ar    1  UNL1       -0.0533
     38 C          -0.7471   -9.9094   -0.0689 C.ar    1  UNL1       -0.0057
     39 H           0.4061    0.7200   -0.3919 H       1  UNL1        0.0532
     40 H           0.4557   -0.8479    0.6110 H       1  UNL1        0.0532
     41 H           2.7139    0.5707   -0.9165 H       1  UNL1        0.0584
     42 H           3.0914   -1.9775   -0.2645 H       1  UNL1        0.0536
     43 H           2.9800   -1.3750    1.4188 H       1  UNL1        0.0536
     44 H           5.2965    2.2711   -0.5466 H       1  UNL1        0.0542
     45 H           5.5145    2.2720    1.1980 H       1  UNL1        0.0542
     46 H           3.2259    1.4010    1.3325 H       1  UNL1        0.1465
     47 H           3.9113    4.1187   -1.0651 H       1  UNL1        0.0636
     48 H           2.6699    6.2411   -0.9878 H       1  UNL1        0.0618
     49 H           0.8715    6.5860    0.6528 H       1  UNL1        0.0624
     50 H          -0.6108    5.7129    2.4115 H       1  UNL1        0.0624
     51 H          -1.3006    3.9020    3.9307 H       1  UNL1        0.0618
     52 H          -0.1030    1.7298    3.8928 H       1  UNL1        0.0618
     53 H           1.7547    1.3936    2.4198 H       1  UNL1        0.0624
     54 H           3.0815   -3.8404   -0.4194 H       1  UNL1        0.0476
     55 H           3.1587   -3.7133    1.3819 H       1  UNL1        0.0476
     56 H           1.2781   -5.4399    0.6197 H       1  UNL1        0.1772
     57 H          -0.2885   -7.1911    0.6558 H       1  UNL1        0.0853
     58 H           2.2198   -8.7639    2.1661 H       1  UNL1        0.2922
     59 H           1.5055  -12.1868    2.1770 H       1  UNL1        0.0654
     60 H          -0.2166  -13.2084    0.7525 H       1  UNL1        0.0625
     61 H          -2.1046  -12.9977   -0.7911 H       1  UNL1        0.0624
     62 H          -3.5832  -11.6190   -2.1890 H       1  UNL1        0.0618
     63 H          -3.2809   -9.1614   -2.2668 H       1  UNL1        0.0618
     64 H          -1.5126   -8.0841   -0.9813 H       1  UNL1        0.0624
@<TRIPOS>BOND
     1     1     2    2
     2     2     3    1
     3     3     4    1
     4     4     5   ar
     5     5     6    1
     6     6     7    1
     7     7     8    1
     8     8     9   ar
     9     9    10   ar
    10    10    11   ar
    11    11    12   ar
    12    12    13   ar
    13    13    14   ar
    14    14    15   ar
    15    15    16   ar
    16    16    17   ar
    17     8    17   ar
    18    12    17   ar
    19     5    18   ar
    20    18    19   ar
    21    19    20   ar
    22     4    20   ar
    23    20    21    1
    24    21    22    1
    25    22    23    1
    26    23    24    2
    27    23    25   am
    28    25    26    1
    29    26    27    2
    30    27    28    1
    31    28    29   ar
    32    29    30    1
    33    29    31   ar
    34    31    32   ar
    35    32    33   ar
    36    33    34   ar
    37    34    35   ar
    38    35    36   ar
    39    36    37   ar
    40    37    38   ar
    41    28    38   ar
    42    33    38   ar
    43     1    39    1
    44     1    40    1
    45     2    41    1
    46     3    42    1
    47     3    43    1
    48     6    44    1
    49     6    45    1
    50     7    46    1
    51     9    47    1
    52    10    48    1
    53    11    49    1
    54    13    50    1
    55    14    51    1
    56    15    52    1
    57    16    53    1
    58    22    54    1
    59    22    55    1
    60    25    56    1
    61    27    57    1
    62    30    58    1
    63    31    59    1
    64    32    60    1
    65    34    61    1
    66    35    62    1
    67    36    63    1
    68    37    64    1
