REMARK  5 active torsions:
REMARK  status: ('A' for Active; 'I' for Inactive)
REMARK    1  A    between atoms: C_5  and  N_6 
REMARK       I    between atoms: N_6  and  C_7 
REMARK       I    between atoms: C_7  and  N_9 
REMARK    2  A    between atoms: N_9  and  C_10 
REMARK    3  A    between atoms: C_12  and  N_13 
REMARK       I    between atoms: N_13  and  C_14 
REMARK    4  A    between atoms: C_14  and  C_16 
REMARK    5  A    between atoms: C_25  and  N_26 
ROOT
ATOM      1  C   UNL d   1      -6.808  -0.836  -0.196  0.00  0.00     0.065 A 
ATOM      2  C   UNL d   1      -7.955  -1.323   0.491  0.00  0.00     0.061 A 
ATOM      3  C   UNL d   1      -9.221  -0.708   0.317  0.00  0.00     0.037 A 
ATOM      4  C   UNL d   1      -9.285   0.463  -0.425  0.00  0.00     0.032 A 
ATOM      5  C   UNL d   1      -8.178   0.943  -1.099  0.00  0.00     0.034 A 
ATOM      6  C   UNL d   1      -6.934   0.310  -1.022  0.00  0.00     0.057 A 
ENDROOT
BRANCH   1   7
ATOM      7  N   UNL d   1      -5.531  -1.506  -0.090  0.00  0.00    -0.306 N 
ATOM      8  C   UNL d   1      -4.388  -0.759   0.183  0.00  0.00     0.325 C 
ATOM      9  N   UNL d   1      -3.167  -1.396  -0.035  0.00  0.00    -0.309 N 
ATOM     10  O   UNL d   1      -4.475   0.406   0.584  0.00  0.00    -0.247 OA
ATOM     11  H   UNL d   1      -3.147  -2.402  -0.122  0.00  0.00     0.170 HD
ATOM     12  H   UNL d   1      -5.528  -2.497   0.087  0.00  0.00     0.170 HD
BRANCH   9  13
ATOM     13  C   UNL d   1      -1.900  -0.709  -0.011  0.00  0.00     0.036 A 
ATOM     14  C   UNL d   1      -1.818   0.688   0.010  0.00  0.00     0.030 A 
ATOM     15  C   UNL d   1      -0.606   1.374   0.016  0.00  0.00     0.009 A 
ATOM     16  C   UNL d   1       0.599   0.684  -0.002  0.00  0.00    -0.056 A 
ATOM     17  C   UNL d   1       1.874   1.480  -0.015  0.00  0.00     0.049 C 
ATOM     18  C   UNL d   1       0.566  -0.726  -0.008  0.00  0.00    -0.054 A 
ATOM     19  C   UNL d   1      -0.684  -1.411  -0.026  0.00  0.00     0.037 A 
ATOM     20  C   UNL d   1       1.861  -1.496   0.018  0.00  0.00     0.049 C 
ENDBRANCH   9  13
ENDBRANCH   1   7
BRANCH   6  21
ATOM     21  N   UNL d   1      -5.938   0.838  -1.818  0.00  0.00    -0.379 N 
ATOM     22  C   UNL d   1      -5.473   2.196  -1.561  0.00  0.00     0.123 C 
ATOM     23  C   UNL d   1      -5.531   2.952  -2.882  0.00  0.00     0.020 C 
ATOM     24  C   UNL d   1      -4.755   2.199  -3.972  0.00  0.00     0.003 C 
ATOM     25  C   UNL d   1      -5.173   0.724  -4.072  0.00  0.00     0.020 C 
ATOM     26  C   UNL d   1      -5.118   0.044  -2.708  0.00  0.00     0.123 C 
ENDBRANCH   6  21
BRANCH   3  27
ATOM     27  N   UNL d   1     -10.419  -1.288   0.828  0.00  0.00    -0.323 N 
ATOM     28  C   UNL d   1     -11.713  -0.845   0.543  0.00  0.00     0.257 C 
ATOM     29  O   UNL d   1     -12.029   0.103  -0.183  0.00  0.00    -0.267 OA
ATOM     30  H   UNL d   1     -10.322  -2.122   1.396  0.00  0.00     0.169 HD
BRANCH  28  31
ATOM     31  C   UNL d   1     -12.867  -1.558   1.134  0.00  0.00     0.054 A 
ATOM     32  C   UNL d   1     -14.040  -1.647   0.349  0.00  0.00     0.019 A 
ATOM     33  C   UNL d   1     -15.240  -2.093   0.905  0.00  0.00     0.001 A 
ATOM     34  C   UNL d   1     -15.264  -2.515   2.229  0.00  0.00     0.002 A 
ATOM     35  C   UNL d   1     -14.105  -2.448   3.006  0.00  0.00     0.025 A 
ATOM     36  C   UNL d   1     -12.907  -1.965   2.468  0.00  0.00     0.049 A 
ATOM     37 CL   UNL d   1     -11.555  -1.863   3.536  0.00  0.00    -0.083 Cl
ENDBRANCH  28  31
ENDBRANCH   3  27
TORSDOF 5
