@<TRIPOS>MOLECULE
*****
 52 54 0 0 0
SMALL
GASTEIGER

@<TRIPOS>ATOM
      1 C           1.1046   -0.0274   -0.0367 C.3     1  UNL1        0.0788
      2 O           2.5297   -0.0621   -0.1079 O.3     1  UNL1       -0.4944
      3 C           3.1126   -0.8075    0.8848 C.ar    1  UNL1        0.1312
      4 C           2.7071   -2.1430    1.0471 C.ar    1  UNL1       -0.0162
      5 C           3.2705   -2.9658    2.0207 C.ar    1  UNL1       -0.0435
      6 C           2.8169   -4.3721    2.2091 C.3     1  UNL1       -0.0395
      7 C           4.2684   -2.4522    2.8186 C.ar    1  UNL1       -0.0155
      8 C           4.6845   -1.1432    2.6089 C.ar    1  UNL1        0.1431
      9 O           5.6983   -0.7745    3.4620 O.2     1  UNL1       -0.4218
     10 C           6.2479    0.4729    3.4449 C.ar    1  UNL1        0.3412
     11 O           7.1126    0.6257    4.2911 O.2     1  UNL1       -0.2449
     12 C           5.7453    1.4702    2.4292 C.ar    1  UNL1        0.0494
     13 C           6.3397    2.8895    2.3505 C.3     1  UNL1        0.0561
     14 C           7.4550    3.3231    3.3153 C.2     1  UNL1        0.2178
     15 O           7.9629    2.6263    4.1807 O.2     1  UNL1       -0.2754
     16 N           7.9596    4.5935    3.2447 N.am    1  UNL1       -0.3109
     17 C           9.0096    4.8659    4.2180 C.3     1  UNL1        0.0368
     18 C           9.5234    6.2563    4.1002 C.ar    1  UNL1       -0.0302
     19 C           8.8343    7.3056    4.7169 C.ar    1  UNL1       -0.0552
     20 C           9.1690    8.6190    4.4135 C.ar    1  UNL1       -0.0351
     21 C          10.2715    8.8698    3.5911 C.ar    1  UNL1        0.1050
     22 S          10.6466   10.5386    3.1313 S.O2    1  UNL1        0.0559
     23 N           9.2744   10.9633    2.2778 N.3     1  UNL1       -0.2035
     24 O          10.6718   11.3331    4.3352 O.2     1  UNL1       -0.1533
     25 O          11.7276   10.5145    2.1737 O.2     1  UNL1       -0.1533
     26 C          11.0635    7.8247    3.1109 C.ar    1  UNL1       -0.0351
     27 C          10.6534    6.5144    3.3183 C.ar    1  UNL1       -0.0552
     28 C           4.7466    1.0894    1.5787 C.ar    1  UNL1       -0.0259
     29 C           4.1634    1.9885    0.5098 C.3     1  UNL1       -0.0384
     30 C           4.1588   -0.2782    1.6592 C.ar    1  UNL1        0.0624
     31 H           0.7558    0.6748   -0.7991 H       1  UNL1        0.0660
     32 H           0.7627    0.3319    0.9404 H       1  UNL1        0.0660
     33 H           0.6632   -1.0004   -0.2679 H       1  UNL1        0.0660
     34 H           1.9535   -2.5613    0.3895 H       1  UNL1        0.0657
     35 H           2.0286   -4.6186    1.4938 H       1  UNL1        0.0278
     36 H           2.4179   -4.4977    3.2200 H       1  UNL1        0.0278
     37 H           3.6535   -5.0596    2.0537 H       1  UNL1        0.0278
     38 H           4.7434   -3.0461    3.5979 H       1  UNL1        0.0657
     39 H           5.5180    3.6109    2.4825 H       1  UNL1        0.0409
     40 H           6.7295    3.0439    1.3323 H       1  UNL1        0.0409
     41 H           7.6722    5.2827    2.5647 H       1  UNL1        0.1490
     42 H           9.8226    4.1383    4.0759 H       1  UNL1        0.0512
     43 H           8.6149    4.6871    5.2289 H       1  UNL1        0.0512
     44 H           8.0241    7.0912    5.4122 H       1  UNL1        0.0621
     45 H           8.5717    9.4307    4.8179 H       1  UNL1        0.0637
     46 H           8.4538   11.1988    2.8261 H       1  UNL1        0.1442
     47 H           9.1813   10.5687    1.3469 H       1  UNL1        0.1442
     48 H          11.9812    8.0173    2.5619 H       1  UNL1        0.0637
     49 H          11.2067    5.6917    2.8672 H       1  UNL1        0.0621
     50 H           4.6052    2.9845    0.4650 H       1  UNL1        0.0278
     51 H           3.0924    2.1456    0.6850 H       1  UNL1        0.0278
     52 H           4.3104    1.5479   -0.4843 H       1  UNL1        0.0278
@<TRIPOS>BOND
     1     1     2    1
     2     2     3    1
     3     3     4   ar
     4     4     5   ar
     5     5     6    1
     6     5     7   ar
     7     7     8   ar
     8     8     9   ar
     9     9    10   ar
    10    10    11    2
    11    10    12   ar
    12    12    13    1
    13    13    14    1
    14    14    15    2
    15    14    16   am
    16    16    17    1
    17    17    18    1
    18    18    19   ar
    19    19    20   ar
    20    20    21   ar
    21    21    22    1
    22    22    23    1
    23    22    24    2
    24    22    25    2
    25    21    26   ar
    26    26    27   ar
    27    18    27   ar
    28    12    28   ar
    29    28    29    1
    30    28    30   ar
    31     3    30   ar
    32     8    30   ar
    33     1    31    1
    34     1    32    1
    35     1    33    1
    36     4    34    1
    37     6    35    1
    38     6    36    1
    39     6    37    1
    40     7    38    1
    41    13    39    1
    42    13    40    1
    43    16    41    1
    44    17    42    1
    45    17    43    1
    46    19    44    1
    47    20    45    1
    48    23    46    1
    49    23    47    1
    50    26    48    1
    51    27    49    1
    52    29    50    1
    53    29    51    1
    54    29    52    1
