@<TRIPOS>MOLECULE
*****
 42 43 0 0 0
SMALL
GASTEIGER

@<TRIPOS>ATOM
      1 C           0.6378    0.1135    0.5532 C.3     1  UNL1       -0.0307
      2 C           2.1454    0.0124    0.7268 C.3     1  UNL1        0.0868
      3 O           2.8290    1.2717    0.7044 O.3     1  UNL1       -0.4920
      4 C           4.2157    1.3485    0.6584 C.ar    1  UNL1        0.1236
      5 C           4.7743    2.0373    1.7618 C.ar    1  UNL1       -0.0197
      6 C           6.1179    2.4493    1.7855 C.ar    1  UNL1       -0.0583
      7 C           6.9590    2.1278    0.7324 C.ar    1  UNL1       -0.0613
      8 C           6.4366    1.4497   -0.3660 C.ar    1  UNL1       -0.0551
      9 C           5.0659    1.0729   -0.4525 C.ar    1  UNL1       -0.0053
     10 C           4.7281    0.4160   -1.8038 C.3     1  UNL1       -0.0159
     11 C           3.3058   -0.0399   -1.8877 C.3     1  UNL1        0.0295
     12 C           2.6002   -0.8172   -2.9669 C.2     1  UNL1        0.2294
     13 O           3.2092   -1.2660   -3.9488 O.2     1  UNL1       -0.2743
     14 N           1.2411   -1.0899   -2.7444 N.am    1  UNL1       -0.2332
     15 N           0.5468   -1.8892   -3.7014 N.am    1  UNL1       -0.2182
     16 C          -0.8034   -2.1873   -3.5652 C.2     1  UNL1        0.3162
     17 O          -1.4660   -1.8225   -2.5874 O.2     1  UNL1       -0.2513
     18 N          -1.3300   -2.9283   -4.6210 N.am    1  UNL1       -0.2954
     19 C          -2.7263   -3.3040   -4.7046 C.3     1  UNL1        0.0247
     20 C          -3.5298   -2.9757   -5.9433 C.3     1  UNL1       -0.0328
     21 C          -3.2583   -4.4069   -5.5938 C.3     1  UNL1       -0.0328
     22 H           0.2591   -0.8517    0.1733 H       1  UNL1        0.0262
     23 H           0.3936    0.8528   -0.2244 H       1  UNL1        0.0262
     24 H           0.1174    0.3494    1.4722 H       1  UNL1        0.0262
     25 H           2.2195   -0.4839   -0.1983 H       1  UNL1        0.0694
     26 H           2.5628   -0.7325    1.4073 H       1  UNL1        0.0694
     27 H           4.1508    2.2921    2.6171 H       1  UNL1        0.0654
     28 H           6.5035    3.0408    2.6142 H       1  UNL1        0.0619
     29 H           8.0097    2.4120    0.7518 H       1  UNL1        0.0618
     30 H           7.1084    1.2340   -1.1978 H       1  UNL1        0.0621
     31 H           5.3687   -0.4756   -1.8772 H       1  UNL1        0.0319
     32 H           4.9756    1.0835   -2.6316 H       1  UNL1        0.0319
     33 H           2.6744    0.8270   -1.6492 H       1  UNL1        0.0362
     34 H           3.4305   -0.8458   -1.1587 H       1  UNL1        0.0362
     35 H           0.6717   -0.7543   -1.9632 H       1  UNL1        0.1728
     36 H           1.1113   -2.1738   -4.4948 H       1  UNL1        0.1744
     37 H          -0.7277   -3.1609   -5.3986 H       1  UNL1        0.1506
     38 H          -3.2363   -3.2351   -3.7439 H       1  UNL1        0.0499
     39 H          -3.0341   -2.5852   -6.8243 H       1  UNL1        0.0284
     40 H          -4.5374   -2.5929   -5.8133 H       1  UNL1        0.0284
     41 H          -2.5977   -4.9682   -6.2421 H       1  UNL1        0.0284
     42 H          -4.1050   -4.9944   -5.2434 H       1  UNL1        0.0284
@<TRIPOS>BOND
     1     1     2    1
     2     2     3    1
     3     3     4    1
     4     4     5   ar
     5     5     6   ar
     6     6     7   ar
     7     7     8   ar
     8     8     9   ar
     9     4     9   ar
    10     9    10    1
    11    10    11    1
    12    11    12    1
    13    12    13    2
    14    12    14   am
    15    14    15    1
    16    15    16   am
    17    16    17    2
    18    16    18   am
    19    18    19    1
    20    19    20    1
    21    20    21    1
    22    19    21    1
    23     1    22    1
    24     1    23    1
    25     1    24    1
    26     2    25    1
    27     2    26    1
    28     5    27    1
    29     6    28    1
    30     7    29    1
    31     8    30    1
    32    10    31    1
    33    10    32    1
    34    11    33    1
    35    11    34    1
    36    14    35    1
    37    15    36    1
    38    18    37    1
    39    19    38    1
    40    20    39    1
    41    20    40    1
    42    21    41    1
    43    21    42    1
