@<TRIPOS>MOLECULE
*****
 53 55 0 0 0
SMALL
GASTEIGER

@<TRIPOS>ATOM
      1 C           1.0575    0.0961   -0.0314 C.3     1  UNL1       -0.0652
      2 C           2.5748    0.0932   -0.0412 C.3     1  UNL1       -0.0543
      3 C           3.0047   -1.3437   -0.2621 C.3     1  UNL1       -0.0350
      4 C           4.4896   -1.5407   -0.2270 C.3     1  UNL1        0.0310
      5 N           4.9230   -2.9321   -0.5069 N.ar    1  UNL1       -0.2603
      6 C           4.2111   -4.0687   -0.0723 C.ar    1  UNL1        0.2651
      7 O           3.1718   -4.0297    0.5625 O.2     1  UNL1       -0.2668
      8 C           4.8295   -5.3543   -0.4301 C.ar    1  UNL1        0.0741
      9 C           4.3808   -6.7658   -0.2334 C.ar    1  UNL1       -0.0168
     10 C           3.0619   -7.1582    0.4249 C.3     1  UNL1       -0.0377
     11 C           5.3539   -7.6632   -0.7434 C.ar    1  UNL1        0.0807
     12 C           5.4722   -9.1443   -0.8225 C.2     1  UNL1        0.2643
     13 O           4.6173   -9.9321   -0.4195 O.2     1  UNL1       -0.2683
     14 N           6.6814   -9.6276   -1.3997 N.am    1  UNL1       -0.2491
     15 N           6.9201  -11.0018   -1.6539 N.3     1  UNL1       -0.2541
     16 S           6.6798   -6.8018   -1.4106 S.2     1  UNL1       -0.0653
     17 C           6.0423   -5.3026   -1.0607 C.ar    1  UNL1        0.0979
     18 N           6.7747   -4.1675   -1.3990 N.ar    1  UNL1       -0.2784
     19 C           8.1264   -4.2521   -2.0610 C.3     1  UNL1        0.1051
     20 C           8.8908   -2.9770   -2.4752 C.2     1  UNL1        0.2372
     21 O           8.3608   -1.8717   -2.5573 O.2     1  UNL1       -0.2735
     22 N          10.1966   -3.0796   -2.9294 N.am    1  UNL1       -0.2840
     23 C          10.8121   -1.8378   -3.2832 C.ar    1  UNL1        0.0335
     24 C          11.3397   -1.6481   -4.5562 C.ar    1  UNL1       -0.0394
     25 C          11.8759   -0.3999   -4.9024 C.ar    1  UNL1       -0.0460
     26 C          11.8864    0.6510   -3.9806 C.ar    1  UNL1        0.0180
     27 BR         12.6809    2.3025   -4.4424 Br      1  UNL1       -0.0503
     28 C          11.3268    0.4866   -2.7212 C.ar    1  UNL1       -0.0460
     29 C          10.7888   -0.7534   -2.3798 C.ar    1  UNL1       -0.0394
     30 C           6.2118   -2.9632   -1.0096 C.ar    1  UNL1        0.3332
     31 O           6.8019   -1.8796   -1.0293 O.2     1  UNL1       -0.2462
     32 H           0.6709    1.0975    0.1558 H       1  UNL1        0.0230
     33 H           0.6822   -0.5758    0.7499 H       1  UNL1        0.0230
     34 H           0.6712   -0.2647   -0.9911 H       1  UNL1        0.0230
     35 H           2.9577    0.4545    0.9206 H       1  UNL1        0.0263
     36 H           2.9608    0.7554   -0.8245 H       1  UNL1        0.0263
     37 H           2.6326   -1.7101   -1.2260 H       1  UNL1        0.0282
     38 H           2.5560   -1.9259    0.5388 H       1  UNL1        0.0282
     39 H           4.9413   -1.2061    0.7184 H       1  UNL1        0.0494
     40 H           4.8967   -0.8583   -0.9963 H       1  UNL1        0.0494
     41 H           2.4623   -6.2963    0.7426 H       1  UNL1        0.0278
     42 H           3.2225   -7.7636    1.3247 H       1  UNL1        0.0278
     43 H           2.4239   -7.7324   -0.2576 H       1  UNL1        0.0278
     44 H           7.3380   -8.9575   -1.7997 H       1  UNL1        0.1690
     45 H           6.1434  -11.5347   -1.2465 H       1  UNL1        0.1405
     46 H           7.7523  -11.3008   -1.1360 H       1  UNL1        0.1405
     47 H           7.9717   -4.8191   -2.9926 H       1  UNL1        0.0589
     48 H           8.7735   -4.8558   -1.4102 H       1  UNL1        0.0589
     49 H          10.4415   -3.9015   -3.4685 H       1  UNL1        0.1549
     50 H          11.2720   -2.4238   -5.3117 H       1  UNL1        0.0636
     51 H          12.2781   -0.2499   -5.9000 H       1  UNL1        0.0629
     52 H          11.2933    1.3014   -2.0022 H       1  UNL1        0.0629
     53 H          10.3069   -0.8518   -1.4073 H       1  UNL1        0.0636
@<TRIPOS>BOND
     1     1     2    1
     2     2     3    1
     3     3     4    1
     4     4     5    1
     5     5     6   ar
     6     6     7    2
     7     6     8   ar
     8     8     9   ar
     9     9    10    1
    10     9    11   ar
    11    11    12    1
    12    12    13    2
    13    12    14   am
    14    14    15    1
    15    11    16   ar
    16    16    17   ar
    17     8    17   ar
    18    17    18   ar
    19    18    19    1
    20    19    20    1
    21    20    21    2
    22    20    22   am
    23    22    23    1
    24    23    24   ar
    25    24    25   ar
    26    25    26   ar
    27    26    27    1
    28    26    28   ar
    29    28    29   ar
    30    23    29   ar
    31    18    30   ar
    32     5    30   ar
    33    30    31    2
    34     1    32    1
    35     1    33    1
    36     1    34    1
    37     2    35    1
    38     2    36    1
    39     3    37    1
    40     3    38    1
    41     4    39    1
    42     4    40    1
    43    10    41    1
    44    10    42    1
    45    10    43    1
    46    14    44    1
    47    15    45    1
    48    15    46    1
    49    19    47    1
    50    19    48    1
    51    22    49    1
    52    24    50    1
    53    25    51    1
    54    28    52    1
    55    29    53    1
