@<TRIPOS>MOLECULE
*****
 37 38 0 0 0
SMALL
GASTEIGER

@<TRIPOS>ATOM
      1 C           0.9251    0.2469    0.1662 C.3     1  UNL1        0.0789
      2 O           2.3481    0.2788    0.2981 O.3     1  UNL1       -0.4933
      3 C           3.0499    0.8713   -0.7276 C.ar    1  UNL1        0.1409
      4 C           2.7245    2.1795   -1.0955 C.ar    1  UNL1       -0.0167
      5 C           3.5379    2.8816   -1.9793 C.ar    1  UNL1       -0.0398
      6 C           4.6715    2.2705   -2.5050 C.ar    1  UNL1        0.0429
      7 CL          5.6898    3.1714   -3.5645 Cl      1  UNL1       -0.0835
      8 C           4.9890    0.9481   -2.1718 C.ar    1  UNL1       -0.0189
      9 C           4.1821    0.2096   -1.2807 C.ar    1  UNL1        0.0713
     10 N           4.5331   -1.1114   -1.0091 N.pl3   1  UNL1       -0.3303
     11 C           3.7128   -2.0444   -0.2142 C.3     1  UNL1        0.0949
     12 C           2.3879   -2.3168   -0.9221 C.3     1  UNL1       -0.0381
     13 C           4.4182   -3.4009   -0.0401 C.2     1  UNL1        0.2382
     14 O           5.4842   -3.6355   -0.6288 O.2     1  UNL1       -0.2734
     15 N           3.7541   -4.3202    0.7707 N.am    1  UNL1       -0.2689
     16 C           4.2462   -5.6204    0.9489 C.ar    1  UNL1        0.1250
     17 C           5.6068   -5.8058    1.1626 C.ar    1  UNL1       -0.0201
     18 C           6.1202   -7.0922    1.2629 C.ar    1  UNL1       -0.0387
     19 C           5.2574   -8.1668    1.1378 C.ar    1  UNL1        0.0592
     20 CL          5.8643   -9.7700    1.2016 Cl      1  UNL1       -0.0820
     21 C           3.9040   -7.9017    0.9692 C.ar    1  UNL1        0.0480
     22 N           3.3681   -6.6462    0.9118 N.ar    1  UNL1       -0.2387
     23 H           0.5672   -0.5104    0.8741 H       1  UNL1        0.0660
     24 H           0.5863   -0.0600   -0.8305 H       1  UNL1        0.0660
     25 H           0.4743    1.2035    0.4273 H       1  UNL1        0.0660
     26 H           1.8669    2.6758   -0.6560 H       1  UNL1        0.0655
     27 H           3.2983    3.9126   -2.2233 H       1  UNL1        0.0633
     28 H           5.8822    0.5017   -2.6056 H       1  UNL1        0.0652
     29 H           5.3525   -1.5239   -1.4541 H       1  UNL1        0.1469
     30 H           3.6046   -1.6342    0.7967 H       1  UNL1        0.0591
     31 H           2.5104   -2.9589   -1.7960 H       1  UNL1        0.0252
     32 H           1.9399   -1.4202   -1.3339 H       1  UNL1        0.0252
     33 H           1.6647   -2.7675   -0.2354 H       1  UNL1        0.0252
     34 H           2.7657   -4.2121    0.9610 H       1  UNL1        0.1563
     35 H           6.2678   -4.9519    1.2615 H       1  UNL1        0.0652
     36 H           7.1842   -7.2294    1.4222 H       1  UNL1        0.0634
     37 H           3.1947   -8.7195    0.8620 H       1  UNL1        0.0845
@<TRIPOS>BOND
     1     1     2    1
     2     2     3    1
     3     3     4   ar
     4     4     5   ar
     5     5     6   ar
     6     6     7    1
     7     6     8   ar
     8     8     9   ar
     9     3     9   ar
    10     9    10    1
    11    10    11    1
    12    11    12    1
    13    11    13    1
    14    13    14    2
    15    13    15   am
    16    15    16    1
    17    16    17   ar
    18    17    18   ar
    19    18    19   ar
    20    19    20    1
    21    19    21   ar
    22    21    22   ar
    23    16    22   ar
    24     1    23    1
    25     1    24    1
    26     1    25    1
    27     4    26    1
    28     5    27    1
    29     8    28    1
    30    10    29    1
    31    11    30    1
    32    12    31    1
    33    12    32    1
    34    12    33    1
    35    15    34    1
    36    17    35    1
    37    18    36    1
    38    21    37    1
