REMARK  4 active torsions:
REMARK  status: ('A' for Active; 'I' for Inactive)
REMARK       I    between atoms: N_1  and  C_2 
REMARK    1  A    between atoms: C_2  and  C_4 
REMARK    2  A    between atoms: N_7  and  C_8 
REMARK    3  A    between atoms: C_15  and  N_16 
REMARK       I    between atoms: N_16  and  C_17 
REMARK    4  A    between atoms: C_17  and  C_19 
ROOT
ATOM      1  C   UNL d   1       3.077   0.795   0.976  0.00  0.00     0.161 C 
ATOM      2  N   UNL d   1       2.624   1.029   2.264  0.00  0.00    -0.216 NA
ATOM      3  C   UNL d   1       3.472   1.746   2.959  0.00  0.00     0.174 C 
ATOM      4  N   UNL d   1       3.270   2.048   4.271  0.00  0.00    -0.335 N 
ATOM      5  S   UNL d   1       4.830   2.303   2.018  0.00  0.00    -0.032 SA
ATOM      6  C   UNL d   1       4.217   1.501   0.621  0.00  0.00     0.115 C 
ATOM      7  H   UNL d   1       3.965   2.552   4.806  0.00  0.00     0.168 HD
ENDROOT
BRANCH   6   8
ATOM      8  N   UNL d   1       4.918   1.655  -0.581  0.00  0.00    -0.315 N 
ATOM      9  C   UNL d   1       4.314   1.317  -1.789  0.00  0.00     0.259 C 
ATOM     10  O   UNL d   1       3.106   1.106  -1.917  0.00  0.00    -0.267 OA
ATOM     11  H   UNL d   1       5.818   2.120  -0.571  0.00  0.00     0.170 HD
BRANCH   9  12
ATOM     12  C   UNL d   1       5.083   1.287  -3.055  0.00  0.00     0.070 A 
ATOM     13  C   UNL d   1       4.334   1.402  -4.246  0.00  0.00     0.020 A 
ATOM     14  C   UNL d   1       4.932   1.268  -5.497  0.00  0.00     0.001 A 
ATOM     15  C   UNL d   1       6.303   1.056  -5.578  0.00  0.00     0.003 A 
ATOM     16  C   UNL d   1       7.059   0.932  -4.407  0.00  0.00     0.043 A 
ATOM     17  C   UNL d   1       6.447   1.038  -3.151  0.00  0.00     0.132 A 
ATOM     18  F   UNL d   1       7.198   0.866  -2.054  0.00  0.00    -0.205 F 
ENDBRANCH   9  12
ENDBRANCH   6   8
BRANCH   1  19
ATOM     19  C   UNL d   1       2.357  -0.179   0.170  0.00  0.00     0.271 C 
ATOM     20  N   UNL d   1       1.005   0.029   0.115  0.00  0.00    -0.365 N 
ATOM     21  H   UNL d   1       0.475  -0.535  -0.528  0.00  0.00     0.159 HD
ATOM     22  H   UNL d   1       0.564   0.762   0.652  0.00  0.00     0.159 HD
ATOM     23  O   UNL d   1       2.890  -1.137  -0.380  0.00  0.00    -0.266 OA
ENDBRANCH   1  19
BRANCH   4  24
ATOM     24  C   UNL d   1       2.272   1.420   5.058  0.00  0.00     0.034 A 
ATOM     25  C   UNL d   1       1.393   2.190   5.833  0.00  0.00     0.029 A 
ATOM     26  C   UNL d   1       0.402   1.583   6.618  0.00  0.00     0.002 A 
ATOM     27  C   UNL d   1       0.260   0.197   6.625  0.00  0.00     0.000 A 
ATOM     28  C   UNL d   1       1.128  -0.584   5.868  0.00  0.00     0.002 A 
ATOM     29  C   UNL d   1       2.130   0.023   5.100  0.00  0.00     0.029 A 
ENDBRANCH   4  24
TORSDOF 4
