REMARK  4 active torsions:
REMARK  status: ('A' for Active; 'I' for Inactive)
REMARK    1  A    between atoms: C_5  and  C_6 
REMARK       I    between atoms: C_6  and  N_8 
REMARK    2  A    between atoms: N_8  and  N_9 
REMARK       I    between atoms: N_9  and  C_10 
REMARK    3  A    between atoms: C_10  and  C_12 
REMARK    4  A    between atoms: C_18  and  O_19 
ROOT
ATOM      1  C   UNL d   1      -2.259  -2.073  -0.064  0.00  0.00     0.272 C 
ATOM      2  O   UNL d   1      -3.387  -1.558  -0.029  0.00  0.00    -0.266 OA
ATOM      3  N   UNL d   1      -2.056  -3.457  -0.100  0.00  0.00    -0.263 N 
ATOM      4  H   UNL d   1      -1.170  -3.945  -0.093  0.00  0.00     0.190 HD
ENDROOT
BRANCH   3   5
ATOM      5  N   UNL d   1      -3.161  -4.249   0.118  0.00  0.00    -0.267 N 
ATOM      6  C   UNL d   1      -3.224  -5.624  -0.105  0.00  0.00     0.240 C 
ATOM      7  O   UNL d   1      -2.215  -6.316  -0.247  0.00  0.00    -0.271 OA
ATOM      8  H   UNL d   1      -3.979  -3.668   0.258  0.00  0.00     0.190 HD
BRANCH   6   9
ATOM      9  C   UNL d   1      -4.680  -6.224  -0.175  0.00  0.00     0.083 C 
ATOM     10  C   UNL d   1      -5.689  -5.143   0.258  0.00  0.00     0.041 C 
ATOM     11  C   UNL d   1      -5.757  -4.070  -0.831  0.00  0.00    -0.030 C 
ATOM     12  C   UNL d   1      -5.278  -4.272  -2.078  0.00  0.00    -0.031 C 
ATOM     13  C   UNL d   1      -4.858  -5.619  -2.608  0.00  0.00     0.027 C 
ATOM     14  C   UNL d   1      -5.129  -6.704  -1.575  0.00  0.00     0.018 C 
ENDBRANCH   6   9
ENDBRANCH   3   5
BRANCH   1  15
ATOM     15  C   UNL d   1      -1.063  -1.197  -0.035  0.00  0.00     0.066 A 
ATOM     16  C   UNL d   1       0.205  -1.790  -0.004  0.00  0.00     0.020 A 
ATOM     17  C   UNL d   1       1.360  -1.018   0.018  0.00  0.00     0.008 A 
ATOM     18  C   UNL d   1       1.272   0.371   0.004  0.00  0.00    -0.059 A 
ATOM     19  C   UNL d   1       2.509   1.213  -0.000  0.00  0.00     0.048 C 
ATOM     20  C   UNL d   1       0.011   0.980  -0.008  0.00  0.00     0.044 A 
ATOM     21  C   UNL d   1      -1.151   0.205  -0.019  0.00  0.00     0.082 A 
BRANCH  21  22
ATOM     22  O   UNL d   1      -2.325   0.913  -0.009  0.00  0.00    -0.360 OA
ATOM     23  H   UNL d   1      -3.075   0.282  -0.000  0.00  0.00     0.217 HD
ENDBRANCH  21  22
ENDBRANCH   1  15
TORSDOF 4
