@<TRIPOS>MOLECULE
*****
 49 51 0 0 0
SMALL
GASTEIGER

@<TRIPOS>ATOM
      1 C           1.1118    0.0908   -0.1681 C.3     1  UNL1       -0.0190
      2 C           2.6407    0.0164    0.0005 C.3     1  UNL1        0.1741
      3 O           3.0693   -0.5874    1.2473 O.3     1  UNL1       -0.4798
      4 C           2.7107    0.0422    2.4217 C.ar    1  UNL1        0.1222
      5 C           1.3878    0.3077    2.7713 C.ar    1  UNL1       -0.0193
      6 C           1.0517    1.0067    3.9284 C.ar    1  UNL1       -0.0506
      7 C           2.0249    1.2944    4.8737 C.ar    1  UNL1       -0.0177
      8 C           1.6578    1.9026    6.0812 C.ar    1  UNL1       -0.0540
      9 C           2.6106    2.1377    7.0649 C.ar    1  UNL1       -0.0612
     10 C           3.9348    1.7709    6.8411 C.ar    1  UNL1       -0.0612
     11 C           4.3115    1.1710    5.6315 C.ar    1  UNL1       -0.0539
     12 C           3.3654    0.9194    4.6214 C.ar    1  UNL1       -0.0144
     13 C           3.6951    0.3061    3.3807 C.ar    1  UNL1       -0.0122
     14 C           3.1872   -0.7861   -1.2455 C.2     1  UNL1        0.2696
     15 O           2.4426   -1.2962   -2.0914 O.2     1  UNL1       -0.2702
     16 N           4.5644   -0.8601   -1.4130 N.am    1  UNL1       -0.2301
     17 N           5.0952   -1.5720   -2.5487 N.am    1  UNL1       -0.2181
     18 C           6.4620   -1.6854   -2.7146 C.2     1  UNL1        0.3160
     19 O           7.2763   -1.1822   -1.9386 O.2     1  UNL1       -0.2513
     20 N           6.8644   -2.3986   -3.8318 N.am    1  UNL1       -0.2965
     21 C           8.2920   -2.5971   -4.1170 C.3     1  UNL1        0.0312
     22 C           8.6244   -3.4057   -5.3884 C.3     1  UNL1        0.0437
     23 N          10.0805   -3.5729   -5.6229 N.ar    1  UNL1       -0.2943
     24 C          10.7575   -4.7861   -5.7539 C.ar    1  UNL1        0.0732
     25 C          12.0746   -4.4896   -5.9726 C.ar    1  UNL1        0.1870
     26 N          12.1617   -3.1188   -5.9821 N.ar    1  UNL1       -0.2011
     27 C          10.9603   -2.5674   -5.7818 C.ar    1  UNL1        0.2464
     28 H           0.6608    0.8379    0.4890 H       1  UNL1        0.0270
     29 H           0.6552   -0.8848    0.0424 H       1  UNL1        0.0270
     30 H           0.8099    0.4125   -1.1675 H       1  UNL1        0.0270
     31 H           3.0524    1.0328   -0.0607 H       1  UNL1        0.0829
     32 H           0.5513   -0.0559    2.1919 H       1  UNL1        0.0654
     33 H           0.0114    1.2780    4.0941 H       1  UNL1        0.0625
     34 H           0.6208    2.1737    6.2718 H       1  UNL1        0.0624
     35 H           2.3145    2.5975    8.0043 H       1  UNL1        0.0618
     36 H           4.6771    1.9507    7.6144 H       1  UNL1        0.0618
     37 H           5.3531    0.8939    5.4898 H       1  UNL1        0.0624
     38 H           4.7244    0.0139    3.1871 H       1  UNL1        0.0660
     39 H           5.2345   -0.4832   -0.7466 H       1  UNL1        0.1729
     40 H           4.3982   -1.9896   -3.1622 H       1  UNL1        0.1744
     41 H           6.1536   -2.8059   -4.4258 H       1  UNL1        0.1503
     42 H           8.7516   -3.0876   -3.2504 H       1  UNL1        0.0480
     43 H           8.7535   -1.6050   -4.1931 H       1  UNL1        0.0480
     44 H           8.2077   -2.9177   -6.2773 H       1  UNL1        0.0509
     45 H           8.1740   -4.4033   -5.3239 H       1  UNL1        0.0509
     46 H          10.2161   -5.7138   -5.6728 H       1  UNL1        0.0871
     47 H          12.9665   -5.0737   -6.1248 H       1  UNL1        0.1392
     48 H          13.0193   -2.5868   -6.1199 H       1  UNL1        0.4538
     49 H          10.7467   -1.5054   -5.7504 H       1  UNL1        0.1600
@<TRIPOS>UNITY_ATOM_ATTR
26 1
charge 1
@<TRIPOS>BOND
     1     1     2    1
     2     2     3    1
     3     3     4    1
     4     4     5   ar
     5     5     6   ar
     6     6     7   ar
     7     7     8   ar
     8     8     9   ar
     9     9    10   ar
    10    10    11   ar
    11    11    12   ar
    12     7    12   ar
    13    12    13   ar
    14     4    13   ar
    15     2    14    1
    16    14    15    2
    17    14    16   am
    18    16    17    1
    19    17    18   am
    20    18    19    2
    21    18    20   am
    22    20    21    1
    23    21    22    1
    24    22    23    1
    25    23    24   ar
    26    24    25   ar
    27    25    26   ar
    28    26    27   ar
    29    23    27   ar
    30     1    28    1
    31     1    29    1
    32     1    30    1
    33     2    31    1
    34     5    32    1
    35     6    33    1
    36     8    34    1
    37     9    35    1
    38    10    36    1
    39    11    37    1
    40    13    38    1
    41    16    39    1
    42    17    40    1
    43    20    41    1
    44    21    42    1
    45    21    43    1
    46    22    44    1
    47    22    45    1
    48    24    46    1
    49    25    47    1
    50    26    48    1
    51    27    49    1
