REMARK  9 active torsions:
REMARK  status: ('A' for Active; 'I' for Inactive)
REMARK    1  A    between atoms: C_2  and  C_3 
REMARK       I    between atoms: C_2  and  N_18 
REMARK    2  A    between atoms: C_3  and  S_4 
REMARK    3  A    between atoms: S_4  and  C_5 
REMARK    4  A    between atoms: C_8  and  N_9 
REMARK    5  A    between atoms: N_9  and  C_10 
REMARK    6  A    between atoms: CA_19  and  N_18 
REMARK    7  A    between atoms: CA_19  and  C_30 
REMARK    8  A    between atoms: CA_19  and  CB_20 
REMARK    9  A    between atoms: CB_20  and  CG_21 
ROOT
ATOM      1  O   UNK d   0       6.184  -0.723  -0.748  0.00  0.00    -0.273 OA
ATOM      2  C   UNK d   0       5.768   0.344  -1.175  0.00  0.00     0.227 C 
ATOM      3  N   TRP d   1       4.994   1.221  -0.431  0.00  0.00    -0.346 N 
ATOM      4  H   TRP d   1       4.945   2.200  -0.670  0.00  0.00     0.163 HD
ENDROOT
BRANCH   2   5
ATOM      5  C   UNK d   0       5.927   0.747  -2.636  0.00  0.00     0.179 C 
BRANCH   5   6
ATOM      6  S   UNK d   0       6.186  -0.766  -3.665  0.00  0.00    -0.128 SA
BRANCH   6   7
ATOM      7  C   UNK d   0       6.762  -0.082  -5.208  0.00  0.00     0.197 C 
ATOM      8  N   UNK d   0       8.159  -0.460  -5.439  0.00  0.00    -0.235 NA
ATOM      9  N   UNK d   0       8.857   0.626  -6.081  0.00  0.00    -0.232 NA
ATOM     10  H   UNK d   0       8.213  -1.358  -5.926  0.00  0.00     0.142 HD
ATOM     11  C   UNK d   0       7.911   1.641  -6.580  0.00  0.00     0.212 C 
ATOM     12  H   UNK d   0       9.473   0.301  -6.823  0.00  0.00     0.143 HD
ATOM     13  S   UNK d   0       6.580   1.687  -5.428  0.00  0.00    -0.101 SA
BRANCH  11  14
ATOM     14  N   UNK d   0       8.331   2.972  -6.950  0.00  0.00    -0.266 NA
ATOM     15  H   UNK d   0       8.389   3.608  -6.158  0.00  0.00     0.130 HD
BRANCH  14  16
ATOM     16  C   UNK d   0       9.394   2.992  -7.864  0.00  0.00     0.013 C 
ATOM     17  C   UNK d   0       9.700   1.852  -8.638  0.00  0.00     0.024 C 
ATOM     18  C   UNK d   0      10.815   1.762  -9.444  0.00  0.00     0.005 C 
ATOM     19  C   UNK d   0      11.536   2.911  -9.677  0.00  0.00     0.042 C 
ATOM     20  C   UNK d   0      11.142   4.104  -9.069  0.00  0.00     0.118 C 
ATOM     21  F   UNK d   0      11.786   5.231  -9.397  0.00  0.00    -0.206 F 
ATOM     22  C   UNK d   0      10.096   4.156  -8.145  0.00  0.00     0.065 C 
ENDBRANCH  14  16
ENDBRANCH  11  14
ENDBRANCH   6   7
ENDBRANCH   5   6
ENDBRANCH   2   5
BRANCH   3  23
ATOM     23  CA  TRP d   1       4.443   0.844   0.911  0.00  0.00     0.190 C 
BRANCH  23  24
ATOM     24  C   TRP d   1       4.938   1.783   2.058  0.00  0.00     0.197 C 
ATOM     25  O   TRP d   1       4.045   2.362   2.741  0.00  0.00    -0.646 OA
ATOM     26  OXT TRP d   1       6.196   1.902   2.149  0.00  0.00    -0.646 OA
ENDBRANCH  23  24
BRANCH  23  27
ATOM     27  CB  TRP d   1       2.890   0.767   0.881  0.00  0.00     0.077 C 
BRANCH  27  28
ATOM     28  CG  TRP d   1       2.315  -0.157  -0.179  0.00  0.00    -0.028 C 
ATOM     29  CD1 TRP d   1       3.027  -0.946  -1.051  0.00  0.00     0.096 C 
ATOM     30  NE1 TRP d   1       2.219  -1.486  -1.988  0.00  0.00    -0.365 N 
ATOM     31  CE2 TRP d   1       0.925  -1.232  -1.650  0.00  0.00     0.042 A 
ATOM     32  HE1 TRP d   1       2.549  -2.026  -2.774  0.00  0.00     0.165 HD
ATOM     33  CZ2 TRP d   1      -0.235  -1.656  -2.289  0.00  0.00     0.030 A 
ATOM     34  CD2 TRP d   1       0.944  -0.431  -0.499  0.00  0.00    -0.002 A 
ATOM     35  CH2 TRP d   1      -1.440  -1.257  -1.724  0.00  0.00     0.002 A 
ATOM     36  CZ3 TRP d   1      -1.471  -0.488  -0.558  0.00  0.00     0.001 A 
ATOM     37  CE3 TRP d   1      -0.289  -0.069   0.069  0.00  0.00     0.014 A 
ENDBRANCH  27  28
ENDBRANCH  23  27
ENDBRANCH   3  23
TORSDOF 9
