@<TRIPOS>MOLECULE
*****
 60 62 0 0 0
SMALL
GASTEIGER

@<TRIPOS>ATOM
      1 O           1.0236   -0.1342    0.0339 O.2     1  UNL1       -0.2717
      2 C           2.2487   -0.0218    0.1134 C.2     1  UNL1        0.2548
      3 C           2.9318    1.0029    1.0400 C.3     1  UNL1        0.1655
      4 O           2.0156    1.7348    1.8405 O.3     1  UNL1       -0.4827
      5 C           2.5628    2.7464    2.5861 C.ar    1  UNL1        0.1218
      6 C           1.8932    3.0485    3.7708 C.ar    1  UNL1       -0.0199
      7 C           2.2111    4.2118    4.4749 C.ar    1  UNL1       -0.0577
      8 C           3.2515    5.0434    4.0346 C.ar    1  UNL1       -0.0529
      9 C           3.9637    4.7127    2.8758 C.ar    1  UNL1       -0.0020
     10 C           5.0229    5.6132    2.3214 C.2     1  UNL1        0.0529
     11 N           5.6375    5.3022    1.2203 N.2     1  UNL1       -0.1873
     12 N           6.5925    6.1489    0.7101 N.am    1  UNL1       -0.1992
     13 C           7.2472    5.7984   -0.4766 C.2     1  UNL1        0.3181
     14 O           7.0525    4.7896   -1.1537 O.2     1  UNL1       -0.2634
     15 C           8.3272    6.8001   -0.9596 C.2     1  UNL1        0.3007
     16 O           8.5371    7.8288   -0.3168 O.2     1  UNL1       -0.2651
     17 N           8.9944    6.4390   -2.1266 N.am    1  UNL1       -0.3072
     18 C          10.0179    7.2836   -2.7195 C.3     1  UNL1        0.0160
     19 C          10.6256    6.7644   -4.0427 C.3     1  UNL1       -0.0120
     20 C          11.6807    7.7108   -4.5895 C.ar    1  UNL1       -0.0459
     21 C          12.9293    7.2480   -5.0313 C.ar    1  UNL1       -0.0585
     22 C          13.9328    8.1572   -5.3890 C.ar    1  UNL1       -0.0615
     23 C          13.6737    9.5272   -5.3922 C.ar    1  UNL1       -0.0617
     24 C          12.4189    9.9932   -5.0192 C.ar    1  UNL1       -0.0615
     25 C          11.4300    9.0910   -4.6343 C.ar    1  UNL1       -0.0585
     26 C           3.6210    3.5553    2.1650 C.ar    1  UNL1       -0.0113
     27 N           3.0352   -0.7693   -0.7432 N.am    1  UNL1       -0.2827
     28 C           4.4322   -0.8882   -0.7592 C.ar    1  UNL1        0.0340
     29 C           5.1183   -1.0405   -1.9633 C.ar    1  UNL1       -0.0405
     30 C           6.5107   -1.2002   -1.9577 C.ar    1  UNL1       -0.0595
     31 C           7.2229   -1.1600   -0.7562 C.ar    1  UNL1       -0.0500
     32 C           6.5396   -1.0423    0.4548 C.ar    1  UNL1        0.0566
     33 C           7.2497   -1.0807    1.7800 C.3     1  UNL1        0.4175
     34 F           7.9164   -2.2502    1.9687 F       1  UNL1       -0.1659
     35 F           8.1650   -0.0862    1.9203 F       1  UNL1       -0.1659
     36 F           6.4037   -0.9600    2.8439 F       1  UNL1       -0.1659
     37 C           5.1477   -0.9486    0.4310 C.ar    1  UNL1       -0.0288
     38 H           3.5233    1.6489    0.3822 H       1  UNL1        0.0795
     39 H           3.5696    0.4943    1.7557 H       1  UNL1        0.0795
     40 H           1.1041    2.3892    4.1291 H       1  UNL1        0.0654
     41 H           1.6140    4.4849    5.3432 H       1  UNL1        0.0619
     42 H           3.4733    5.9451    4.5979 H       1  UNL1        0.0624
     43 H           5.2328    6.5418    2.8810 H       1  UNL1        0.0851
     44 H           6.8324    7.0175    1.1837 H       1  UNL1        0.1777
     45 H           8.7020    5.5767   -2.5812 H       1  UNL1        0.1492
     46 H          10.8129    7.4230   -1.9763 H       1  UNL1        0.0465
     47 H           9.5514    8.2632   -2.8668 H       1  UNL1        0.0465
     48 H           9.8454    6.6304   -4.8019 H       1  UNL1        0.0328
     49 H          11.0701    5.7757   -3.8683 H       1  UNL1        0.0328
     50 H          13.1461    6.1830   -5.0848 H       1  UNL1        0.0620
     51 H          14.9270    7.8007   -5.6488 H       1  UNL1        0.0618
     52 H          14.4448   10.2322   -5.6903 H       1  UNL1        0.0618
     53 H          12.2071   11.0587   -5.0043 H       1  UNL1        0.0618
     54 H          10.4608    9.4892   -4.3477 H       1  UNL1        0.0620
     55 H           4.1606    3.3458    1.2488 H       1  UNL1        0.0660
     56 H           2.5061   -1.2678   -1.4506 H       1  UNL1        0.1549
     57 H           4.5979   -0.9935   -2.9173 H       1  UNL1        0.0636
     58 H           7.0466   -1.3578   -2.8914 H       1  UNL1        0.0618
     59 H           8.3078   -1.2489   -0.7617 H       1  UNL1        0.0623
     60 H           4.6286   -1.0060    1.3809 H       1  UNL1        0.0642
@<TRIPOS>BOND
     1     1     2    2
     2     2     3    1
     3     3     4    1
     4     4     5    1
     5     5     6   ar
     6     6     7   ar
     7     7     8   ar
     8     8     9   ar
     9     9    10    1
    10    10    11    2
    11    11    12    1
    12    12    13   am
    13    13    14    2
    14    13    15    1
    15    15    16    2
    16    15    17   am
    17    17    18    1
    18    18    19    1
    19    19    20    1
    20    20    21   ar
    21    21    22   ar
    22    22    23   ar
    23    23    24   ar
    24    24    25   ar
    25    20    25   ar
    26     9    26   ar
    27     5    26   ar
    28     2    27   am
    29    27    28    1
    30    28    29   ar
    31    29    30   ar
    32    30    31   ar
    33    31    32   ar
    34    32    33    1
    35    33    34    1
    36    33    35    1
    37    33    36    1
    38    32    37   ar
    39    28    37   ar
    40     3    38    1
    41     3    39    1
    42     6    40    1
    43     7    41    1
    44     8    42    1
    45    10    43    1
    46    12    44    1
    47    17    45    1
    48    18    46    1
    49    18    47    1
    50    19    48    1
    51    19    49    1
    52    21    50    1
    53    22    51    1
    54    23    52    1
    55    24    53    1
    56    25    54    1
    57    26    55    1
    58    27    56    1
    59    29    57    1
    60    30    58    1
    61    31    59    1
    62    37    60    1
