@<TRIPOS>MOLECULE
*****
 56 59 0 0 0
SMALL
GASTEIGER

@<TRIPOS>ATOM
      1 C         -13.0812   -9.7122   -2.5006 C.3     1  UNL1       -0.0397
      2 C         -12.9248   -8.2220   -2.4000 C.ar    1  UNL1       -0.0504
      3 C         -13.9298   -7.3545   -2.8534 C.ar    1  UNL1       -0.0580
      4 C         -13.7913   -5.9639   -2.7393 C.ar    1  UNL1       -0.0466
      5 C         -12.6525   -5.4245   -2.1511 C.ar    1  UNL1        0.0677
      6 C         -12.4876   -3.9388   -2.1203 C.2     1  UNL1        0.3449
      7 N         -13.2207   -3.1143   -1.3967 N.2     1  UNL1        0.0444
      8 N         -12.6023   -1.8723   -1.5283 N.pl3   1  UNL1       -0.1245
      9 C         -11.5712   -1.8912   -2.5618 C.3     1  UNL1        0.2379
     10 S         -12.0374   -0.8182   -4.0236 S.3     1  UNL1       -0.0828
     11 C         -10.5139   -0.8134   -5.0493 C.3     1  UNL1        0.0756
     12 C         -10.4992   -0.0332   -6.3741 C.2     1  UNL1        0.2251
     13 O         -11.4552    0.6223   -6.7886 O.2     1  UNL1       -0.2748
     14 N          -9.3682   -0.1131   -7.1812 N.am    1  UNL1       -0.2855
     15 C          -8.0290   -0.6324   -6.9185 C.3     1  UNL1        0.1565
     16 O          -7.3071   -0.6209   -8.1864 O.3     1  UNL1       -0.3472
     17 C          -6.9661   -1.9883   -8.5657 C.3     1  UNL1        0.0818
     18 C          -5.4534   -2.2098   -8.5651 C.3     1  UNL1       -0.0346
     19 C          -7.5549   -2.8354   -7.5170 C.2     1  UNL1       -0.0111
     20 C          -8.0417   -2.0489   -6.5780 C.2     1  UNL1        0.0652
     21 C          -8.1691   -2.6532   -5.2719 C.2     1  UNL1        0.2578
     22 O          -8.0554   -1.9974   -4.2652 O.2     1  UNL1       -0.2691
     23 N          -8.4882   -4.0014   -5.2933 N.am    1  UNL1       -0.2465
     24 N          -8.1448   -4.8923   -6.2855 N.3     1  UNL1       -0.2334
     25 C          -7.4603   -4.3153   -7.4346 C.3     1  UNL1        0.0464
     26 C          -8.1559   -4.9106   -8.6388 C.3     1  UNL1       -0.0442
     27 N         -11.5325   -3.3042   -2.8860 N.pl3   1  UNL1       -0.1907
     28 C         -10.3204   -3.9366   -3.2006 C.3     1  UNL1        0.0724
     29 C         -11.6351   -6.2902   -1.7075 C.ar    1  UNL1       -0.0466
     30 C         -11.7673   -7.6785   -1.8363 C.ar    1  UNL1       -0.0580
     31 H         -14.0474   -9.9850   -2.9372 H       1  UNL1        0.0278
     32 H         -13.0250  -10.1669   -1.5056 H       1  UNL1        0.0278
     33 H         -12.2942  -10.1368   -3.1324 H       1  UNL1        0.0278
     34 H         -14.8368   -7.7561   -3.2993 H       1  UNL1        0.0620
     35 H         -14.5636   -5.3033   -3.1216 H       1  UNL1        0.0626
     36 H         -13.1598   -1.0340   -1.4368 H       1  UNL1        0.1999
     37 H         -10.6338   -1.5244   -2.1197 H       1  UNL1        0.1142
     38 H         -10.4096   -1.8493   -5.3564 H       1  UNL1        0.0473
     39 H          -9.6926   -0.4087   -4.4565 H       1  UNL1        0.0473
     40 H          -9.4304    0.4656   -8.0110 H       1  UNL1        0.1515
     41 H          -7.5035    0.0175   -6.2133 H       1  UNL1        0.0863
     42 H          -7.3994   -2.2018   -9.5458 H       1  UNL1        0.0642
     43 H          -5.0082   -1.9520   -7.5950 H       1  UNL1        0.0258
     44 H          -4.9644   -1.5957   -9.3225 H       1  UNL1        0.0258
     45 H          -5.2049   -3.2603   -8.7687 H       1  UNL1        0.0258
     46 H          -8.5589   -4.4269   -4.3851 H       1  UNL1        0.1693
     47 H          -8.9580   -5.4511   -6.5560 H       1  UNL1        0.1449
     48 H          -6.4120   -4.6173   -7.3536 H       1  UNL1        0.0521
     49 H          -9.2003   -4.5681   -8.6768 H       1  UNL1        0.0248
     50 H          -8.1624   -6.0027   -8.5760 H       1  UNL1        0.0248
     51 H          -7.6599   -4.6126   -9.5621 H       1  UNL1        0.0248
     52 H          -9.6684   -3.1435   -3.4913 H       1  UNL1        0.0690
     53 H         -10.5168   -4.6466   -4.0105 H       1  UNL1        0.0690
     54 H          -9.7814   -4.4457   -2.3956 H       1  UNL1        0.0690
     55 H         -10.7282   -5.9050   -1.2519 H       1  UNL1        0.0626
     56 H         -10.9712   -8.3329   -1.4830 H       1  UNL1        0.0620
@<TRIPOS>BOND
     1     1     2    1
     2     2     3   ar
     3     3     4   ar
     4     4     5   ar
     5     5     6    1
     6     6     7    2
     7     7     8    1
     8     8     9    1
     9     9    10    1
    10    10    11    1
    11    11    12    1
    12    12    13    2
    13    12    14   am
    14    15    16    1
    15    16    17    1
    16    17    19    1
    17    19    20    2
    18    15    20    1
    19    20    21    1
    20    21    22    2
    21    21    23   am
    22    23    24    1
    23    24    25    1
    24    19    25    1
    25    25    26    1
    26     9    27    1
    27     6    27    1
    28    27    28    1
    29     5    29   ar
    30    29    30   ar
    31     2    30   ar
    32    17    18    1
    33    15    14    1
    34     1    31    1
    35     1    32    1
    36     1    33    1
    37     3    34    1
    38     4    35    1
    39     8    36    1
    40     9    37    1
    41    11    38    1
    42    11    39    1
    43    14    40    1
    44    15    41    1
    45    17    42    1
    46    18    43    1
    47    18    44    1
    48    18    45    1
    49    23    46    1
    50    24    47    1
    51    25    48    1
    52    26    49    1
    53    26    50    1
    54    26    51    1
    55    28    52    1
    56    28    53    1
    57    28    54    1
    58    29    55    1
    59    30    56    1
