@<TRIPOS>MOLECULE
*****
 74 76 0 0 0
SMALL
GASTEIGER

@<TRIPOS>ATOM
      1 C           0.8453   -0.0767    0.0602 C.2     1  UNL1       -0.1023
      2 C           2.1779   -0.1956    0.0010 C.2     1  UNL1       -0.0867
      3 C           2.9544    0.6558   -0.9438 C.3     1  UNL1       -0.0061
      4 C           4.4389    0.7236   -0.7015 C.ar    1  UNL1        0.0023
      5 C           5.1073   -0.5189   -0.5900 C.ar    1  UNL1       -0.0459
      6 C           6.4596   -0.5699   -0.2819 C.ar    1  UNL1       -0.0015
      7 C           7.0645   -1.8471    0.1789 C.2     1  UNL1        0.0529
      8 N           8.2480   -2.0868    0.6750 N.2     1  UNL1       -0.1877
      9 N           9.1127   -1.0573    0.8911 N.am    1  UNL1       -0.2070
     10 C          10.4016   -1.2404    1.3178 C.2     1  UNL1        0.2323
     11 O          10.9005   -2.3286    1.6271 O.2     1  UNL1       -0.2741
     12 C          11.1731    0.0794    1.3456 C.3     1  UNL1        0.0282
     13 C          12.5604   -0.2088    1.8694 C.3     1  UNL1       -0.0144
     14 C          13.5036    0.9859    1.9822 C.3     1  UNL1        0.0806
     15 O          12.9090    1.9662    2.8267 O.3     1  UNL1       -0.3872
     16 C          14.8662    0.5667    2.5143 C.ar    1  UNL1       -0.0189
     17 C          15.8403    1.5177    2.8406 C.ar    1  UNL1       -0.0527
     18 C          17.1389    1.1108    3.1848 C.ar    1  UNL1       -0.0196
     19 C          17.4606   -0.2460    3.2921 C.ar    1  UNL1        0.1205
     20 O          18.7261   -0.5498    3.7191 O.3     1  UNL1       -0.4922
     21 C          18.9777   -1.9412    3.9490 C.3     1  UNL1        0.0868
     22 C          20.3685   -2.1025    4.5252 C.3     1  UNL1       -0.0307
     23 C          16.4942   -1.1916    2.9831 C.ar    1  UNL1       -0.0196
     24 C          15.2224   -0.7892    2.6035 C.ar    1  UNL1       -0.0527
     25 C           7.1752    0.6128   -0.3226 C.ar    1  UNL1       -0.0076
     26 C           6.5588    1.8481   -0.3200 C.ar    1  UNL1        0.1628
     27 O           7.4576    2.8529   -0.0325 O.3     1  UNL1       -0.4885
     28 C           6.9430    4.1732   -0.0453 C.3     1  UNL1        0.0870
     29 C           7.9949    5.2008    0.2822 C.3     1  UNL1       -0.0307
     30 C           5.1830    1.9212   -0.5760 C.ar    1  UNL1        0.1659
     31 O           4.7386    3.1937   -0.7497 O.3     1  UNL1       -0.4834
     32 C           3.4100    3.4656   -1.0908 C.3     1  UNL1        0.1148
     33 C           3.1134    4.9107   -1.2553 C.ar    1  UNL1       -0.0104
     34 C           4.1129    5.8643   -1.3911 C.ar    1  UNL1       -0.0554
     35 C           3.7908    7.2024   -1.2892 C.ar    1  UNL1       -0.0614
     36 C           2.4534    7.5818   -1.1942 C.ar    1  UNL1       -0.0617
     37 C           1.4387    6.6267   -1.1445 C.ar    1  UNL1       -0.0614
     38 C           1.7685    5.2860   -1.1672 C.ar    1  UNL1       -0.0554
     39 H           0.2708   -0.6293    0.7902 H       1  UNL1        0.0532
     40 H           0.3161    0.6060   -0.6026 H       1  UNL1        0.0532
     41 H           2.7036   -0.7980    0.7340 H       1  UNL1        0.0570
     42 H           2.4822    1.5893   -0.7177 H       1  UNL1        0.0357
     43 H           2.7501    0.4695   -2.0027 H       1  UNL1        0.0357
     44 H           4.5450   -1.4402   -0.7440 H       1  UNL1        0.0628
     45 H           6.3911   -2.7240    0.1330 H       1  UNL1        0.0851
     46 H           8.7378   -0.1438    1.0962 H       1  UNL1        0.1772
     47 H          10.6590    0.8089    1.9800 H       1  UNL1        0.0360
     48 H          11.2399    0.4891    0.3294 H       1  UNL1        0.0360
     49 H          12.9995   -0.9554    1.1951 H       1  UNL1        0.0298
     50 H          12.4495   -0.6680    2.8624 H       1  UNL1        0.0298
     51 H          13.6449    1.4350    0.9916 H       1  UNL1        0.0643
     52 H          12.8952    1.5914    3.7243 H       1  UNL1        0.2102
     53 H          15.5978    2.5793    2.8207 H       1  UNL1        0.0622
     54 H          17.9050    1.8613    3.3619 H       1  UNL1        0.0654
     55 H          18.9243   -2.4889    3.0004 H       1  UNL1        0.0694
     56 H          18.2540   -2.3575    4.6625 H       1  UNL1        0.0694
     57 H          21.1127   -1.6621    3.8555 H       1  UNL1        0.0262
     58 H          20.6030   -3.1612    4.6713 H       1  UNL1        0.0262
     59 H          20.4484   -1.5879    5.4877 H       1  UNL1        0.0262
     60 H          16.6830   -2.2585    3.0089 H       1  UNL1        0.0654
     61 H          14.5240   -1.5900    2.3774 H       1  UNL1        0.0622
     62 H           8.2508    0.6339   -0.3996 H       1  UNL1        0.0662
     63 H           6.1332    4.2831    0.6871 H       1  UNL1        0.0694
     64 H           6.6337    4.3761   -1.0695 H       1  UNL1        0.0694
     65 H           8.3844    5.0514    1.2912 H       1  UNL1        0.0262
     66 H           7.5525    6.2005    0.2112 H       1  UNL1        0.0262
     67 H           8.8250    5.1287   -0.4240 H       1  UNL1        0.0262
     68 H           2.8205    3.2209   -0.2021 H       1  UNL1        0.0748
     69 H           3.1411    2.9610   -2.0244 H       1  UNL1        0.0748
     70 H           5.1423    5.5723   -1.5352 H       1  UNL1        0.0621
     71 H           4.5881    7.9375   -1.2671 H       1  UNL1        0.0618
     72 H           2.2021    8.6346   -1.1631 H       1  UNL1        0.0618
     73 H           0.3988    6.9193   -1.0518 H       1  UNL1        0.0618
     74 H           0.9934    4.5258   -1.0742 H       1  UNL1        0.0621
@<TRIPOS>BOND
     1     1     2    2
     2     2     3    1
     3     3     4    1
     4     4     5   ar
     5     5     6   ar
     6     6     7    1
     7     7     8    2
     8     8     9    1
     9     9    10   am
    10    10    11    2
    11    10    12    1
    12    12    13    1
    13    13    14    1
    14    14    15    1
    15    14    16    1
    16    16    17   ar
    17    17    18   ar
    18    18    19   ar
    19    19    20    1
    20    20    21    1
    21    21    22    1
    22    19    23   ar
    23    23    24   ar
    24    16    24   ar
    25     6    25   ar
    26    25    26   ar
    27    26    27    1
    28    27    28    1
    29    28    29    1
    30    26    30   ar
    31     4    30   ar
    32    30    31    1
    33    31    32    1
    34    32    33    1
    35    33    34   ar
    36    34    35   ar
    37    35    36   ar
    38    36    37   ar
    39    37    38   ar
    40    33    38   ar
    41     1    39    1
    42     1    40    1
    43     2    41    1
    44     3    42    1
    45     3    43    1
    46     5    44    1
    47     7    45    1
    48     9    46    1
    49    12    47    1
    50    12    48    1
    51    13    49    1
    52    13    50    1
    53    14    51    1
    54    15    52    1
    55    17    53    1
    56    18    54    1
    57    21    55    1
    58    21    56    1
    59    22    57    1
    60    22    58    1
    61    22    59    1
    62    23    60    1
    63    24    61    1
    64    25    62    1
    65    28    63    1
    66    28    64    1
    67    29    65    1
    68    29    66    1
    69    29    67    1
    70    32    68    1
    71    32    69    1
    72    34    70    1
    73    35    71    1
    74    36    72    1
    75    37    73    1
    76    38    74    1
