@<TRIPOS>MOLECULE
*****
 49 52 0 0 0
SMALL
GASTEIGER

@<TRIPOS>ATOM
      1 C          -2.4325    1.8611   -0.0227 C.3     1  UNL1       -0.0379
      2 C          -1.6178    0.6108    0.0116 C.ar    1  UNL1       -0.0279
      3 C          -0.2356    0.8756    0.0276 C.ar    1  UNL1       -0.0387
      4 C           0.6888   -0.1452    0.0118 C.ar    1  UNL1        0.0413
      5 CL          2.3597    0.2501    0.0058 Cl      1  UNL1       -0.0835
      6 C           0.2455   -1.4589   -0.0098 C.ar    1  UNL1       -0.0416
      7 C          -1.1397   -1.7460   -0.0027 C.ar    1  UNL1       -0.0388
      8 C          -2.1121   -0.7182    0.0135 C.ar    1  UNL1        0.0364
      9 N          -3.5073   -1.1122    0.0361 N.am    1  UNL1       -0.2853
     10 C          -4.6065   -0.2813    0.0429 C.2     1  UNL1        0.2177
     11 O          -4.5899    0.9470   -0.0027 O.2     1  UNL1       -0.2755
     12 C          -6.0008   -0.8419    0.1022 C.3     1  UNL1        0.0327
     13 C          -6.9219    0.4034    0.1370 C.3     1  UNL1        0.0348
     14 C          -8.3561    0.1426    0.1711 C.ar    1  UNL1        0.2279
     15 N          -9.3110    1.0379    0.1908 N.ar    1  UNL1       -0.1952
     16 C         -10.4247    0.2614    0.1801 C.ar    1  UNL1        0.1819
     17 C         -11.7839    0.8486    0.1969 C.3     1  UNL1        0.0695
     18 S         -11.7095    2.7143    0.1725 S.3     1  UNL1       -0.0039
     19 C         -13.4437    3.1732    0.2872 C.3     1  UNL1        0.3955
     20 N         -14.2086    2.4509    1.3272 N.2     1  UNL1       -0.1660
     21 C         -14.7003    3.2760    2.1624 C.ar    1  UNL1        0.2782
     22 C         -15.4251    3.0034    3.3893 C.ar    1  UNL1        0.0162
     23 C         -15.8490    4.0875    4.0516 C.ar    1  UNL1       -0.0551
     24 C         -15.6193    5.4531    3.6061 C.ar    1  UNL1       -0.0551
     25 C         -14.9320    5.7899    2.4993 C.ar    1  UNL1        0.0162
     26 C         -14.4080    4.6689    1.7204 C.ar    1  UNL1        0.2782
     27 N         -13.7083    4.6146    0.6493 N.2     1  UNL1       -0.1660
     28 N         -10.2037   -1.0577    0.1995 N.ar    1  UNL1       -0.0605
     29 O          -8.8050   -1.1402    0.1790 O.2     1  UNL1       -0.3380
     30 H          -1.8588    2.7867   -0.0553 H       1  UNL1        0.0278
     31 H          -3.0055    1.9226    0.9088 H       1  UNL1        0.0278
     32 H          -3.0042    1.8653   -0.9579 H       1  UNL1        0.0278
     33 H           0.1047    1.9098    0.0433 H       1  UNL1        0.0635
     34 H           0.9807   -2.2603   -0.0317 H       1  UNL1        0.0633
     35 H          -1.4194   -2.7983   -0.0165 H       1  UNL1        0.0637
     36 H          -3.6778   -2.1132    0.0477 H       1  UNL1        0.1548
     37 H          -6.1359   -1.4382    1.0076 H       1  UNL1        0.0363
     38 H          -6.2018   -1.4360   -0.7925 H       1  UNL1        0.0363
     39 H          -6.7434    1.0450   -0.7430 H       1  UNL1        0.0365
     40 H          -6.6882    1.0341    1.0113 H       1  UNL1        0.0365
     41 H         -12.2782    0.5137    1.1164 H       1  UNL1        0.0462
     42 H         -12.3586    0.4929   -0.6633 H       1  UNL1        0.0462
     43 H         -13.9348    3.0035   -0.6762 H       1  UNL1        0.2074
     44 H         -14.2749    1.4409    1.4509 H       1  UNL1        0.4537
     45 H         -15.6002    1.9940    3.7449 H       1  UNL1        0.0685
     46 H         -16.4032    3.9613    4.9845 H       1  UNL1        0.0620
     47 H         -16.0454    6.2310    4.2455 H       1  UNL1        0.0620
     48 H         -14.7877    6.8281    2.2167 H       1  UNL1        0.0685
     49 H         -13.3732    5.4369    0.1382 H       1  UNL1        0.4537
@<TRIPOS>UNITY_ATOM_ATTR
20 1
charge 1
27 1
charge 1
@<TRIPOS>BOND
     1     1     2    1
     2     2     3   ar
     3     3     4   ar
     4     4     5    1
     5     4     6   ar
     6     6     7   ar
     7     7     8   ar
     8     2     8   ar
     9     8     9    1
    10     9    10   am
    11    10    11    2
    12    10    12    1
    13    12    13    1
    14    13    14    1
    15    14    15   ar
    16    15    16   ar
    17    16    17    1
    18    17    18    1
    19    18    19    1
    20    19    20    1
    21    20    21    2
    22    21    22   ar
    23    22    23   ar
    24    23    24   ar
    25    24    25   ar
    26    25    26   ar
    27    21    26   ar
    28    26    27    2
    29    19    27    1
    30    16    28   ar
    31    28    29   ar
    32    14    29   ar
    33     1    30    1
    34     1    31    1
    35     1    32    1
    36     3    33    1
    37     6    34    1
    38     7    35    1
    39     9    36    1
    40    12    37    1
    41    12    38    1
    42    13    39    1
    43    13    40    1
    44    17    41    1
    45    17    42    1
    46    19    43    1
    47    20    44    1
    48    22    45    1
    49    23    46    1
    50    24    47    1
    51    25    48    1
    52    27    49    1
