REMARK  10 active torsions:
REMARK  status: ('A' for Active; 'I' for Inactive)
REMARK    1  A    between atoms: N_2  and  C_3 
REMARK    2  A    between atoms: N_2  and  C_20 
REMARK    3  A    between atoms: C_3  and  C_4 
REMARK    4  A    between atoms: C_4  and  O_5 
REMARK    5  A    between atoms: O_5  and  C_6 
REMARK    6  A    between atoms: C_9  and  C_10 
REMARK    7  A    between atoms: C_10  and  C_11 
REMARK    8  A    between atoms: C_23  and  O_24 
REMARK    9  A    between atoms: O_24  and  C_25 
REMARK   10  A    between atoms: C_25  and  C_26 
ROOT
ATOM      1  C   UNL d   1       3.138  -0.396  -1.145  0.00  0.00     0.150 C 
ENDROOT
BRANCH   1   2
ATOM      2  N   UNL d   1       2.411   0.164   0.011  0.00  0.00    -0.370 N 
ATOM      3  C   UNL d   1       0.947   0.111   0.095  0.00  0.00     0.151 C 
BRANCH   2   4
ATOM      4  C   UNL d   1       3.104   0.552   1.139  0.00  0.00     0.102 A 
ATOM      5  C   UNL d   1       2.747   0.162   2.437  0.00  0.00     0.051 A 
ATOM      6  C   UNL d   1       3.427   0.661   3.547  0.00  0.00     0.042 A 
ATOM      7  C   UNL d   1       4.457   1.573   3.370  0.00  0.00     0.084 A 
ATOM      8  C   UNL d   1       4.787   1.939   2.069  0.00  0.00     0.126 A 
ATOM      9  N   UNL d   1       4.128   1.414   1.021  0.00  0.00    -0.350 N 
ATOM     10  H   UNL d   1       4.368   1.723   0.083  0.00  0.00     0.166 HD
BRANCH   7  11
ATOM     11  O   UNL d   1       5.188   2.155   4.366  0.00  0.00    -0.345 OA
BRANCH  11  12
ATOM     12  C   UNL d   1       4.858   1.769   5.707  0.00  0.00     0.214 C 
BRANCH  12  13
ATOM     13  C   UNL d   1       5.684   2.545   6.699  0.00  0.00    -0.034 A 
ATOM     14  C   UNL d   1       6.459   1.891   7.668  0.00  0.00     0.009 A 
ATOM     15  C   UNL d   1       7.031   2.618   8.714  0.00  0.00     0.001 A 
ATOM     16  C   UNL d   1       6.912   4.006   8.748  0.00  0.00     0.000 A 
ATOM     17  C   UNL d   1       6.189   4.669   7.759  0.00  0.00     0.001 A 
ATOM     18  C   UNL d   1       5.573   3.941   6.743  0.00  0.00     0.009 A 
ENDBRANCH  12  13
ENDBRANCH  11  12
ENDBRANCH   7  11
ENDBRANCH   2   4
ENDBRANCH   1   2
BRANCH   1  19
ATOM     19  C   UNL d   1       2.229  -0.897  -2.268  0.00  0.00     0.195 C 
BRANCH  19  20
ATOM     20  O   UNL d   1       3.014  -1.471  -3.312  0.00  0.00    -0.350 OA
BRANCH  20  21
ATOM     21  C   UNL d   1       2.265  -1.807  -4.405  0.00  0.00     0.068 C 
ATOM     22  C   UNL d   1       2.596  -2.957  -5.127  0.00  0.00     0.037 C 
ATOM     23  C   UNL d   1       1.922  -3.293  -6.321  0.00  0.00     0.010 C 
ATOM     24  C   UNL d   1       0.886  -2.488  -6.788  0.00  0.00    -0.056 C 
ATOM     25  C   UNL d   1       0.668  -1.314  -6.075  0.00  0.00     0.010 C 
ATOM     26  C   UNL d   1       1.275  -0.986  -4.886  0.00  0.00     0.037 C 
BRANCH  24  27
ATOM     27  C   UNL d   1      -0.008  -2.896  -7.953  0.00  0.00     0.063 C 
BRANCH  27  28
ATOM     28  C   UNL d   1      -1.332  -2.102  -8.162  0.00  0.00     0.153 C 
ATOM     29  S   UNL d   1      -1.233  -0.332  -8.663  0.00  0.00    -0.054 SA
ATOM     30  C   UNL d   1      -1.930   0.231  -7.146  0.00  0.00     0.287 C 
ATOM     31  O   UNL d   1      -1.794   1.354  -6.709  0.00  0.00    -0.260 OA
ATOM     32  N   UNL d   1      -2.414  -0.828  -6.437  0.00  0.00    -0.287 N 
ATOM     33  C   UNL d   1      -2.087  -2.090  -6.843  0.00  0.00     0.239 C 
ATOM     34  H   UNL d   1      -2.610  -0.697  -5.456  0.00  0.00     0.172 HD
ATOM     35  O   UNL d   1      -2.278  -3.075  -6.138  0.00  0.00    -0.272 OA
ENDBRANCH  27  28
ENDBRANCH  24  27
ENDBRANCH  20  21
ENDBRANCH  19  20
ENDBRANCH   1  19
TORSDOF 10
