REMARK  10 active torsions:
REMARK  status: ('A' for Active; 'I' for Inactive)
REMARK    1  A    between atoms: C_2  and  C_3 
REMARK    2  A    between atoms: C_2  and  C_17 
REMARK    3  A    between atoms: C_3  and  O_4 
REMARK    4  A    between atoms: O_4  and  C_5 
REMARK    5  A    between atoms: C_5  and  C_7 
REMARK    6  A    between atoms: C_12  and  N_13 
REMARK    7  A    between atoms: N_13  and  C_14 
REMARK    8  A    between atoms: C_14  and  C_15 
REMARK    9  A    between atoms: C_15  and  O_16 
REMARK   10  A    between atoms: C_25  and  C_26 
ROOT
ATOM      1  O   UNL d   1       1.153   0.392   0.824  0.00  0.00    -0.290 OA
ATOM      2  C   UNL d   1       2.334   0.224   0.538  0.00  0.00     0.182 C 
ENDROOT
BRANCH   2   3
ATOM      3  C   UNL d   1       3.038  -1.067   1.037  0.00  0.00     0.262 C 
BRANCH   3   4
ATOM      4  O   UNL d   1       2.216  -1.974   1.776  0.00  0.00    -0.310 OA
BRANCH   4   5
ATOM      5  C   UNL d   1       2.702  -3.234   1.876  0.00  0.00     0.296 C 
ATOM      6  O   UNL d   1       3.900  -3.536   1.719  0.00  0.00    -0.259 OA
BRANCH   5   7
ATOM      7  C   UNL d   1       1.626  -4.221   2.150  0.00  0.00     0.065 A 
ATOM      8  C   UNL d   1       1.811  -4.955   3.336  0.00  0.00     0.020 A 
ATOM      9  C   UNL d   1       0.985  -6.035   3.640  0.00  0.00     0.001 A 
ATOM     10  C   UNL d   1      -0.087  -6.343   2.813  0.00  0.00     0.002 A 
ATOM     11  C   UNL d   1      -0.302  -5.603   1.653  0.00  0.00     0.030 A 
ATOM     12  C   UNL d   1       0.541  -4.539   1.277  0.00  0.00     0.044 A 
BRANCH  12  13
ATOM     13  N   UNL d   1       0.295  -4.056  -0.026  0.00  0.00    -0.387 N 
ATOM     14  H   UNL d   1      -0.674  -4.134  -0.323  0.00  0.00     0.159 HD
BRANCH  13  15
ATOM     15  C   UNL d   1       0.942  -2.845  -0.409  0.00  0.00     0.146 C 
BRANCH  15  16
ATOM     16  C   UNL d   1       0.595  -2.290  -1.764  0.00  0.00     0.183 C 
BRANCH  16  17
ATOM     17  O   UNL d   1       1.678  -1.440  -2.168  0.00  0.00    -0.399 OA
ATOM     18  H   UNL d   1       1.882  -0.925  -1.376  0.00  0.00     0.209 HD
ENDBRANCH  16  17
ENDBRANCH  15  16
ENDBRANCH  13  15
ENDBRANCH  12  13
ENDBRANCH   5   7
ENDBRANCH   4   5
ENDBRANCH   3   4
ENDBRANCH   2   3
BRANCH   2  19
ATOM     19  C   UNL d   1       3.040   1.223  -0.345  0.00  0.00     0.029 C 
ATOM     20  C   UNL d   1       4.369   1.115  -0.500  0.00  0.00     0.003 C 
ATOM     21  C   UNL d   1       5.332   0.170  -0.029  0.00  0.00     0.014 C 
ATOM     22  C   UNL d   1       4.810   2.312  -1.238  0.00  0.00     0.040 C 
ATOM     23  C   UNL d   1       6.615   0.474   0.103  0.00  0.00     0.001 C 
ATOM     24  C   UNL d   1       7.109   1.687  -0.480  0.00  0.00     0.002 C 
ATOM     25  C   UNL d   1       6.311   2.577  -1.127  0.00  0.00     0.030 C 
ATOM     26  N   UNL d   1       3.807   2.943  -1.775  0.00  0.00    -0.376 N 
ATOM     27  C   UNL d   1       2.445   2.424  -1.142  0.00  0.00     0.153 C 
ATOM     28  H   UNL d   1       3.980   3.860  -2.203  0.00  0.00     0.160 HD
BRANCH  27  29
ATOM     29  C   UNL d   1       0.852   2.401  -1.401  0.00  0.00    -0.031 C 
ATOM     30  C   UNL d   1      -0.043   3.437  -1.014  0.00  0.00     0.009 C 
ATOM     31  C   UNL d   1      -1.417   3.196  -0.646  0.00  0.00     0.001 C 
ATOM     32  C   UNL d   1      -1.953   1.916  -0.595  0.00  0.00     0.000 C 
ATOM     33  C   UNL d   1      -1.131   0.893  -0.986  0.00  0.00     0.001 C 
ATOM     34  C   UNL d   1       0.170   1.177  -1.487  0.00  0.00     0.009 C 
ENDBRANCH  27  29
ENDBRANCH   2  19
TORSDOF 10
