REMARK  6 active torsions:
REMARK  status: ('A' for Active; 'I' for Inactive)
REMARK       I    between atoms: N_6  and  C_7 
REMARK    1  A    between atoms: C_7  and  C_9 
REMARK    2  A    between atoms: C_11  and  N_12 
REMARK    3  A    between atoms: N_12  and  S_13 
REMARK    4  A    between atoms: S_13  and  C_16 
REMARK    5  A    between atoms: C_20  and  N_21 
REMARK    6  A    between atoms: C_27  and  O_28 
ROOT
ATOM      1  C   UNL d   1      -2.364   2.066   2.154  0.00  0.00     0.067 A 
ATOM      2  C   UNL d   1      -3.389   3.047   2.170  0.00  0.00     0.050 A 
ATOM      3  C   UNL d   1      -4.474   2.942   3.064  0.00  0.00     0.043 A 
ATOM      4  C   UNL d   1      -4.492   1.855   3.949  0.00  0.00     0.033 A 
ATOM      5  C   UNL d   1      -3.468   0.904   3.964  0.00  0.00     0.040 A 
ATOM      6  C   UNL d   1      -2.401   1.022   3.084  0.00  0.00     0.081 A 
ENDROOT
BRANCH   3   7
ATOM      7  N   UNL d   1      -5.537   3.925   3.047  0.00  0.00    -0.281 N 
ATOM      8  H   UNL d   1      -5.500   4.698   2.389  0.00  0.00     0.179 HD
BRANCH   7   9
ATOM      9  S   UNL d   1      -6.847   3.801   4.109  0.00  0.00     0.263 S 
ATOM     10  O   UNL d   1      -7.571   2.594   3.756  0.00  0.00    -0.200 OA
ATOM     11  O   UNL d   1      -6.366   4.010   5.455  0.00  0.00    -0.200 OA
BRANCH   9  12
ATOM     12  C   UNL d   1      -7.949   5.163   3.770  0.00  0.00     0.082 A 
ATOM     13  C   UNL d   1      -7.479   6.479   3.801  0.00  0.00     0.025 A 
ATOM     14  C   UNL d   1      -8.394   7.540   3.764  0.00  0.00     0.004 A 
ATOM     15  C   UNL d   1      -9.766   7.294   3.640  0.00  0.00     0.036 A 
ATOM     16  C   UNL d   1     -10.229   5.973   3.606  0.00  0.00     0.104 A 
ATOM     17  C   UNL d   1      -9.326   4.903   3.674  0.00  0.00     0.061 A 
BRANCH  16  18
ATOM     18  N   UNL d   1     -11.675   5.709   3.562  0.00  0.00    -0.116 N 
ATOM     19  O   UNL d   1     -12.439   6.684   3.513  0.00  0.00    -0.532 OA
ATOM     20  O   UNL d   1     -12.045   4.527   3.581  0.00  0.00    -0.532 OA
ENDBRANCH  16  18
ENDBRANCH   9  12
ENDBRANCH   7   9
ENDBRANCH   3   7
BRANCH   1  21
ATOM     21  C   UNL d   1      -1.219   2.186   1.195  0.00  0.00     0.256 C 
ATOM     22  N   UNL d   1      -0.957   1.157   0.275  0.00  0.00    -0.348 N 
ATOM     23  C   UNL d   1      -1.740  -0.067   0.122  0.00  0.00     0.126 C 
ATOM     24  C   UNL d   1       0.197   1.233  -0.630  0.00  0.00     0.130 C 
ATOM     25  C   UNL d   1      -0.870  -1.304   0.357  0.00  0.00     0.020 C 
ATOM     26  C   UNL d   1       0.355  -1.291  -0.556  0.00  0.00     0.007 C 
ATOM     27  C   UNL d   1       1.142   0.027  -0.447  0.00  0.00    -0.001 C 
ATOM     28  C   UNL d   1       1.904   0.139   0.876  0.00  0.00     0.011 C 
ATOM     29  O   UNL d   1      -0.556   3.221   1.251  0.00  0.00    -0.267 OA
ENDBRANCH   1  21
BRANCH   6  30
ATOM     30  O   UNL d   1      -1.387   0.111   3.139  0.00  0.00    -0.360 OA
ATOM     31  H   UNL d   1      -1.614  -0.611   3.748  0.00  0.00     0.217 HD
ENDBRANCH   6  30
TORSDOF 6
