REMARK  6 active torsions:
REMARK  status: ('A' for Active; 'I' for Inactive)
REMARK    1  A    between atoms: C_2  and  C_4 
REMARK    2  A    between atoms: C_7  and  C_8 
REMARK    3  A    between atoms: C_8  and  C_9 
REMARK    4  A    between atoms: C_9  and  N_10 
REMARK       I    between atoms: N_10  and  C_11 
REMARK       I    between atoms: C_11  and  N_13 
REMARK    5  A    between atoms: N_13  and  N_14 
REMARK       I    between atoms: N_14  and  C_15 
REMARK    6  A    between atoms: C_15  and  C_17 
ROOT
ATOM      1  N   UNL d   1       4.931  -6.078   4.529  0.00  0.00    -0.341 N 
ATOM      2  C   UNL d   1       5.584  -6.050   5.746  0.00  0.00     0.334 C 
ATOM      3  O   UNL d   1       5.859  -5.011   6.340  0.00  0.00    -0.246 OA
ATOM      4  N   UNL d   1       5.904  -7.306   6.243  0.00  0.00    -0.249 N 
ATOM      5  H   UNL d   1       4.748  -6.957   4.073  0.00  0.00     0.164 HD
ATOM      6  H   UNL d   1       5.686  -8.176   5.778  0.00  0.00     0.192 HD
ENDROOT
BRANCH   4   7
ATOM      7  N   UNL d   1       6.660  -7.392   7.431  0.00  0.00    -0.262 N 
ATOM      8  C   UNL d   1       7.086  -8.645   7.947  0.00  0.00     0.270 C 
ATOM      9  O   UNL d   1       6.842  -9.701   7.435  0.00  0.00    -0.266 OA
ATOM     10  H   UNL d   1       6.823  -6.501   7.897  0.00  0.00     0.190 HD
BRANCH   8  11
ATOM     11  C   UNL d   1       7.747  -8.535   9.310  0.00  0.00     0.036 C 
ATOM     12  C   UNL d   1       8.684  -9.337   9.997  0.00  0.00     0.020 C 
ATOM     13  C   UNL d   1       8.939  -9.151  11.465  0.00  0.00     0.040 C 
ATOM     14  C   UNL d   1       8.186  -8.193  12.204  0.00  0.00     0.102 C 
ATOM     15  C   UNL d   1       7.220  -7.671  11.416  0.00  0.00     0.103 C 
ATOM     16  O   UNL d   1       8.040  -7.710  13.522  0.00  0.00    -0.346 OA
ATOM     17  C   UNL d   1       7.082  -7.638  10.068  0.00  0.00     0.056 C 
ATOM     18  O   UNL d   1       5.969  -7.617  11.963  0.00  0.00    -0.346 OA
ATOM     19  C   UNL d   1       5.995  -6.351  12.528  0.00  0.00     0.202 C 
ATOM     20  C   UNL d   1       6.845  -6.623  13.764  0.00  0.00     0.202 C 
ENDBRANCH   8  11
ENDBRANCH   4   7
BRANCH   1  21
ATOM     21  C   UNL d   1       4.544  -4.839   3.873  0.00  0.00     0.129 C 
BRANCH  21  22
ATOM     22  C   UNL d   1       3.823  -4.990   2.519  0.00  0.00     0.058 C 
BRANCH  22  23
ATOM     23  C   UNL d   1       3.474  -3.671   1.856  0.00  0.00    -0.057 A 
ATOM     24  C   UNL d   1       2.885  -3.649   0.583  0.00  0.00     0.007 A 
ATOM     25  C   UNL d   1       2.680  -2.437  -0.088  0.00  0.00     0.008 A 
ATOM     26  C   UNL d   1       2.947  -1.217   0.551  0.00  0.00    -0.055 A 
ATOM     27  C   UNL d   1       3.533  -1.249   1.817  0.00  0.00     0.008 A 
ATOM     28  C   UNL d   1       3.779  -2.450   2.461  0.00  0.00     0.007 A 
BRANCH  26  29
ATOM     29  C   UNL d   1       2.474   0.091  -0.059  0.00  0.00     0.010 C 
ATOM     30  C   UNL d   1       0.940   0.092  -0.071  0.00  0.00     0.015 C 
ATOM     31  C   UNL d   1       2.962   1.325   0.712  0.00  0.00     0.015 C 
ENDBRANCH  26  29
ENDBRANCH  22  23
ENDBRANCH  21  22
ENDBRANCH   1  21
TORSDOF 6
