REMARK  10 active torsions:
REMARK  status: ('A' for Active; 'I' for Inactive)
REMARK    1  A    between atoms: C_2  and  C_3 
REMARK    2  A    between atoms: C_3  and  O_4 
REMARK    3  A    between atoms: C_9  and  N_10 
REMARK    4  A    between atoms: N_10  and  C_11 
REMARK    5  A    between atoms: C_15  and  O_16 
REMARK    6  A    between atoms: C_20  and  C_21 
REMARK    7  A    between atoms: C_21  and  C_22 
REMARK       I    between atoms: C_22  and  N_24 
REMARK    8  A    between atoms: N_24  and  C_25 
REMARK    9  A    between atoms: C_25  and  C_26 
REMARK   10  A    between atoms: C_35  and  O_36 
ROOT
ATOM      1  C   UNL d   1       3.867  -1.205  -0.203  0.00  0.00     0.020 C 
ATOM      2  C   UNL d   1       2.647   0.307  -0.096  0.00  0.00     0.008 C 
ATOM      3  C   UNL d   1       3.070   0.694  -1.450  0.00  0.00     0.012 C 
ATOM      4  C   UNL d   1       4.854   0.888  -1.177  0.00  0.00     0.054 C 
ATOM      5  C   UNL d   1       5.417  -0.208  -1.994  0.00  0.00     0.012 A 
ATOM      6  S   UNL d   1       6.886  -0.980  -1.565  0.00  0.00    -0.055 SA
ATOM      7  C   UNL d   1       6.375  -2.313  -2.523  0.00  0.00     0.171 A 
ATOM      8  N   UNL d   1       5.203  -2.190  -3.114  0.00  0.00    -0.227 NA
ATOM      9  C   UNL d   1       4.604  -1.014  -2.795  0.00  0.00     0.056 A 
ATOM     10  C   UNL d   1       3.009  -0.871  -2.978  0.00  0.00     0.055 C 
ATOM     11  C   UNL d   1       2.662   0.592  -2.800  0.00  0.00    -0.030 C 
ATOM     12  C   UNL d   1       1.166   0.924  -3.117  0.00  0.00     0.016 C 
ATOM     13  C   UNL d   1       3.505   1.867  -3.062  0.00  0.00     0.013 C 
ATOM     14  C   UNL d   1       3.285   2.888  -1.509  0.00  0.00     0.033 C 
ATOM     15  C   UNL d   1       3.132   1.900   0.174  0.00  0.00     0.128 C 
ENDROOT
BRANCH  10  16
ATOM     16  C   UNL d   1       1.843  -1.874  -1.964  0.00  0.00     0.108 C 
BRANCH  16  17
ATOM     17  C   UNL d   1       1.616  -2.073  -0.202  0.00  0.00     0.198 C 
ATOM     18  O   UNL d   1       2.190  -1.466   0.698  0.00  0.00    -0.280 OA
ATOM     19  N   UNL d   1       0.735  -2.657   0.603  0.00  0.00    -0.257 NA
ATOM     20  H   UNL d   1      -0.216  -2.641   0.292  0.00  0.00     0.130 HD
BRANCH  19  21
ATOM     21  C   UNL d   1       1.011  -2.220   2.134  0.00  0.00     0.160 C 
BRANCH  21  22
ATOM     22  C   UNL d   1      -0.010  -2.826   2.821  0.00  0.00     0.065 A 
ATOM     23  C   UNL d   1      -0.231  -4.176   2.769  0.00  0.00     0.036 A 
ATOM     24  C   UNL d   1      -1.468  -4.284   3.368  0.00  0.00     0.027 A 
ATOM     25  C   UNL d   1      -1.891  -3.013   3.716  0.00  0.00     0.142 A 
ATOM     26  O   UNL d   1      -0.976  -2.092   3.354  0.00  0.00    -0.326 OA
ENDBRANCH  21  22
ENDBRANCH  19  21
ENDBRANCH  16  17
ENDBRANCH  10  16
BRANCH   7  27
ATOM     27  N   UNL d   1       7.133  -3.420  -2.624  0.00  0.00    -0.335 N 
ATOM     28  H   UNL d   1       8.018  -3.478  -2.141  0.00  0.00     0.168 HD
BRANCH  27  29
ATOM     29  C   UNL d   1       6.901  -4.401  -3.599  0.00  0.00     0.036 A 
ATOM     30  C   UNL d   1       6.538  -4.075  -4.916  0.00  0.00     0.029 A 
ATOM     31  C   UNL d   1       6.320  -5.073  -5.866  0.00  0.00     0.005 A 
ATOM     32  C   UNL d   1       6.445  -6.415  -5.508  0.00  0.00     0.036 A 
ATOM     33  C   UNL d   1       6.781  -6.738  -4.197  0.00  0.00     0.067 A 
ATOM     34  C   UNL d   1       7.003  -5.746  -3.249  0.00  0.00     0.066 A 
BRANCH  33  35
ATOM     35  O   UNL d   1       6.919  -8.031  -3.782  0.00  0.00    -0.361 OA
ATOM     36  H   UNL d   1       6.777  -8.625  -4.536  0.00  0.00     0.217 HD
ENDBRANCH  33  35
ENDBRANCH  27  29
ENDBRANCH   7  27
BRANCH   2  37
ATOM     37  C   UNL d   1       0.841   0.376  -0.079  0.00  0.00     0.176 C 
BRANCH  37  38
ATOM     38  O   UNL d   1       0.179   0.407   1.179  0.00  0.00    -0.400 OA
ATOM     39  H   UNL d   1       0.782   0.801   1.824  0.00  0.00     0.209 HD
ENDBRANCH  37  38
ENDBRANCH   2  37
BRANCH  15  40
ATOM     40  O   UNL d   1       2.409   2.517   1.225  0.00  0.00    -0.395 OA
ATOM     41  H   UNL d   1       1.480   2.643   1.004  0.00  0.00     0.210 HD
ENDBRANCH  15  40
TORSDOF 10
