@<TRIPOS>MOLECULE
*****
 45 46 0 0 0
SMALL
GASTEIGER

@<TRIPOS>ATOM
      1 C           1.0543    0.0969    0.0136 C.3     1  UNL1       -0.0495
      2 C           2.5683    0.1374    0.0469 C.3     1  UNL1        0.0091
      3 N           3.1496    0.3761   -1.2798 N.am    1  UNL1       -0.3116
      4 C           4.5090    0.5094   -1.5295 C.2     1  UNL1        0.2441
      5 O           4.9220    1.4582   -2.1979 O.2     1  UNL1       -0.2702
      6 C           5.4509   -0.5623   -1.0889 C.ar    1  UNL1        0.0385
      7 C           6.8241   -0.4783   -1.2819 C.ar    1  UNL1       -0.0493
      8 C           7.6316   -1.5648   -0.9116 C.ar    1  UNL1       -0.0564
      9 C           7.0840   -2.7277   -0.3050 C.ar    1  UNL1       -0.0292
     10 C           8.0085   -3.8535    0.0550 C.3     1  UNL1       -0.0380
     11 C           5.6966   -2.8129   -0.1091 C.ar    1  UNL1        0.0384
     12 N           5.0509   -3.9271    0.5207 N.am    1  UNL1       -0.2676
     13 C           3.6841   -4.0205    0.8032 C.2     1  UNL1        0.3268
     14 O           2.8331   -3.1694    0.5493 O.2     1  UNL1       -0.2504
     15 N           3.3060   -5.2006    1.4048 N.am    1  UNL1       -0.1778
     16 O           1.9062   -5.2715    1.6650 O.3     1  UNL1       -0.2740
     17 C           1.5230   -6.4771    2.3242 C.3     1  UNL1        0.0983
     18 C           0.9149   -6.2218    3.6869 C.ar    1  UNL1       -0.0197
     19 C           0.6524   -7.3090    4.5378 C.ar    1  UNL1       -0.0563
     20 C           0.0779   -7.1102    5.7962 C.ar    1  UNL1       -0.0614
     21 C          -0.2515   -5.8241    6.2171 C.ar    1  UNL1       -0.0617
     22 C          -0.0077   -4.7374    5.3804 C.ar    1  UNL1       -0.0614
     23 C           0.5653   -4.9350    4.1215 C.ar    1  UNL1       -0.0563
     24 C           4.9362   -1.7572   -0.5944 C.ar    1  UNL1       -0.0281
     25 H           0.6724   -0.2345    0.9854 H       1  UNL1        0.0245
     26 H           0.6943   -0.6061   -0.7455 H       1  UNL1        0.0245
     27 H           0.6410    1.0847   -0.2037 H       1  UNL1        0.0245
     28 H           2.8855   -0.8093    0.4651 H       1  UNL1        0.0459
     29 H           2.9475    0.8942    0.7391 H       1  UNL1        0.0459
     30 H           2.6134    1.0041   -1.8645 H       1  UNL1        0.1490
     31 H           7.2616    0.3941   -1.7652 H       1  UNL1        0.0625
     32 H           8.7010   -1.5013   -1.1144 H       1  UNL1        0.0621
     33 H           9.0463   -3.6278   -0.2146 H       1  UNL1        0.0278
     34 H           7.7195   -4.7599   -0.4868 H       1  UNL1        0.0278
     35 H           7.9741   -4.0389    1.1319 H       1  UNL1        0.0278
     36 H           5.6431   -4.6780    0.8365 H       1  UNL1        0.1564
     37 H           3.9178   -5.9305    1.7278 H       1  UNL1        0.1841
     38 H           2.3735   -7.1585    2.4239 H       1  UNL1        0.0634
     39 H           0.7664   -6.9608    1.6949 H       1  UNL1        0.0634
     40 H           0.8913   -8.3231    4.2248 H       1  UNL1        0.0621
     41 H          -0.1154   -7.9588    6.4477 H       1  UNL1        0.0618
     42 H          -0.7025   -5.6677    7.1936 H       1  UNL1        0.0618
     43 H          -0.2653   -3.7322    5.7043 H       1  UNL1        0.0618
     44 H           0.7351   -4.0711    3.4806 H       1  UNL1        0.0621
     45 H           3.8753   -1.8884   -0.6751 H       1  UNL1        0.0644
@<TRIPOS>BOND
     1     1     2    1
     2     2     3    1
     3     3     4   am
     4     4     5    2
     5     4     6    1
     6     6     7   ar
     7     7     8   ar
     8     8     9   ar
     9     9    10    1
    10     9    11   ar
    11    11    12    1
    12    12    13   am
    13    13    14    2
    14    13    15   am
    15    15    16    1
    16    16    17    1
    17    17    18    1
    18    18    19   ar
    19    19    20   ar
    20    20    21   ar
    21    21    22   ar
    22    22    23   ar
    23    18    23   ar
    24    11    24   ar
    25     6    24   ar
    26     1    25    1
    27     1    26    1
    28     1    27    1
    29     2    28    1
    30     2    29    1
    31     3    30    1
    32     7    31    1
    33     8    32    1
    34    10    33    1
    35    10    34    1
    36    10    35    1
    37    12    36    1
    38    15    37    1
    39    17    38    1
    40    17    39    1
    41    19    40    1
    42    20    41    1
    43    21    42    1
    44    22    43    1
    45    23    44    1
    46    24    45    1
