REMARK  12 active torsions:
REMARK  status: ('A' for Active; 'I' for Inactive)
REMARK    1  A    between atoms: C_2  and  C_3 
REMARK    2  A    between atoms: C_3  and  C_4 
REMARK    3  A    between atoms: C_4  and  C_5 
REMARK    4  A    between atoms: C_5  and  C_6 
REMARK    5  A    between atoms: C_6  and  O_7 
REMARK    6  A    between atoms: O_7  and  C_8 
REMARK    7  A    between atoms: C_11  and  C_12 
REMARK       I    between atoms: C_12  and  N_14 
REMARK    8  A    between atoms: N_14  and  C_15 
REMARK    9  A    between atoms: C_15  and  N_17 
REMARK   10  A    between atoms: N_17  and  N_18 
REMARK       I    between atoms: N_18  and  C_19 
REMARK   11  A    between atoms: C_19  and  C_21 
REMARK   12  A    between atoms: C_21  and  N_22 
ROOT
ATOM      1  C   UNL d   1      15.219   3.221   3.725  0.00  0.00     0.193 C 
ATOM      2  S   UNL d   1      16.012   2.961   5.185  0.00  0.00    -0.039 SA
ENDROOT
BRANCH   1   3
ATOM      3  N   UNL d   1      13.769   3.108   3.571  0.00  0.00    -0.298 N 
ATOM      4  C   UNL d   1      12.774   2.760   4.575  0.00  0.00     0.257 C 
ATOM      5  O   UNL d   1      13.070   2.522   5.758  0.00  0.00    -0.267 OA
ATOM      6  H   UNL d   1      13.387   3.260   2.650  0.00  0.00     0.171 HD
BRANCH   4   7
ATOM      7  C   UNL d   1      11.280   2.609   4.285  0.00  0.00     0.032 A 
ATOM      8  C   UNL d   1      10.409   2.192   5.334  0.00  0.00     0.020 A 
ATOM      9  C   UNL d   1       9.045   1.903   5.117  0.00  0.00     0.038 A 
ATOM     10  C   UNL d   1       8.488   2.096   3.859  0.00  0.00     0.068 A 
ATOM     11  C   UNL d   1       9.313   2.563   2.832  0.00  0.00     0.038 A 
ATOM     12  C   UNL d   1      10.693   2.811   3.038  0.00  0.00     0.020 A 
BRANCH  10  13
ATOM     13  O   UNL d   1       7.133   1.916   3.753  0.00  0.00    -0.351 OA
BRANCH  13  14
ATOM     14  C   UNL d   1       6.671   1.373   2.514  0.00  0.00     0.175 C 
BRANCH  14  15
ATOM     15  C   UNL d   1       5.144   1.377   2.503  0.00  0.00     0.027 C 
BRANCH  15  16
ATOM     16  C   UNL d   1       4.610   0.728   1.229  0.00  0.00     0.002 C 
BRANCH  16  17
ATOM     17  C   UNL d   1       3.086   0.722   1.212  0.00  0.00    -0.000 C 
BRANCH  17  18
ATOM     18  C   UNL d   1       2.559   0.062  -0.058  0.00  0.00    -0.005 C 
ATOM     19  C   UNL d   1       1.041   0.057  -0.067  0.00  0.00     0.005 C 
ENDBRANCH  17  18
ENDBRANCH  16  17
ENDBRANCH  15  16
ENDBRANCH  14  15
ENDBRANCH  13  14
ENDBRANCH  10  13
ENDBRANCH   4   7
ENDBRANCH   1   3
BRANCH   1  20
ATOM     20  N   UNL d   1      15.999   3.571   2.548  0.00  0.00    -0.273 N 
ATOM     21  H   UNL d   1      15.609   3.771   1.631  0.00  0.00     0.189 HD
BRANCH  20  22
ATOM     22  N   UNL d   1      17.672   3.637   2.616  0.00  0.00    -0.266 N 
ATOM     23  C   UNL d   1      18.592   3.923   1.448  0.00  0.00     0.264 C 
ATOM     24  O   UNL d   1      18.070   4.225   0.397  0.00  0.00    -0.270 OA
ATOM     25  H   UNL d   1      17.960   3.526   3.586  0.00  0.00     0.190 HD
BRANCH  23  26
ATOM     26  C   UNL d   1      20.400   3.808   1.699  0.00  0.00     0.379 C 
BRANCH  26  27
ATOM     27  N   UNL d   1      21.729   4.282   0.634  0.00  0.00     0.129 NA
ATOM     28  C   UNL d   1      21.765   5.675   0.824  0.00  0.00     0.286 C 
ATOM     29  C   UNL d   1      21.904   5.832  -0.522  0.00  0.00     0.021 C 
ATOM     30  C   UNL d   1      23.234   5.461  -0.564  0.00  0.00    -0.014 A 
ATOM     31  C   UNL d   1      24.205   6.294  -1.293  0.00  0.00     0.010 A 
ATOM     32  C   UNL d   1      23.375   4.150   0.429  0.00  0.00     0.249 A 
ATOM     33  C   UNL d   1      25.560   6.197  -1.350  0.00  0.00     0.000 A 
ATOM     34  C   UNL d   1      25.965   5.157  -0.593  0.00  0.00    -0.001 A 
ATOM     35  C   UNL d   1      24.944   4.260   0.131  0.00  0.00     0.023 A 
ENDBRANCH  26  27
ENDBRANCH  23  26
ENDBRANCH  20  22
ENDBRANCH   1  20
TORSDOF 12
