@<TRIPOS>MOLECULE
*****
 49 49 0 0 0
SMALL
GASTEIGER

@<TRIPOS>ATOM
      1 C           1.2419    0.4853    0.0987 C.3     1  UNL1        0.0790
      2 O           2.5964    0.0295    0.0450 O.3     1  UNL1       -0.4913
      3 C           3.1347   -0.9427    0.8636 C.ar    1  UNL1        0.1650
      4 C           4.3837   -0.5725    1.4178 C.ar    1  UNL1        0.0262
      5 C           5.3093   -1.4985    2.0117 C.ar    1  UNL1        0.1359
      6 O           6.5299   -0.8883    2.2212 O.3     1  UNL1       -0.4942
      7 C           7.6249   -1.6971    2.6180 C.3     1  UNL1        0.0788
      8 C           4.9260   -2.8426    2.2097 C.ar    1  UNL1        0.0834
      9 C           5.7052   -3.9107    3.0097 C.2     1  UNL1        0.2638
     10 O           6.7014   -3.7159    3.6780 O.2     1  UNL1       -0.2685
     11 N           5.2517   -5.2205    3.0448 N.am    1  UNL1       -0.2310
     12 N           6.0419   -6.1280    3.8201 N.am    1  UNL1       -0.2456
     13 C           5.6254   -7.4249    4.0022 C.2     1  UNL1        0.1468
     14 S           4.1833   -7.9768    3.3244 S.2     1  UNL1       -0.0174
     15 N           6.4812   -8.2020    4.7698 N.am    1  UNL1       -0.3254
     16 C           6.2010   -9.6092    5.0118 C.3     1  UNL1        0.0109
     17 C           7.2350  -10.3741    5.8290 C.3     1  UNL1       -0.0351
     18 C           6.8154  -11.8514    6.0141 C.3     1  UNL1       -0.0453
     19 C           6.6626  -12.5773    4.6735 C.3     1  UNL1       -0.0626
     20 C           7.8425  -12.5897    6.8709 C.3     1  UNL1       -0.0626
     21 C           3.6867   -3.1989    1.6449 C.ar    1  UNL1       -0.0006
     22 C           2.8000   -2.2989    0.9798 C.ar    1  UNL1        0.1624
     23 O           1.7269   -3.0198    0.5121 O.3     1  UNL1       -0.4914
     24 C           0.6933   -2.2811   -0.0740 C.3     1  UNL1        0.0790
     25 H           1.1621    1.4531   -0.4075 H       1  UNL1        0.0660
     26 H           0.8511    0.5561    1.1160 H       1  UNL1        0.0660
     27 H           0.5638   -0.0875   -0.5344 H       1  UNL1        0.0660
     28 H           4.6856    0.4770    1.3544 H       1  UNL1        0.0692
     29 H           8.5815   -1.1810    2.5232 H       1  UNL1        0.0660
     30 H           7.7089   -2.5966    1.9922 H       1  UNL1        0.0660
     31 H           7.5236   -1.8645    3.6917 H       1  UNL1        0.0660
     32 H           4.3790   -5.5834    2.6864 H       1  UNL1        0.1731
     33 H           6.8888   -5.7214    4.2210 H       1  UNL1        0.1718
     34 H           7.3530   -7.8170    5.1148 H       1  UNL1        0.1478
     35 H           6.1057  -10.0646    4.0227 H       1  UNL1        0.0462
     36 H           5.2302   -9.6691    5.5166 H       1  UNL1        0.0462
     37 H           7.3505   -9.9001    6.8116 H       1  UNL1        0.0283
     38 H           8.2129  -10.3254    5.3356 H       1  UNL1        0.0283
     39 H           5.8488  -11.8840    6.5354 H       1  UNL1        0.0296
     40 H           7.6021  -12.5520    4.1115 H       1  UNL1        0.0232
     41 H           5.8827  -12.1282    4.0522 H       1  UNL1        0.0232
     42 H           6.3777  -13.6234    4.8219 H       1  UNL1        0.0232
     43 H           8.8254  -12.5890    6.3881 H       1  UNL1        0.0232
     44 H           7.5431  -13.6323    7.0253 H       1  UNL1        0.0232
     45 H           7.9434  -12.1198    7.8541 H       1  UNL1        0.0232
     46 H           3.3597   -4.2351    1.6579 H       1  UNL1        0.0664
     47 H          -0.1523   -2.8911   -0.3944 H       1  UNL1        0.0660
     48 H           1.0930   -1.8264   -0.9849 H       1  UNL1        0.0660
     49 H           0.2843   -1.6118    0.6896 H       1  UNL1        0.0660
@<TRIPOS>BOND
     1     1     2    1
     2     2     3    1
     3     3     4   ar
     4     4     5   ar
     5     5     6    1
     6     6     7    1
     7     5     8   ar
     8     8     9    1
     9     9    10    2
    10     9    11   am
    11    11    12    1
    12    12    13    1
    13    13    14    2
    14    13    15    1
    15    15    16    1
    16    16    17    1
    17    17    18    1
    18    18    19    1
    19    18    20    1
    20     8    21   ar
    21    21    22   ar
    22     3    22   ar
    23    22    23    1
    24    23    24    1
    25     1    25    1
    26     1    26    1
    27     1    27    1
    28     4    28    1
    29     7    29    1
    30     7    30    1
    31     7    31    1
    32    11    32    1
    33    12    33    1
    34    15    34    1
    35    16    35    1
    36    16    36    1
    37    17    37    1
    38    17    38    1
    39    18    39    1
    40    19    40    1
    41    19    41    1
    42    19    42    1
    43    20    43    1
    44    20    44    1
    45    20    45    1
    46    21    46    1
    47    24    47    1
    48    24    48    1
    49    24    49    1
