REMARK  6 active torsions:
REMARK  status: ('A' for Active; 'I' for Inactive)
REMARK    1  A    between atoms: C_5  and  N_6 
REMARK       I    between atoms: N_6  and  C_7 
REMARK    2  A    between atoms: C_7  and  C_9 
REMARK       I    between atoms: C_9  and  N_11 
REMARK    3  A    between atoms: N_11  and  C_12 
REMARK    4  A    between atoms: C_12  and  C_13 
REMARK    5  A    between atoms: C_20  and  C_21 
REMARK       I    between atoms: C_21  and  N_23 
REMARK    6  A    between atoms: N_23  and  C_24 
ROOT
ATOM      1  N   UNL d   1      -3.273   0.137  -0.035  0.00  0.00    -0.319 N 
ATOM      2  C   UNL d   1      -4.051   1.292  -0.057  0.00  0.00     0.313 C 
ATOM      3  O   UNL d   1      -3.667   2.458  -0.051  0.00  0.00    -0.262 OA
ATOM      4  H   UNL d   1      -3.787  -0.741  -0.050  0.00  0.00     0.169 HD
ENDROOT
BRANCH   1   5
ATOM      5  C   UNL d   1      -1.846   0.088  -0.010  0.00  0.00     0.036 A 
ATOM      6  C   UNL d   1      -1.192  -1.147  -0.001  0.00  0.00     0.030 A 
ATOM      7  C   UNL d   1       0.213  -1.209   0.006  0.00  0.00     0.010 A 
ATOM      8  C   UNL d   1       1.008  -0.047  -0.003  0.00  0.00    -0.046 A 
ATOM      9  C   UNL d   1       2.495  -0.226  -0.012  0.00  0.00     0.049 C 
ATOM     10  C   UNL d   1       0.372   1.208  -0.012  0.00  0.00     0.040 A 
ATOM     11  C   UNL d   1      -1.045   1.240  -0.004  0.00  0.00     0.047 A 
BRANCH  10  12
ATOM     12  C   UNL d   1       1.049   2.567  -0.046  0.00  0.00     0.252 C 
ATOM     13  O   UNL d   1       0.359   3.582  -0.089  0.00  0.00    -0.268 OA
ATOM     14  N   UNL d   1       2.427   2.645  -0.020  0.00  0.00    -0.353 N 
ATOM     15  H   UNL d   1       3.001   1.835  -0.002  0.00  0.00     0.163 HD
BRANCH  14  16
ATOM     16  C   UNL d   1       3.197   3.873   0.008  0.00  0.00     0.076 C 
ATOM     17  C   UNL d   1       2.879   4.664   1.268  0.00  0.00     0.032 C 
ATOM     18  C   UNL d   1       4.696   3.536  -0.014  0.00  0.00     0.032 C 
ENDBRANCH  14  16
ENDBRANCH  10  12
ENDBRANCH   1   5
BRANCH   2  19
ATOM     19  C   UNL d   1      -5.599   1.090  -0.092  0.00  0.00     0.309 C 
ATOM     20  O   UNL d   1      -6.099  -0.026  -0.103  0.00  0.00    -0.262 OA
ATOM     21  N   UNL d   1      -6.268   2.291  -0.107  0.00  0.00    -0.348 N 
ATOM     22  H   UNL d   1      -5.630   3.070  -0.094  0.00  0.00     0.163 HD
BRANCH  21  23
ATOM     23  C   UNL d   1      -7.701   2.514  -0.136  0.00  0.00     0.169 C 
BRANCH  23  24
ATOM     24  C   UNL d   1      -8.096   3.990  -0.144  0.00  0.00     0.006 A 
ATOM     25  S   UNL d   1      -9.789   4.371  -0.204  0.00  0.00    -0.104 SA
ATOM     26  C   UNL d   1      -9.506   6.056  -0.193  0.00  0.00     0.051 A 
ATOM     27  C   UNL d   1      -8.165   6.340  -0.139  0.00  0.00     0.015 A 
ATOM     28  C   UNL d   1      -7.345   5.164  -0.110  0.00  0.00    -0.047 A 
ATOM     29  C   UNL d   1      -5.862   5.261  -0.051  0.00  0.00     0.049 C 
ENDBRANCH  23  24
ENDBRANCH  21  23
ENDBRANCH   2  19
TORSDOF 6
