REMARK  5 active torsions:
REMARK  status: ('A' for Active; 'I' for Inactive)
REMARK       I    between atoms: N_2  and  C_3 
REMARK       I    between atoms: C_3  and  N_5 
REMARK       I    between atoms: N_5  and  C_6 
REMARK    1  A    between atoms: C_6  and  C_8 
REMARK    2  A    between atoms: C_8  and  N_9 
REMARK    3  A    between atoms: N_9  and  C_10 
REMARK    4  A    between atoms: C_14  and  C_15 
REMARK       I    between atoms: C_15  and  N_17 
REMARK    5  A    between atoms: N_17  and  C_18 
ROOT
ATOM      1  C   UNL d   1       8.800  -3.769   1.912  0.00  0.00     0.029 A 
ATOM      2  C   UNL d   1       9.362  -5.040   1.715  0.00  0.00     0.029 A 
ATOM      3  C   UNL d   1      10.709  -5.298   1.996  0.00  0.00     0.003 A 
ATOM      4  C   UNL d   1      11.529  -4.268   2.442  0.00  0.00     0.017 A 
ATOM      5  C   UNL d   1      10.992  -2.991   2.655  0.00  0.00     0.034 A 
ATOM      6  C   UNL d   1       9.638  -2.756   2.375  0.00  0.00     0.046 A 
ENDROOT
BRANCH   1   7
ATOM      7  N   UNL d   1       7.463  -3.558   1.632  0.00  0.00    -0.381 N 
ATOM      8  H   UNL d   1       6.797  -4.207   2.062  0.00  0.00     0.160 HD
BRANCH   7   9
ATOM      9  C   UNL d   1       6.875  -2.286   1.168  0.00  0.00     0.223 C 
BRANCH   9  10
ATOM     10  C   UNL d   1       5.325  -2.364   1.218  0.00  0.00     0.243 C 
ATOM     11  N   UNL d   1       4.606  -1.288   0.691  0.00  0.00    -0.278 N 
ATOM     12  C   UNL d   1       3.223  -1.272   0.681  0.00  0.00     0.322 C 
ATOM     13  H   UNL d   1       5.096  -0.507   0.286  0.00  0.00     0.173 HD
ATOM     14  N   UNL d   1       2.631  -0.154   0.124  0.00  0.00    -0.347 N 
ATOM     15  O   UNL d   1       2.512  -2.168   1.133  0.00  0.00    -0.247 OA
ATOM     16  C   UNL d   1       1.174  -0.080   0.085  0.00  0.00     0.151 C 
ATOM     17  H   UNL d   1       3.154   0.614  -0.268  0.00  0.00     0.163 HD
ATOM     18  O   UNL d   1       4.805  -3.355   1.738  0.00  0.00    -0.271 OA
ENDBRANCH   9  10
ENDBRANCH   7   9
ENDBRANCH   1   7
BRANCH   5  19
ATOM     19  C   UNL d   1      11.885  -1.941   3.215  0.00  0.00     0.252 C 
ATOM     20  O   UNL d   1      13.064  -2.230   3.426  0.00  0.00    -0.268 OA
ATOM     21  N   UNL d   1      11.350  -0.692   3.488  0.00  0.00    -0.349 N 
ATOM     22  H   UNL d   1      10.372  -0.509   3.333  0.00  0.00     0.163 HD
BRANCH  21  23
ATOM     23  C   UNL d   1      12.140   0.405   4.060  0.00  0.00     0.022 C 
ATOM     24  C   UNL d   1      12.675   0.009   5.444  0.00  0.00     0.037 C 
ATOM     25  C   UNL d   1      13.289   0.768   3.111  0.00  0.00     0.037 C 
ATOM     26  C   UNL d   1      11.252   1.654   4.234  0.00  0.00     0.037 C 
ENDBRANCH  21  23
ENDBRANCH   5  19
TORSDOF 5
