@<TRIPOS>MOLECULE
*****
 31 32 0 0 0
SMALL
GASTEIGER

@<TRIPOS>ATOM
      1 O           1.0733    0.0399    0.0829 O.2     1  UNL1       -0.2740
      2 C           2.3096    0.0361    0.0300 C.2     1  UNL1        0.2321
      3 N           3.0825    0.7483    0.9416 N.am    1  UNL1       -0.2363
      4 N           2.3945    1.5111    1.9176 N.pl3   1  UNL1       -0.2644
      5 C           3.1260    2.0724    2.9807 C.ar    1  UNL1        0.0458
      6 C           4.2380    2.8885    2.7289 C.ar    1  UNL1       -0.0393
      7 C           4.9546    3.4941    3.7702 C.ar    1  UNL1       -0.0586
      8 C           4.5964    3.2592    5.0944 C.ar    1  UNL1       -0.0433
      9 C           3.5079    2.4345    5.3655 C.ar    1  UNL1        0.0428
     10 CL          3.0850    2.1224    7.0080 Cl      1  UNL1       -0.0835
     11 C           2.7677    1.8547    4.3222 C.ar    1  UNL1       -0.0210
     12 C           3.0695   -0.7366   -1.0599 C.3     1  UNL1        0.0370
     13 C           2.6161   -2.1994   -1.1529 C.3     1  UNL1       -0.0419
     14 C           2.9921   -2.6520   -2.5608 C.3     1  UNL1       -0.0523
     15 C           2.9384   -1.3975   -3.4236 C.3     1  UNL1       -0.0523
     16 C           2.7164   -0.2255   -2.4649 C.3     1  UNL1       -0.0419
     17 H           4.0934    0.6852    1.0036 H       1  UNL1        0.1727
     18 H           1.4271    1.2199    2.0775 H       1  UNL1        0.1700
     19 H           4.5142    3.1129    1.7022 H       1  UNL1        0.0636
     20 H           5.7860    4.1572    3.5444 H       1  UNL1        0.0619
     21 H           5.1630    3.7190    5.9015 H       1  UNL1        0.0632
     22 H           1.9139    1.2304    4.5713 H       1  UNL1        0.0651
     23 H           4.1535   -0.6850   -0.9004 H       1  UNL1        0.0395
     24 H           1.5291   -2.2812   -1.0314 H       1  UNL1        0.0272
     25 H           3.0779   -2.8318   -0.3888 H       1  UNL1        0.0272
     26 H           2.3118   -3.4274   -2.9317 H       1  UNL1        0.0265
     27 H           4.0031   -3.0762   -2.5778 H       1  UNL1        0.0265
     28 H           2.1267   -1.4580   -4.1585 H       1  UNL1        0.0265
     29 H           3.8704   -1.2821   -3.9891 H       1  UNL1        0.0265
     30 H           1.6625    0.0749   -2.5158 H       1  UNL1        0.0272
     31 H           3.3118    0.6463   -2.7527 H       1  UNL1        0.0272
@<TRIPOS>BOND
     1     1     2    2
     2     2     3   am
     3     3     4    1
     4     4     5    1
     5     5     6   ar
     6     6     7   ar
     7     7     8   ar
     8     8     9   ar
     9     9    10    1
    10     9    11   ar
    11     5    11   ar
    12     2    12    1
    13    12    13    1
    14    13    14    1
    15    14    15    1
    16    15    16    1
    17    12    16    1
    18     3    17    1
    19     4    18    1
    20     6    19    1
    21     7    20    1
    22     8    21    1
    23    11    22    1
    24    12    23    1
    25    13    24    1
    26    13    25    1
    27    14    26    1
    28    14    27    1
    29    15    28    1
    30    15    29    1
    31    16    30    1
    32    16    31    1
