REMARK  5 active torsions:
REMARK  status: ('A' for Active; 'I' for Inactive)
REMARK    1  A    between atoms: C_2  and  C_4 
REMARK    2  A    between atoms: C_7  and  N_8 
REMARK    3  A    between atoms: N_11  and  C_12 
REMARK    4  A    between atoms: C_12  and  C_13 
REMARK    5  A    between atoms: C_18  and  O_19 
ROOT
ATOM      1  N   UNL d   1       4.999   4.759  -1.893  0.00  0.00    -0.375 N 
ATOM      2  C   UNL d   1       5.069   4.921  -3.346  0.00  0.00     0.150 C 
ATOM      3  C   UNL d   1       6.522   4.824  -3.864  0.00  0.00     0.255 C 
ATOM      4  N   UNL d   1       7.449   5.819  -3.137  0.00  0.00    -0.064 N 
ATOM      5  C   UNL d   1       7.247   5.719  -1.599  0.00  0.00     0.255 C 
ATOM      6  C   UNL d   1       5.768   5.755  -1.156  0.00  0.00     0.150 C 
ATOM      7  H   UNL d   1       7.199   6.772  -3.431  0.00  0.00     0.280 HD
ENDROOT
BRANCH   4   8
ATOM      8  C   UNL d   1       8.918   5.642  -3.605  0.00  0.00     0.276 C 
BRANCH   8   9
ATOM      9  C   UNL d   1       9.857   6.681  -3.061  0.00  0.00     0.001 C 
ATOM     10  C   UNL d   1      10.018   6.793  -1.688  0.00  0.00     0.019 C 
ATOM     11  C   UNL d   1      10.605   7.950  -1.284  0.00  0.00    -0.051 C 
ATOM     12  C   UNL d   1      10.986   9.036  -1.997  0.00  0.00    -0.049 C 
ATOM     13  C   UNL d   1      11.209   8.707  -0.284  0.00  0.00     0.039 C 
ATOM     14  C   UNL d   1      11.330   8.630  -3.327  0.00  0.00     0.044 C 
ATOM     15  C   UNL d   1      11.627  10.312  -0.632  0.00  0.00     0.039 C 
ATOM     16  C   UNL d   1      10.633   7.535  -3.875  0.00  0.00     0.074 C 
ATOM     17  C   UNL d   1      12.442   9.643  -1.538  0.00  0.00     0.009 C 
BRANCH  16  18
ATOM     18  O   UNL d   1      10.659   7.342  -5.224  0.00  0.00    -0.360 OA
ATOM     19  H   UNL d   1      11.239   8.024  -5.619  0.00  0.00     0.217 HD
ENDBRANCH  16  18
ENDBRANCH   8   9
ENDBRANCH   4   8
BRANCH   1  20
ATOM     20  C   UNL d   1       4.513   3.577  -1.353  0.00  0.00     0.069 A 
ATOM     21  C   UNL d   1       3.470   3.611  -0.417  0.00  0.00     0.033 A 
ATOM     22  C   UNL d   1       2.804   2.439  -0.006  0.00  0.00     0.017 A 
ATOM     23  C   UNL d   1       3.196   1.190  -0.490  0.00  0.00     0.012 A 
ATOM     24  C   UNL d   1       4.276   1.113  -1.368  0.00  0.00     0.059 A 
ATOM     25  C   UNL d   1       4.901   2.292  -1.795  0.00  0.00     0.143 A 
ATOM     26  F   UNL d   1       5.905   2.175  -2.678  0.00  0.00    -0.204 F 
BRANCH  23  27
ATOM     27  C   UNL d   1       2.488  -0.050  -0.068  0.00  0.00     0.155 C 
ATOM     28  C   UNL d   1       0.977  -0.042  -0.059  0.00  0.00     0.096 C 
ATOM     29  O   UNL d   1       3.144  -1.044   0.224  0.00  0.00    -0.293 OA
ENDBRANCH  23  27
ENDBRANCH   1  20
TORSDOF 5
