@<TRIPOS>MOLECULE
*****
 48 49 0 0 0
SMALL
GASTEIGER

@<TRIPOS>ATOM
      1 C          16.4948   -8.0906    4.7614 C.3     1  UNL1       -0.0307
      2 C          15.6405   -9.2724    4.3536 C.3     1  UNL1        0.0868
      3 O          16.5114  -10.3415    3.9783 O.3     1  UNL1       -0.4922
      4 C          15.8926  -11.4427    3.4526 C.ar    1  UNL1        0.1212
      5 C          16.4762  -12.6806    3.7309 C.ar    1  UNL1       -0.0199
      6 C          15.9903  -13.8354    3.1229 C.ar    1  UNL1       -0.0576
      7 C          14.8858  -13.7488    2.2727 C.ar    1  UNL1       -0.0494
      8 C          14.2986  -12.4994    1.9750 C.ar    1  UNL1        0.0405
      9 C          13.1857  -12.4477    0.9746 C.2     1  UNL1        0.2497
     10 O          12.9325  -13.5025    0.4192 O.2     1  UNL1       -0.2698
     11 N          12.5695  -11.1996    0.6559 N.am    1  UNL1       -0.2627
     12 C          11.2652  -11.0413    0.1624 C.2     1  UNL1        0.1533
     13 S          10.1981  -12.3284   -0.0063 S.2     1  UNL1       -0.0170
     14 N          10.8696   -9.7047   -0.1032 N.am    1  UNL1       -0.2454
     15 N           9.5535   -9.4634   -0.7457 N.am    1  UNL1       -0.2321
     16 C           9.3141   -8.3026   -1.4922 C.2     1  UNL1        0.2695
     17 O           9.9437   -7.2624   -1.2900 O.2     1  UNL1       -0.2702
     18 C           8.2292   -8.4076   -2.6779 C.3     1  UNL1        0.1741
     19 C           7.2699   -7.2022   -2.5007 C.3     1  UNL1       -0.0190
     20 O           7.4419   -9.5713   -2.9370 O.3     1  UNL1       -0.4784
     21 C           8.0077  -10.7553   -3.3499 C.ar    1  UNL1        0.1399
     22 C           7.1018  -11.7177   -3.8247 C.ar    1  UNL1       -0.0171
     23 C           7.4818  -13.0668   -3.9760 C.ar    1  UNL1       -0.0398
     24 C           8.7543  -13.4718   -3.6012 C.ar    1  UNL1        0.0426
     25 CL          9.2945  -15.0918   -3.7796 Cl      1  UNL1       -0.0835
     26 C           9.6769  -12.5179   -3.2380 C.ar    1  UNL1       -0.0215
     27 C           9.3421  -11.1643   -3.2668 C.ar    1  UNL1        0.0839
     28 CL         10.7223  -10.1308   -3.3888 Cl      1  UNL1       -0.0797
     29 C          14.8092  -11.3569    2.5784 C.ar    1  UNL1       -0.0078
     30 H          15.8674   -7.2702    5.1198 H       1  UNL1        0.0262
     31 H          17.0835   -7.7335    3.9089 H       1  UNL1        0.0262
     32 H          17.2007   -8.3776    5.5451 H       1  UNL1        0.0262
     33 H          14.9976   -8.9364    3.5342 H       1  UNL1        0.0694
     34 H          15.0187   -9.6008    5.1928 H       1  UNL1        0.0694
     35 H          17.3141  -12.7460    4.4208 H       1  UNL1        0.0654
     36 H          16.4803  -14.7937    3.2877 H       1  UNL1        0.0619
     37 H          14.4996  -14.6670    1.8285 H       1  UNL1        0.0625
     38 H          12.9651  -10.3646    1.0460 H       1  UNL1        0.1569
     39 H          11.4936   -8.8986   -0.1218 H       1  UNL1        0.1718
     40 H           9.1794  -10.3234   -1.1321 H       1  UNL1        0.1729
     41 H           8.7416   -8.1980   -3.6264 H       1  UNL1        0.0829
     42 H           6.7961   -7.2217   -1.5133 H       1  UNL1        0.0270
     43 H           6.4619   -7.1759   -3.2438 H       1  UNL1        0.0270
     44 H           7.8175   -6.2535   -2.5789 H       1  UNL1        0.0270
     45 H           6.1097  -11.4112   -4.1541 H       1  UNL1        0.0655
     46 H           6.7949  -13.7932   -4.4004 H       1  UNL1        0.0633
     47 H          10.6832  -12.8203   -2.9570 H       1  UNL1        0.0648
     48 H          14.3998  -10.3922    2.3363 H       1  UNL1        0.0662
@<TRIPOS>BOND
     1     1     2    1
     2     2     3    1
     3     3     4    1
     4     4     5   ar
     5     5     6   ar
     6     6     7   ar
     7     7     8   ar
     8     8     9    1
     9     9    10    2
    10     9    11   am
    11    11    12    1
    12    12    13    2
    13    12    14    1
    14    14    15    1
    15    15    16   am
    16    16    17    2
    17    18    20    1
    18    20    21    1
    19    21    22   ar
    20    22    23   ar
    21    23    24   ar
    22    24    25    1
    23    24    26   ar
    24    26    27   ar
    25    21    27   ar
    26    27    28    1
    27     8    29   ar
    28     4    29   ar
    29    18    19    1
    30    18    16    1
    31     1    30    1
    32     1    31    1
    33     1    32    1
    34     2    33    1
    35     2    34    1
    36     5    35    1
    37     6    36    1
    38     7    37    1
    39    11    38    1
    40    14    39    1
    41    15    40    1
    42    18    41    1
    43    19    42    1
    44    19    43    1
    45    19    44    1
    46    22    45    1
    47    23    46    1
    48    26    47    1
    49    29    48    1
