@<TRIPOS>MOLECULE
*****
 27 27 0 0 0
SMALL
GASTEIGER

@<TRIPOS>ATOM
      1 O           1.0462    0.0801   -0.0541 O.2     1  UNL1       -0.2708
      2 C           2.2738    0.0393   -0.0871 C.2     1  UNL1        0.2370
      3 C           3.0188   -0.9561   -0.8978 C.2     1  UNL1        0.0007
      4 C           2.3763   -1.8630   -1.6484 C.2     1  UNL1       -0.0497
      5 C           3.0873   -2.8479   -2.4753 C.ar    1  UNL1       -0.0249
      6 C           2.6470   -3.0866   -3.7822 C.ar    1  UNL1       -0.0546
      7 C           3.2490   -4.0758   -4.5649 C.ar    1  UNL1       -0.0612
      8 C           4.3383   -4.7910   -4.0720 C.ar    1  UNL1       -0.0617
      9 C           4.7912   -4.5571   -2.7757 C.ar    1  UNL1       -0.0612
     10 C           4.1588   -3.6016   -1.9753 C.ar    1  UNL1       -0.0546
     11 N           3.0109    0.9303    0.6407 N.am    1  UNL1       -0.3096
     12 C           4.4561    1.0288    0.7021 C.3     1  UNL1        0.0351
     13 C           4.9664    2.1440    1.6074 C.3     1  UNL1        0.0597
     14 O           6.3900    2.1640    1.6074 O.3     1  UNL1       -0.3935
     15 H           4.0981   -0.9269   -0.8905 H       1  UNL1        0.0669
     16 H           1.2891   -1.8897   -1.6867 H       1  UNL1        0.0625
     17 H           1.8363   -2.4979   -4.2060 H       1  UNL1        0.0623
     18 H           2.8635   -4.2911   -5.5581 H       1  UNL1        0.0618
     19 H           4.8312   -5.5311   -4.6973 H       1  UNL1        0.0618
     20 H           5.6264   -5.1304   -2.3816 H       1  UNL1        0.0618
     21 H           4.5073   -3.4606   -0.9553 H       1  UNL1        0.0623
     22 H           2.4426    1.5965    1.1527 H       1  UNL1        0.1491
     23 H           4.8377    1.1746   -0.3150 H       1  UNL1        0.0485
     24 H           4.8456    0.0659    1.0528 H       1  UNL1        0.0485
     25 H           4.6174    2.0120    2.6365 H       1  UNL1        0.0573
     26 H           4.6136    3.1182    1.2546 H       1  UNL1        0.0573
     27 H           6.7026    1.3121    1.9587 H       1  UNL1        0.2095
@<TRIPOS>BOND
     1     1     2    2
     2     2     3    1
     3     3     4    2
     4     4     5    1
     5     5     6   ar
     6     6     7   ar
     7     7     8   ar
     8     8     9   ar
     9     9    10   ar
    10     5    10   ar
    11     2    11   am
    12    11    12    1
    13    12    13    1
    14    13    14    1
    15     3    15    1
    16     4    16    1
    17     6    17    1
    18     7    18    1
    19     8    19    1
    20     9    20    1
    21    10    21    1
    22    11    22    1
    23    12    23    1
    24    12    24    1
    25    13    25    1
    26    13    26    1
    27    14    27    1
