REMARK  7 active torsions:
REMARK  status: ('A' for Active; 'I' for Inactive)
REMARK    1  A    between atoms: C_2  and  O_3 
REMARK    2  A    between atoms: O_3  and  C_4 
REMARK       I    between atoms: C_4  and  N_6 
REMARK    3  A    between atoms: C_9  and  N_10 
REMARK       I    between atoms: N_10  and  C_11 
REMARK    4  A    between atoms: C_11  and  C_13 
REMARK    5  A    between atoms: C_13  and  S_14 
REMARK    6  A    between atoms: S_14  and  C_15 
REMARK    7  A    between atoms: N_25  and  C_26 
ROOT
ATOM      1  C   UNL d   1       7.487   3.519 -10.407  0.00  0.00     0.177 A 
ATOM      2  N   UNL d   1       7.175   2.418 -11.039  0.00  0.00    -0.222 NA
ATOM      3  C   UNL d   1       6.864   2.574 -12.391  0.00  0.00     0.093 A 
ATOM      4  C   UNL d   1       6.614   1.572 -13.354  0.00  0.00     0.059 C 
ATOM      5  C   UNL d   1       6.601   2.196 -14.600  0.00  0.00     0.008 C 
ATOM      6  C   UNL d   1       6.697   1.612 -15.985  0.00  0.00     0.068 C 
ATOM      7  N   UNL d   1       6.524   3.560 -14.336  0.00  0.00    -0.354 N 
ATOM      8  C   UNL d   1       6.828   3.788 -13.008  0.00  0.00     0.131 A 
ATOM      9  C   UNL d   1       7.094   5.013 -12.313  0.00  0.00     0.283 A 
ATOM     10  O   UNL d   1       7.007   6.110 -12.878  0.00  0.00    -0.265 OA
ATOM     11  N   UNL d   1       7.484   4.820 -10.973  0.00  0.00    -0.255 N 
ATOM     12  H   UNL d   1       6.348   4.290 -15.018  0.00  0.00     0.166 HD
ENDROOT
BRANCH   1  13
ATOM     13  S   UNL d   1       8.070   3.274  -8.742  0.00  0.00    -0.082 SA
BRANCH  13  14
ATOM     14  C   UNL d   1       6.731   3.776  -7.591  0.00  0.00     0.185 C 
BRANCH  14  15
ATOM     15  C   UNL d   1       7.228   3.688  -6.115  0.00  0.00     0.227 C 
ATOM     16  N   UNL d   1       6.269   3.876  -5.115  0.00  0.00    -0.356 N 
ATOM     17  H   UNL d   1       5.338   4.181  -5.367  0.00  0.00     0.162 HD
ATOM     18  O   UNL d   1       8.398   3.455  -5.814  0.00  0.00    -0.273 OA
BRANCH  16  19
ATOM     19  C   UNL d   1       6.606   3.753  -3.671  0.00  0.00     0.087 C 
ATOM     20  C   UNL d   1       7.116   2.344  -3.307  0.00  0.00     0.045 C 
ATOM     21  C   UNL d   1       5.983   1.325  -3.343  0.00  0.00     0.130 C 
ATOM     22  N   UNL d   1       4.862   1.710  -2.491  0.00  0.00    -0.328 N 
ATOM     23  C   UNL d   1       4.479   0.926  -1.407  0.00  0.00     0.362 C 
ATOM     24  C   UNL d   1       4.310   3.028  -2.767  0.00  0.00     0.130 C 
ATOM     25  O   UNL d   1       5.264   0.224  -0.775  0.00  0.00    -0.238 OA
ATOM     26  C   UNL d   1       5.420   4.098  -2.737  0.00  0.00     0.045 C 
BRANCH  23  27
ATOM     27  O   UNL d   1       3.129   0.950  -1.165  0.00  0.00    -0.304 OA
BRANCH  27  28
ATOM     28  C   UNL d   1       2.662   0.050  -0.128  0.00  0.00     0.176 C 
ATOM     29  C   UNL d   1       1.135   0.003  -0.104  0.00  0.00     0.034 C 
ENDBRANCH  27  28
ENDBRANCH  23  27
ENDBRANCH  16  19
ENDBRANCH  14  15
ENDBRANCH  13  14
ENDBRANCH   1  13
BRANCH  11  30
ATOM     30  C   UNL d   1       7.835   5.973 -10.202  0.00  0.00     0.044 C 
ATOM     31  C   UNL d   1       6.834   6.869  -9.810  0.00  0.00     0.030 C 
ATOM     32  C   UNL d   1       7.076   7.755  -8.757  0.00  0.00     0.002 C 
ATOM     33  C   UNL d   1       8.375   7.952  -8.295  0.00  0.00     0.000 C 
ATOM     34  C   UNL d   1       9.415   7.186  -8.812  0.00  0.00     0.002 C 
ATOM     35  C   UNL d   1       9.133   6.147  -9.703  0.00  0.00     0.030 C 
ENDBRANCH  11  30
TORSDOF 7
