REMARK  9 active torsions:
REMARK  status: ('A' for Active; 'I' for Inactive)
REMARK    1  A    between atoms: C_2  and  S_3 
REMARK    2  A    between atoms: C_2  and  C_11 
REMARK    3  A    between atoms: S_3  and  C_4 
REMARK    4  A    between atoms: C_4  and  C_5 
REMARK       I    between atoms: C_11  and  N_13 
REMARK    5  A    between atoms: N_13  and  N_14 
REMARK    6  A    between atoms: C_15  and  C_16 
REMARK    7  A    between atoms: C_17  and  O_18 
REMARK    8  A    between atoms: C_20  and  O_21 
REMARK    9  A    between atoms: C_23  and  O_24 
ROOT
ATOM      1  C   UNL d   1       2.958   0.462  -1.420  0.00  0.00     0.251 C 
ATOM      2  O   UNL d   1       2.135   0.823  -2.274  0.00  0.00    -0.270 OA
ATOM      3  N   UNL d   1       4.339   0.538  -1.614  0.00  0.00    -0.246 N 
ATOM      4  H   UNL d   1       4.990   0.227  -0.902  0.00  0.00     0.192 HD
ENDROOT
BRANCH   3   5
ATOM      5  N   UNL d   1       4.791   0.962  -2.835  0.00  0.00    -0.184 NA
ATOM      6  C   UNL d   1       6.062   1.027  -3.066  0.00  0.00     0.155 C 
BRANCH   6   7
ATOM      7  C   UNL d   1       6.567   1.537  -4.372  0.00  0.00     0.049 A 
ATOM      8  C   UNL d   1       7.614   0.910  -5.066  0.00  0.00     0.082 A 
ATOM      9  C   UNL d   1       8.103   1.450  -6.266  0.00  0.00     0.074 A 
ATOM     10  C   UNL d   1       7.497   2.581  -6.806  0.00  0.00     0.071 A 
ATOM     11  C   UNL d   1       6.462   3.219  -6.134  0.00  0.00     0.074 A 
ATOM     12  C   UNL d   1       6.015   2.708  -4.913  0.00  0.00     0.082 A 
BRANCH   8  13
ATOM     13  O   UNL d   1       8.204  -0.258  -4.664  0.00  0.00    -0.360 OA
ATOM     14  H   UNL d   1       7.617  -0.725  -4.046  0.00  0.00     0.217 HD
ENDBRANCH   8  13
BRANCH  10  15
ATOM     15  O   UNL d   1       7.884   3.104  -8.005  0.00  0.00    -0.361 OA
ATOM     16  H   UNL d   1       8.504   2.494  -8.438  0.00  0.00     0.217 HD
ENDBRANCH  10  15
BRANCH  12  17
ATOM     17  O   UNL d   1       5.069   3.404  -4.212  0.00  0.00    -0.360 OA
ATOM     18  H   UNL d   1       4.623   4.037  -4.795  0.00  0.00     0.217 HD
ENDBRANCH  12  17
ENDBRANCH   6   7
ENDBRANCH   3   5
BRANCH   1  19
ATOM     19  C   UNL d   1       2.492  -0.069  -0.043  0.00  0.00     0.137 C 
ATOM     20  C   UNL d   1       0.959  -0.067   0.012  0.00  0.00     0.031 C 
BRANCH  19  21
ATOM     21  S   UNL d   1       3.192  -1.762   0.186  0.00  0.00    -0.150 SA
BRANCH  21  22
ATOM     22  C   UNL d   1       2.476  -2.276   1.787  0.00  0.00     0.113 C 
BRANCH  22  23
ATOM     23  C   UNL d   1       2.913  -3.685   2.125  0.00  0.00    -0.049 A 
ATOM     24  C   UNL d   1       2.300  -4.788   1.508  0.00  0.00     0.008 A 
ATOM     25  C   UNL d   1       2.653  -6.090   1.868  0.00  0.00     0.001 A 
ATOM     26  C   UNL d   1       3.670  -6.305   2.795  0.00  0.00     0.000 A 
ATOM     27  C   UNL d   1       4.315  -5.219   3.384  0.00  0.00     0.001 A 
ATOM     28  C   UNL d   1       3.935  -3.916   3.057  0.00  0.00     0.008 A 
ENDBRANCH  22  23
ENDBRANCH  21  22
ENDBRANCH  19  21
ENDBRANCH   1  19
TORSDOF 9
