REMARK  7 active torsions:
REMARK  status: ('A' for Active; 'I' for Inactive)
REMARK    1  A    between atoms: C_6  and  C_7 
REMARK    2  A    between atoms: C_12  and  C_13 
REMARK    3  A    between atoms: N_20  and  C_21 
REMARK    4  A    between atoms: C_21  and  C_22 
REMARK    5  A    between atoms: C_22  and  C_23 
REMARK    6  A    between atoms: C_23  and  O_24 
REMARK    7  A    between atoms: C_27  and  O_28 
ROOT
ATOM      1  C   UNL d   1       0.955   2.616   0.067  0.00  0.00     0.074 A 
ATOM      2  N   UNL d   1       1.731   3.281  -0.867  0.00  0.00    -0.276 N 
ATOM      3  N   UNL d   1       2.055   4.558  -0.523  0.00  0.00    -0.168 NA
ATOM      4  C   UNL d   1       1.379   4.737   0.614  0.00  0.00     0.155 A 
ATOM      5  C   UNL d   1       0.679   3.594   1.010  0.00  0.00     0.035 A 
ATOM      6  C   UNL d   1      -0.038   3.897   2.283  0.00  0.00     0.162 C 
ATOM      7  N   UNL d   1       0.086   5.364   2.393  0.00  0.00    -0.333 N 
ATOM      8  C   UNL d   1       1.110   5.856   1.533  0.00  0.00     0.275 C 
ATOM      9  O   UNL d   1       1.627   6.949   1.555  0.00  0.00    -0.266 OA
ATOM     10  H   UNL d   1       2.075   2.905  -1.747  0.00  0.00     0.189 HD
ENDROOT
BRANCH   1  11
ATOM     11  C   UNL d   1       0.510   1.217  -0.104  0.00  0.00     0.032 C 
ATOM     12  C   UNL d   1      -0.853   0.914  -0.301  0.00  0.00    -0.046 C 
ATOM     13  C   UNL d   1      -1.379  -0.357  -0.126  0.00  0.00     0.014 C 
ATOM     14  C   UNL d   1      -1.839   1.972  -0.530  0.00  0.00     0.049 C 
ATOM     15  C   UNL d   1      -0.518  -1.421  -0.011  0.00  0.00    -0.059 C 
ATOM     16  C   UNL d   1      -1.090  -2.797   0.004  0.00  0.00     0.048 C 
ATOM     17  C   UNL d   1       0.862  -1.175   0.002  0.00  0.00     0.044 C 
ATOM     18  C   UNL d   1       1.371   0.131  -0.018  0.00  0.00     0.079 C 
BRANCH  18  19
ATOM     19  O   UNL d   1       2.731   0.260   0.032  0.00  0.00    -0.360 OA
ATOM     20  H   UNL d   1       2.963   1.202   0.088  0.00  0.00     0.217 HD
ENDBRANCH  18  19
ENDBRANCH   1  11
BRANCH   6  21
ATOM     21  C   UNL d   1      -1.444   3.403   2.251  0.00  0.00     0.008 A 
ATOM     22  C   UNL d   1      -1.833   2.386   3.141  0.00  0.00     0.012 A 
ATOM     23  C   UNL d   1      -3.134   1.890   3.103  0.00  0.00     0.001 A 
ATOM     24  C   UNL d   1      -4.050   2.375   2.164  0.00  0.00     0.003 A 
ATOM     25  C   UNL d   1      -3.703   3.421   1.308  0.00  0.00     0.043 A 
ATOM     26  C   UNL d   1      -2.420   3.962   1.379  0.00  0.00     0.125 A 
ATOM     27  F   UNL d   1      -2.046   4.849   0.443  0.00  0.00    -0.205 F 
ENDBRANCH   6  21
BRANCH   7  28
ATOM     28  C   UNL d   1      -0.859   6.229   3.158  0.00  0.00     0.129 C 
BRANCH  28  29
ATOM     29  C   UNL d   1      -1.970   5.510   3.953  0.00  0.00     0.046 C 
BRANCH  29  30
ATOM     30  C   UNL d   1      -3.016   6.324   4.665  0.00  0.00     0.165 C 
BRANCH  30  31
ATOM     31  O   UNL d   1      -3.981   5.424   5.229  0.00  0.00    -0.401 OA
ATOM     32  H   UNL d   1      -4.390   4.909   4.506  0.00  0.00     0.209 HD
ENDBRANCH  30  31
ENDBRANCH  29  30
ENDBRANCH  28  29
ENDBRANCH   7  28
TORSDOF 7
