@<TRIPOS>MOLECULE
*****
 47 48 0 0 0
SMALL
GASTEIGER

@<TRIPOS>ATOM
      1 C           2.5020    1.1041    0.0080 C.3     1  UNL1       -0.0397
      2 C           1.1994    0.3614   -0.0000 C.ar    1  UNL1       -0.0501
      3 C           1.2208   -1.0189    0.0050 C.ar    1  UNL1       -0.0571
      4 C           0.0303   -1.7391    0.0008 C.ar    1  UNL1       -0.0399
      5 C          -1.2456   -1.1474   -0.0055 C.ar    1  UNL1        0.0377
      6 N          -2.4444   -1.9624   -0.0127 N.am    1  UNL1       -0.2689
      7 C          -2.4277   -3.3526   -0.0267 C.2     1  UNL1        0.3102
      8 O          -1.3831   -3.9960   -0.0389 O.2     1  UNL1       -0.2521
      9 N          -3.6475   -4.0002   -0.0261 N.am    1  UNL1       -0.2390
     10 C          -3.6651   -5.3974   -0.0466 C.2     1  UNL1        0.2334
     11 O          -2.6327   -6.0710   -0.0105 O.2     1  UNL1       -0.2741
     12 C          -5.0446   -6.1105   -0.0979 C.3     1  UNL1        0.0836
     13 C          -5.7740   -5.7461   -1.3791 C.3     1  UNL1       -0.0445
     14 S          -4.6926   -7.9312   -0.0796 S.3     1  UNL1       -0.1120
     15 C          -6.2011   -8.8812   -0.0744 C.ar    1  UNL1        0.0207
     16 C          -7.4496   -8.2553    0.0808 C.ar    1  UNL1       -0.0476
     17 C          -8.6297   -8.9877    0.1947 C.ar    1  UNL1       -0.0607
     18 C          -8.5911  -10.3689    0.1296 C.ar    1  UNL1       -0.0610
     19 C          -7.3678  -11.0199   -0.0298 C.ar    1  UNL1       -0.0486
     20 C          -6.1583  -10.3023   -0.1471 C.ar    1  UNL1        0.0499
     21 C          -4.8686  -11.0735   -0.3526 C.2     1  UNL1        0.2426
     22 N          -4.9055  -12.4401   -0.3727 N.am    1  UNL1       -0.3253
     23 O          -3.7608  -10.5738   -0.5293 O.2     1  UNL1       -0.2704
     24 C          -1.2794    0.2641   -0.0045 C.ar    1  UNL1       -0.0290
     25 C          -2.5486    1.0729   -0.0052 C.3     1  UNL1       -0.0379
     26 C          -0.0506    0.9981   -0.0066 C.ar    1  UNL1       -0.0542
     27 H           3.3522    0.4082    0.0029 H       1  UNL1        0.0278
     28 H           2.5904    1.7143    0.9108 H       1  UNL1        0.0278
     29 H           2.5945    1.7325   -0.8817 H       1  UNL1        0.0278
     30 H           2.1552   -1.5759    0.0117 H       1  UNL1        0.0621
     31 H           0.1924   -2.8072    0.0035 H       1  UNL1        0.0636
     32 H          -3.3292   -1.4836   -0.0174 H       1  UNL1        0.1564
     33 H          -4.5045   -3.4761   -0.0355 H       1  UNL1        0.1591
     34 H          -5.6033   -5.8590    0.8088 H       1  UNL1        0.0508
     35 H          -5.1708   -5.9857   -2.2608 H       1  UNL1        0.0245
     36 H          -5.9998   -4.6778   -1.3979 H       1  UNL1        0.0245
     37 H          -6.7266   -6.2646   -1.4983 H       1  UNL1        0.0245
     38 H          -7.5479   -7.1785    0.1331 H       1  UNL1        0.0629
     39 H          -9.5723   -8.4722    0.3583 H       1  UNL1        0.0618
     40 H          -9.5104  -10.9436    0.2076 H       1  UNL1        0.0618
     41 H          -7.3958  -12.1022   -0.0433 H       1  UNL1        0.0625
     42 H          -5.7170  -13.0252   -0.2904 H       1  UNL1        0.1453
     43 H          -4.0101  -12.8852   -0.5325 H       1  UNL1        0.1453
     44 H          -3.4475    0.4567    0.0254 H       1  UNL1        0.0278
     45 H          -2.6064    1.6852   -0.9116 H       1  UNL1        0.0278
     46 H          -2.5823    1.7280    0.8726 H       1  UNL1        0.0278
     47 H          -0.0708    2.0884   -0.0130 H       1  UNL1        0.0623
@<TRIPOS>BOND
     1     1     2    1
     2     2     3   ar
     3     3     4   ar
     4     4     5   ar
     5     5     6    1
     6     6     7   am
     7     7     8    2
     8     7     9   am
     9     9    10   am
    10    10    11    2
    11    10    12    1
    12    12    13    1
    13    12    14    1
    14    14    15    1
    15    15    16   ar
    16    16    17   ar
    17    17    18   ar
    18    18    19   ar
    19    19    20   ar
    20    15    20   ar
    21    20    21    1
    22    21    22   am
    23    21    23    2
    24     5    24   ar
    25    24    25    1
    26    24    26   ar
    27     2    26   ar
    28     1    27    1
    29     1    28    1
    30     1    29    1
    31     3    30    1
    32     4    31    1
    33     6    32    1
    34     9    33    1
    35    12    34    1
    36    13    35    1
    37    13    36    1
    38    13    37    1
    39    16    38    1
    40    17    39    1
    41    18    40    1
    42    19    41    1
    43    22    42    1
    44    22    43    1
    45    25    44    1
    46    25    45    1
    47    25    46    1
    48    26    47    1
