REMARK  5 active torsions:
REMARK  status: ('A' for Active; 'I' for Inactive)
REMARK    1  A    between atoms: C_6  and  N_7 
REMARK       I    between atoms: N_7  and  C_8 
REMARK       I    between atoms: C_8  and  N_10 
REMARK    2  A    between atoms: N_10  and  C_11 
REMARK    3  A    between atoms: C_13  and  N_14 
REMARK       I    between atoms: N_14  and  C_15 
REMARK    4  A    between atoms: C_15  and  C_17 
REMARK    5  A    between atoms: C_26  and  N_27 
ROOT
ATOM      1  C   UNL d   1      -3.056  -5.735  -0.097  0.00  0.00     0.065 A 
ATOM      2  C   UNL d   1      -3.231  -6.939   0.640  0.00  0.00     0.061 A 
ATOM      3  C   UNL d   1      -4.398  -7.722   0.474  0.00  0.00     0.037 A 
ATOM      4  C   UNL d   1      -5.421  -7.212  -0.315  0.00  0.00     0.032 A 
ATOM      5  C   UNL d   1      -5.259  -6.042  -1.035  0.00  0.00     0.034 A 
ATOM      6  C   UNL d   1      -4.086  -5.289  -0.963  0.00  0.00     0.057 A 
ENDROOT
BRANCH   1   7
ATOM      7  N   UNL d   1      -1.839  -4.974   0.008  0.00  0.00    -0.306 N 
ATOM      8  C   UNL d   1      -1.912  -3.604   0.237  0.00  0.00     0.325 C 
ATOM      9  N   UNL d   1      -0.739  -2.896   0.005  0.00  0.00    -0.308 N 
ATOM     10  O   UNL d   1      -2.963  -3.075   0.611  0.00  0.00    -0.247 OA
ATOM     11  H   UNL d   1       0.115  -3.427  -0.044  0.00  0.00     0.170 HD
ATOM     12  H   UNL d   1      -0.988  -5.466   0.228  0.00  0.00     0.170 HD
BRANCH   9  13
ATOM     13  C   UNL d   1      -0.650  -1.456  -0.005  0.00  0.00     0.042 A 
ATOM     14  C   UNL d   1      -1.820  -0.674  -0.027  0.00  0.00     0.030 A 
ATOM     15  C   UNL d   1      -1.811   0.717   0.009  0.00  0.00     0.003 A 
ATOM     16  C   UNL d   1      -0.608   1.388   0.020  0.00  0.00     0.007 A 
ATOM     17  C   UNL d   1       0.595   0.667  -0.002  0.00  0.00    -0.054 A 
ATOM     18  C   UNL d   1       1.871   1.471  -0.016  0.00  0.00     0.049 C 
ATOM     19  C   UNL d   1       0.588  -0.767  -0.005  0.00  0.00    -0.029 A 
ATOM     20  C   UNL d   1       1.918  -1.475   0.021  0.00  0.00     0.051 C 
ENDBRANCH   9  13
ENDBRANCH   1   7
BRANCH   6  21
ATOM     21  N   UNL d   1      -4.019  -4.191  -1.796  0.00  0.00    -0.379 N 
ATOM     22  C   UNL d   1      -4.949  -3.087  -1.584  0.00  0.00     0.123 C 
ATOM     23  C   UNL d   1      -5.604  -2.782  -2.925  0.00  0.00     0.020 C 
ATOM     24  C   UNL d   1      -4.540  -2.530  -4.002  0.00  0.00     0.003 C 
ATOM     25  C   UNL d   1      -3.486  -3.646  -4.055  0.00  0.00     0.020 C 
ATOM     26  C   UNL d   1      -2.900  -3.914  -2.672  0.00  0.00     0.123 C 
ENDBRANCH   6  21
BRANCH   3  27
ATOM     27  N   UNL d   1      -4.517  -9.025   1.039  0.00  0.00    -0.323 N 
ATOM     28  C   UNL d   1      -5.551  -9.923   0.760  0.00  0.00     0.257 C 
ATOM     29  O   UNL d   1      -6.514  -9.734   0.015  0.00  0.00    -0.267 OA
ATOM     30  H   UNL d   1      -3.759  -9.345   1.629  0.00  0.00     0.169 HD
BRANCH  28  31
ATOM     31  C   UNL d   1      -5.528 -11.268   1.376  0.00  0.00     0.054 A 
ATOM     32  C   UNL d   1      -6.025 -12.332   0.588  0.00  0.00     0.019 A 
ATOM     33  C   UNL d   1      -6.262 -13.586   1.150  0.00  0.00     0.001 A 
ATOM     34  C   UNL d   1      -5.945 -13.807   2.486  0.00  0.00     0.002 A 
ATOM     35  C   UNL d   1      -5.437 -12.765   3.265  0.00  0.00     0.025 A 
ATOM     36  C   UNL d   1      -5.234 -11.493   2.720  0.00  0.00     0.049 A 
ATOM     37 CL   UNL d   1      -4.665 -10.261   3.787  0.00  0.00    -0.083 Cl
ENDBRANCH  28  31
ENDBRANCH   3  27
TORSDOF 5
