REMARK  5 active torsions:
REMARK  status: ('A' for Active; 'I' for Inactive)
REMARK    1  A    between atoms: C_6  and  C_3 
REMARK    2  A    between atoms: C_6  and  C_13 
REMARK    3  A    between atoms: C_6  and  C_7 
REMARK    4  A    between atoms: C_14  and  O_15 
REMARK    5  A    between atoms: C_18  and  C_19 
ROOT
ATOM      1  N   UNL d   1       2.889  -1.678  -3.160  0.00  0.00    -0.196 NA
ATOM      2  C   UNL d   1       2.300  -2.071  -2.233  0.00  0.00     0.079 C 
ATOM      3  C   UNL d   1       1.522  -2.711  -1.176  0.00  0.00     0.212 C 
ATOM      4  C   UNL d   1       1.736  -4.134  -1.404  0.00  0.00     0.079 C 
ATOM      5  N   UNL d   1       1.950  -5.271  -1.455  0.00  0.00    -0.196 NA
ENDROOT
BRANCH   3   6
ATOM      6  C   UNL d   1       0.099  -2.105  -1.164  0.00  0.00     0.090 C 
BRANCH   6   7
ATOM      7  C   UNL d   1      -1.169  -2.957  -1.072  0.00  0.00     0.036 A 
ATOM      8  C   UNL d   1      -1.404  -4.359  -1.050  0.00  0.00     0.191 A 
ATOM      9  N   UNL d   1      -2.674  -4.712  -1.096  0.00  0.00    -0.148 NA
ATOM     10  N   UNL d   1      -3.316  -3.558  -1.093  0.00  0.00    -0.274 N 
ATOM     11  C   UNL d   1      -2.489  -2.466  -1.041  0.00  0.00     0.071 A 
ATOM     12  H   UNL d   1      -4.328  -3.595  -1.142  0.00  0.00     0.189 HD
BRANCH   8  13
ATOM     13  O   UNL d   1      -0.633  -5.435  -0.992  0.00  0.00    -0.343 OA
ATOM     14  H   UNL d   1       0.230  -5.292  -0.588  0.00  0.00     0.219 HD
ENDBRANCH   8  13
BRANCH  11  15
ATOM     15  C   UNL d   1      -3.053  -1.121  -1.029  0.00  0.00    -0.007 A 
ATOM     16  C   UNL d   1      -3.912  -0.709  -0.002  0.00  0.00     0.014 A 
ATOM     17  C   UNL d   1      -4.532   0.541  -0.068  0.00  0.00     0.001 A 
ATOM     18  C   UNL d   1      -4.203   1.429  -1.091  0.00  0.00     0.000 A 
ATOM     19  C   UNL d   1      -3.319   1.039  -2.094  0.00  0.00     0.001 A 
ATOM     20  C   UNL d   1      -2.762  -0.238  -2.071  0.00  0.00     0.014 A 
ENDBRANCH  11  15
ENDBRANCH   6   7
BRANCH   6  21
ATOM     21  C   UNL d   1       0.009  -1.102   0.012  0.00  0.00    -0.047 A 
ATOM     22  C   UNL d   1      -0.049  -1.560   1.338  0.00  0.00     0.008 A 
ATOM     23  C   UNL d   1      -0.280  -0.672   2.389  0.00  0.00     0.001 A 
ATOM     24  C   UNL d   1      -0.329   0.698   2.153  0.00  0.00     0.000 A 
ATOM     25  C   UNL d   1      -0.214   1.181   0.853  0.00  0.00     0.001 A 
ATOM     26  C   UNL d   1      -0.040   0.289  -0.213  0.00  0.00     0.008 A 
ENDBRANCH   6  21
ENDBRANCH   3   6
TORSDOF 5
