REMARK  6 active torsions:
REMARK  status: ('A' for Active; 'I' for Inactive)
REMARK    1  A    between atoms: C_2  and  C_3 
REMARK       I    between atoms: C_2  and  N_22 
REMARK    2  A    between atoms: C_3  and  O_4 
REMARK    3  A    between atoms: O_4  and  C_5 
REMARK    4  A    between atoms: C_5  and  C_7 
REMARK       I    between atoms: N_10  and  C_11 
REMARK    5  A    between atoms: C_11  and  C_13 
REMARK    6  A    between atoms: N_22  and  C_23 
ROOT
ATOM      1  O   UNL d   1       2.300  -1.812   1.865  0.00  0.00    -0.312 OA
ENDROOT
BRANCH   1   2
ATOM      2  C   UNL d   1       3.134  -1.069   0.990  0.00  0.00     0.281 C 
BRANCH   2   3
ATOM      3  C   UNL d   1       2.370  -0.057   0.092  0.00  0.00     0.246 C 
ATOM      4  O   UNL d   1       1.139  -0.006   0.038  0.00  0.00    -0.271 OA
ATOM      5  N   UNL d   1       3.113   0.874  -0.614  0.00  0.00    -0.325 N 
ATOM      6  H   UNL d   1       2.573   1.652  -0.981  0.00  0.00     0.169 HD
BRANCH   5   7
ATOM      7  C   UNL d   1       4.513   0.925  -0.701  0.00  0.00     0.037 A 
ATOM      8  C   UNL d   1       5.172   2.168  -0.573  0.00  0.00     0.032 A 
ATOM      9  C   UNL d   1       6.577   2.240  -0.567  0.00  0.00     0.034 A 
ATOM     10  C   UNL d   1       7.265   1.058  -0.720  0.00  0.00     0.063 A 
ATOM     11  N   UNL d   1       8.630   0.801  -0.766  0.00  0.00    -0.307 N 
ATOM     12  C   UNL d   1       6.609  -0.153  -0.890  0.00  0.00     0.065 A 
ATOM     13  C   UNL d   1       8.825  -0.574  -0.964  0.00  0.00     0.325 A 
ATOM     14  H   UNL d   1       9.383   1.466  -0.695  0.00  0.00     0.170 HD
ATOM     15  O   UNL d   1       9.896  -1.156  -1.064  0.00  0.00    -0.247 OA
ATOM     16  N   UNL d   1       7.556  -1.156  -1.032  0.00  0.00    -0.306 N 
ATOM     17  H   UNL d   1       7.393  -2.142  -1.159  0.00  0.00     0.170 HD
ATOM     18  C   UNL d   1       5.246  -0.247  -0.914  0.00  0.00     0.061 A 
ENDBRANCH   5   7
ENDBRANCH   2   3
ENDBRANCH   1   2
BRANCH   1  19
ATOM     19  C   UNL d   1       2.787  -2.968   2.404  0.00  0.00     0.263 C 
ATOM     20  O   UNL d   1       3.968  -3.285   2.409  0.00  0.00    -0.265 OA
BRANCH  19  21
ATOM     21  C   UNL d   1       1.640  -3.817   2.975  0.00  0.00     0.088 C 
ATOM     22  C   UNL d   1       1.537  -5.230   2.361  0.00  0.00     0.034 C 
ATOM     23  C   UNL d   1       1.116  -5.178   0.888  0.00  0.00     0.127 C 
ATOM     24  N   UNL d   1      -0.118  -4.393   0.734  0.00  0.00    -0.348 N 
ATOM     25  C   UNL d   1      -1.251  -4.922   0.121  0.00  0.00     0.253 C 
ATOM     26  C   UNL d   1      -0.046  -3.046   1.268  0.00  0.00     0.127 C 
ATOM     27  O   UNL d   1      -1.331  -6.084  -0.266  0.00  0.00    -0.267 OA
ATOM     28  C   UNL d   1       0.309  -3.081   2.758  0.00  0.00     0.034 C 
BRANCH  25  29
ATOM     29  C   UNL d   1      -2.446  -4.044  -0.049  0.00  0.00     0.032 A 
ATOM     30  C   UNL d   1      -2.375  -2.865  -0.807  0.00  0.00     0.018 A 
ATOM     31  C   UNL d   1      -3.488  -2.023  -0.904  0.00  0.00     0.025 A 
ATOM     32  C   UNL d   1      -4.681  -2.377  -0.276  0.00  0.00     0.034 A 
ATOM     33 CL   UNL d   1      -6.047  -1.337  -0.391  0.00  0.00    -0.084 Cl
ATOM     34  C   UNL d   1      -4.772  -3.569   0.444  0.00  0.00     0.025 A 
ATOM     35  C   UNL d   1      -3.654  -4.405   0.559  0.00  0.00     0.018 A 
ENDBRANCH  25  29
ENDBRANCH  19  21
ENDBRANCH   1  19
TORSDOF 6
