@<TRIPOS>MOLECULE
*****
 54 58 0 0 0
SMALL
GASTEIGER

@<TRIPOS>ATOM
      1 C           0.8794    0.2011    0.0634 C.3     1  UNL1       -0.0442
      2 C           2.3991    0.1137    0.1061 C.3     1  UNL1        0.0464
      3 N           2.8780    1.4010   -0.4227 N.3     1  UNL1       -0.2334
      4 N           3.6486    1.3703   -1.5861 N.am    1  UNL1       -0.2465
      5 C           3.9684    0.2605   -2.3154 C.2     1  UNL1        0.2578
      6 O           4.4731    0.4273   -3.4203 O.2     1  UNL1       -0.2691
      7 C           3.6682   -1.0319   -1.7043 C.2     1  UNL1        0.0652
      8 C           2.9058   -1.0856   -0.6136 C.2     1  UNL1       -0.0111
      9 C           2.6562   -2.5049   -0.2460 C.3     1  UNL1        0.0818
     10 C           1.1846   -2.9200   -0.3268 C.3     1  UNL1       -0.0346
     11 O           3.4453   -3.2778   -1.1956 O.3     1  UNL1       -0.3472
     12 C           4.0529   -2.3767   -2.1644 C.3     1  UNL1        0.1566
     13 N           5.4837   -2.5615   -2.0713 N.am    1  UNL1       -0.2834
     14 C           6.3054   -2.0354   -3.0521 C.2     1  UNL1        0.2529
     15 O           5.8489   -1.5383   -4.0779 O.2     1  UNL1       -0.2720
     16 C           7.8157   -2.1266   -2.8555 C.3     1  UNL1        0.1685
     17 O           8.4629   -1.1821   -3.7494 O.3     1  UNL1       -0.4506
     18 C           9.8142   -1.2677   -3.7657 C.2     1  UNL1        0.3604
     19 O          10.4498   -2.0287   -3.0486 O.2     1  UNL1       -0.2431
     20 C          10.4650   -0.4227   -4.8200 C.ar    1  UNL1        0.1756
     21 N          10.1347    0.9025   -4.9111 N.ar    1  UNL1       -0.2449
     22 C          10.9164    1.6419   -5.7479 C.ar    1  UNL1        0.0466
     23 C          11.9720    1.1050   -6.4694 C.ar    1  UNL1        0.0465
     24 N          12.2833   -0.2062   -6.4084 N.ar    1  UNL1       -0.2490
     25 C          11.5119   -0.9659   -5.5683 C.ar    1  UNL1        0.1282
     26 C          11.9094   -2.3672   -5.4738 C.ar    1  UNL1        0.1299
     27 N          13.0722   -2.7802   -5.0191 N.ar    1  UNL1       -0.2374
     28 C          13.0714   -4.1555   -4.9204 C.ar    1  UNL1        0.0789
     29 C          14.1371   -4.9355   -4.4369 C.ar    1  UNL1       -0.0352
     30 C          14.0124   -6.3255   -4.3933 C.ar    1  UNL1       -0.0597
     31 C          12.8348   -6.9410   -4.8074 C.ar    1  UNL1       -0.0606
     32 C          11.7569   -6.1872   -5.2825 C.ar    1  UNL1       -0.0459
     33 C          11.9042   -4.7927   -5.3449 C.ar    1  UNL1        0.0396
     34 S          10.8025   -3.6077   -5.9272 S.2     1  UNL1       -0.0656
     35 H           0.5183    1.1679    0.4240 H       1  UNL1        0.0248
     36 H           0.4267   -0.5357    0.7261 H       1  UNL1        0.0248
     37 H           0.4986    0.0462   -0.9541 H       1  UNL1        0.0248
     38 H           2.7426    0.0492    1.1451 H       1  UNL1        0.0521
     39 H           3.4090    1.8897    0.2972 H       1  UNL1        0.1449
     40 H           3.8550    2.2337   -2.0817 H       1  UNL1        0.1693
     41 H           3.0385   -2.7301    0.7560 H       1  UNL1        0.0642
     42 H           0.7458   -2.6586   -1.2968 H       1  UNL1        0.0258
     43 H           0.5864   -2.4459    0.4549 H       1  UNL1        0.0258
     44 H           1.0514   -3.9953   -0.1832 H       1  UNL1        0.0258
     45 H           3.6718   -2.6332   -3.1585 H       1  UNL1        0.0863
     46 H           5.8062   -3.2844   -1.4444 H       1  UNL1        0.1516
     47 H           8.0967   -3.1505   -3.1291 H       1  UNL1        0.0796
     48 H           8.0953   -1.9087   -1.8187 H       1  UNL1        0.0796
     49 H          10.6857    2.7011   -5.8192 H       1  UNL1        0.0845
     50 H          12.6008    1.7140   -7.1131 H       1  UNL1        0.0845
     51 H          15.0472   -4.4432   -4.1102 H       1  UNL1        0.0639
     52 H          14.8453   -6.9242   -4.0345 H       1  UNL1        0.0618
     53 H          12.7535   -8.0248   -4.7682 H       1  UNL1        0.0618
     54 H          10.8392   -6.6689   -5.6054 H       1  UNL1        0.0629
@<TRIPOS>BOND
     1     1     2    1
     2     2     3    1
     3     3     4    1
     4     4     5   am
     5     5     6    2
     6     5     7    1
     7     7     8    2
     8     2     8    1
     9     8     9    1
    10     9    10    1
    11     9    11    1
    12    11    12    1
    13     7    12    1
    14    12    13    1
    15    13    14   am
    16    14    15    2
    17    14    16    1
    18    16    17    1
    19    17    18    1
    20    18    19    2
    21    18    20    1
    22    20    21   ar
    23    21    22   ar
    24    22    23   ar
    25    23    24   ar
    26    24    25   ar
    27    20    25   ar
    28    25    26    1
    29    26    27   ar
    30    27    28   ar
    31    28    29   ar
    32    29    30   ar
    33    30    31   ar
    34    31    32   ar
    35    32    33   ar
    36    28    33   ar
    37    33    34   ar
    38    26    34   ar
    39     1    35    1
    40     1    36    1
    41     1    37    1
    42     2    38    1
    43     3    39    1
    44     4    40    1
    45     9    41    1
    46    10    42    1
    47    10    43    1
    48    10    44    1
    49    12    45    1
    50    13    46    1
    51    16    47    1
    52    16    48    1
    53    22    49    1
    54    23    50    1
    55    29    51    1
    56    30    52    1
    57    31    53    1
    58    32    54    1
