@<TRIPOS>MOLECULE
*****
 48 51 0 0 0
SMALL
GASTEIGER

@<TRIPOS>ATOM
      1 O           1.0938    0.0581   -0.8976 O.2     1  UNL1       -0.2683
      2 C           2.2656    0.1272   -0.5782 C.2     1  UNL1        0.2646
      3 N           2.8175    1.2524    0.0961 N.am    1  UNL1       -0.2787
      4 C           2.1683    2.2622    0.8743 C.ar    1  UNL1        0.0552
      5 C           2.7280    3.5617    0.7701 C.ar    1  UNL1       -0.0387
      6 C           2.2146    4.6559    1.4794 C.ar    1  UNL1       -0.0599
      7 C           1.1185    4.4707    2.3091 C.ar    1  UNL1       -0.0599
      8 C           0.5828    3.1804    2.4741 C.ar    1  UNL1       -0.0386
      9 C           1.1089    2.0549    1.7852 C.ar    1  UNL1        0.0561
     10 N           0.5429    0.7739    2.0704 N.am    1  UNL1       -0.2676
     11 C           1.2487   -0.4078    2.0173 C.2     1  UNL1        0.3065
     12 O           2.4734   -0.4654    2.1412 O.2     1  UNL1       -0.2523
     13 N           0.5246   -1.5615    1.8124 N.am    1  UNL1       -0.2854
     14 C          -0.9065   -1.7768    1.6970 C.3     1  UNL1        0.0162
     15 C          -1.0772   -2.9811    2.6127 C.3     1  UNL1       -0.0357
     16 C           0.1308   -3.8516    2.2587 C.3     1  UNL1       -0.0357
     17 C           1.2055   -2.8473    1.8521 C.3     1  UNL1        0.0162
     18 C           3.2671   -0.9547   -0.8747 C.ar    1  UNL1        0.1031
     19 C           4.5502   -0.9750   -0.3860 C.ar    1  UNL1       -0.0239
     20 C           5.1440   -2.2134   -0.6243 C.ar    1  UNL1        0.0068
     21 C           6.3306   -2.7364   -0.1210 C.ar    1  UNL1        0.0247
     22 C           6.9916   -3.7443   -0.8015 C.ar    1  UNL1        0.2738
     23 N           8.3434   -4.0788   -0.3200 N.pl3   1  UNL1        0.0796
     24 O           8.7547   -3.4836    0.6902 O.2     1  UNL1        0.0414
     25 O           9.0037   -4.9133   -0.9523 O.co2   1  UNL1       -0.5760
     26 C           6.4095   -4.2953   -1.9472 C.ar    1  UNL1        0.0176
     27 C           5.0946   -3.8794   -2.3707 C.ar    1  UNL1       -0.0314
     28 C           4.4298   -2.8430   -1.6291 C.ar    1  UNL1        0.0474
     29 N           3.1526   -2.2171   -1.5300 N.ar    1  UNL1       -0.3506
     30 H           3.7984    1.2225    0.3202 H       1  UNL1        0.1552
     31 H           3.5403    3.7537    0.0714 H       1  UNL1        0.0637
     32 H           2.6551    5.6473    1.3679 H       1  UNL1        0.0618
     33 H           0.6847    5.3290    2.8238 H       1  UNL1        0.0618
     34 H          -0.2354    3.0765    3.1838 H       1  UNL1        0.0637
     35 H          -0.2717    0.7571    2.6635 H       1  UNL1        0.1564
     36 H          -1.1391   -2.0614    0.6604 H       1  UNL1        0.0465
     37 H          -1.5077   -0.9110    1.9746 H       1  UNL1        0.0465
     38 H          -2.0271   -3.5051    2.4890 H       1  UNL1        0.0281
     39 H          -0.9902   -2.6541    3.6568 H       1  UNL1        0.0281
     40 H          -0.1054   -4.5184    1.4212 H       1  UNL1        0.0281
     41 H           0.4602   -4.4747    3.0962 H       1  UNL1        0.0281
     42 H           1.5962   -3.0878    0.8562 H       1  UNL1        0.0465
     43 H           2.0396   -2.8222    2.5575 H       1  UNL1        0.0465
     44 H           5.0325   -0.2049    0.1872 H       1  UNL1        0.0646
     45 H           6.7333   -2.2707    0.7685 H       1  UNL1        0.0692
     46 H           6.9678   -5.0479   -2.5125 H       1  UNL1        0.0686
     47 H           4.7057   -4.2976   -3.3014 H       1  UNL1        0.0640
     48 H           2.2624   -2.6912   -1.6537 H       1  UNL1        0.1660
@<TRIPOS>UNITY_ATOM_ATTR
23 1
charge 1
25 1
charge -1
@<TRIPOS>BOND
     1     1     2    2
     2     2     3   am
     3     3     4    1
     4     4     5   ar
     5     5     6   ar
     6     6     7   ar
     7     7     8   ar
     8     8     9   ar
     9     4     9   ar
    10     9    10    1
    11    10    11   am
    12    11    12    2
    13    11    13   am
    14    13    14    1
    15    14    15    1
    16    15    16    1
    17    16    17    1
    18    13    17    1
    19     2    18    1
    20    18    19   ar
    21    19    20   ar
    22    20    21   ar
    23    21    22   ar
    24    22    23    1
    25    23    24    2
    26    23    25    1
    27    22    26   ar
    28    26    27   ar
    29    27    28   ar
    30    20    28   ar
    31    28    29   ar
    32    18    29   ar
    33     3    30    1
    34     5    31    1
    35     6    32    1
    36     7    33    1
    37     8    34    1
    38    10    35    1
    39    14    36    1
    40    14    37    1
    41    15    38    1
    42    15    39    1
    43    16    40    1
    44    16    41    1
    45    17    42    1
    46    17    43    1
    47    19    44    1
    48    21    45    1
    49    26    46    1
    50    27    47    1
    51    29    48    1
