REMARK  5 active torsions:
REMARK  status: ('A' for Active; 'I' for Inactive)
REMARK    1  A    between atoms: C_2  and  C_3 
REMARK    2  A    between atoms: C_2  and  C_12 
REMARK    3  A    between atoms: C_3  and  N_4 
REMARK    4  A    between atoms: N_4  and  C_5 
REMARK       I    between atoms: C_12  and  N_14 
REMARK    5  A    between atoms: N_14  and  N_15 
ROOT
ATOM      1  C   UNL d   1       2.961   0.414  -1.451  0.00  0.00     0.133 C 
ENDROOT
BRANCH   1   2
ATOM      2  C   UNL d   1       2.463   0.006  -0.063  0.00  0.00     0.093 C 
ATOM      3  C   UNL d   1       0.933  -0.032  -0.045  0.00  0.00     0.021 C 
BRANCH   2   4
ATOM      4  C   UNL d   1       2.973   0.997   0.994  0.00  0.00     0.237 C 
ATOM      5  O   UNL d   1       2.210   1.646   1.723  0.00  0.00    -0.272 OA
ATOM      6  N   UNL d   1       4.353   1.127   1.104  0.00  0.00    -0.294 N 
ATOM      7  H   UNL d   1       4.991   0.510   0.602  0.00  0.00     0.183 HD
BRANCH   6   8
ATOM      8  N   UNL d   1       4.889   1.953   2.125  0.00  0.00    -0.247 NA
ATOM      9  H   UNL d   1       4.090   2.395   2.604  0.00  0.00     0.143 HD
ATOM     10  H   UNL d   1       5.388   2.734   1.690  0.00  0.00     0.143 HD
ENDBRANCH   6   8
ENDBRANCH   2   4
ENDBRANCH   1   2
BRANCH   1  11
ATOM     11  N   UNL d   1       2.616  -0.570  -2.485  0.00  0.00    -0.388 N 
ATOM     12  H   UNL d   1       1.828  -1.188  -2.323  0.00  0.00     0.159 HD
BRANCH  11  13
ATOM     13  C   UNL d   1       2.945  -0.326  -3.823  0.00  0.00     0.050 A 
ATOM     14  C   UNL d   1       1.940  -0.396  -4.812  0.00  0.00     0.031 A 
ATOM     15  C   UNL d   1       2.221  -0.131  -6.164  0.00  0.00     0.002 A 
ATOM     16  C   UNL d   1       3.507   0.226  -6.553  0.00  0.00     0.002 A 
ATOM     17  C   UNL d   1       4.513   0.305  -5.598  0.00  0.00     0.026 A 
ATOM     18  C   UNL d   1       4.242   0.027  -4.255  0.00  0.00     0.060 A 
ATOM     19 CL   UNL d   1       5.631   0.001  -3.216  0.00  0.00    -0.082 Cl
ENDBRANCH  11  13
ENDBRANCH   1  11
TORSDOF 5
