@<TRIPOS>MOLECULE
*****
 45 48 0 0 0
SMALL
GASTEIGER

@<TRIPOS>ATOM
      1 C           3.1209   -0.0528   -1.4107 C.3     1  UNL1       -0.0191
      2 C           2.4921    0.0140   -0.0109 C.3     1  UNL1        0.1730
      3 O           1.0475   -0.0561   -0.0992 O.3     1  UNL1       -0.4784
      4 C           0.3589    0.9935   -0.6651 C.ar    1  UNL1        0.1399
      5 C           0.9937    2.1196   -1.2018 C.ar    1  UNL1       -0.0171
      6 C           0.3058    3.1286   -1.8516 C.ar    1  UNL1       -0.0398
      7 C          -1.0720    3.0780   -1.8963 C.ar    1  UNL1        0.0426
      8 CL         -1.9129    4.3759   -2.6406 Cl      1  UNL1       -0.0835
      9 C          -1.7554    2.0102   -1.3154 C.ar    1  UNL1       -0.0215
     10 C          -1.0419    0.9597   -0.7139 C.ar    1  UNL1        0.0839
     11 CL         -1.9483   -0.3410   -0.0241 Cl      1  UNL1       -0.0797
     12 C           2.9967    1.1871    0.8892 C.2     1  UNL1        0.2577
     13 O           2.1896    2.0100    1.3499 O.2     1  UNL1       -0.2714
     14 N           4.3645    1.3211    1.1122 N.am    1  UNL1       -0.2812
     15 C           4.8787    2.3200    2.0155 C.ar    1  UNL1        0.0542
     16 C           6.0250    3.0809    1.6211 C.ar    1  UNL1       -0.0097
     17 C           6.4972    4.0445    2.5687 C.ar    1  UNL1        0.1150
     18 N           7.4980    4.9530    2.5025 N.ar    1  UNL1       -0.1470
     19 N           7.5298    5.4734    3.7658 N.ar    1  UNL1       -0.1492
     20 C           8.4745    6.4430    4.2113 C.ar    1  UNL1        0.0862
     21 C           9.1207    6.2603    5.4472 C.ar    1  UNL1       -0.0345
     22 C           9.9241    7.2733    5.9848 C.ar    1  UNL1       -0.0597
     23 C          10.1199    8.4563    5.2759 C.ar    1  UNL1       -0.0616
     24 C           9.5370    8.6134    4.0159 C.ar    1  UNL1       -0.0597
     25 C           8.6944    7.6209    3.4885 C.ar    1  UNL1       -0.0345
     26 N           6.5811    5.0331    4.6203 N.ar    1  UNL1       -0.1471
     27 C           5.8624    4.1871    3.8749 C.ar    1  UNL1        0.1147
     28 C           4.7186    3.4716    4.2445 C.ar    1  UNL1       -0.0122
     29 C           4.2703    2.5234    3.3077 C.ar    1  UNL1        0.0643
     30 CL          3.0605    1.4461    3.9652 Cl      1  UNL1       -0.0816
     31 H           4.2084   -0.1131   -1.3660 H       1  UNL1        0.0270
     32 H           2.9050    0.8150   -2.0365 H       1  UNL1        0.0270
     33 H           2.7177   -0.9020   -1.9726 H       1  UNL1        0.0270
     34 H           2.7874   -0.9090    0.5092 H       1  UNL1        0.0829
     35 H           2.0549    2.2963   -1.1037 H       1  UNL1        0.0655
     36 H           0.8737    3.9482   -2.2802 H       1  UNL1        0.0633
     37 H          -2.8410    2.0022   -1.3267 H       1  UNL1        0.0648
     38 H           5.0118    0.8692    0.4771 H       1  UNL1        0.1550
     39 H           6.5116    2.9769    0.6587 H       1  UNL1        0.0659
     40 H           9.0338    5.3182    5.9847 H       1  UNL1        0.0639
     41 H          10.3972    7.1419    6.9560 H       1  UNL1        0.0618
     42 H          10.7267    9.2528    5.7039 H       1  UNL1        0.0618
     43 H           9.7288    9.5251    3.4536 H       1  UNL1        0.0618
     44 H           8.1663    7.8156    2.5590 H       1  UNL1        0.0639
     45 H           4.2530    3.5889    5.2130 H       1  UNL1        0.0655
@<TRIPOS>BOND
     1     3     4    1
     2     4     5   ar
     3     5     6   ar
     4     6     7   ar
     5     7     8    1
     6     7     9   ar
     7     9    10   ar
     8     4    10   ar
     9    10    11    1
    10     2    12    1
    11    12    13    2
    12    12    14   am
    13    14    15    1
    14    15    16   ar
    15    16    17   ar
    16    17    18   ar
    17    18    19   ar
    18    19    20    1
    19    20    21   ar
    20    21    22   ar
    21    22    23   ar
    22    23    24   ar
    23    24    25   ar
    24    20    25   ar
    25    19    26   ar
    26    26    27   ar
    27    17    27   ar
    28    27    28   ar
    29    28    29   ar
    30    15    29   ar
    31    29    30    1
    32     2     3    1
    33     2     1    1
    34     1    31    1
    35     1    32    1
    36     1    33    1
    37     2    34    1
    38     5    35    1
    39     6    36    1
    40     9    37    1
    41    14    38    1
    42    16    39    1
    43    21    40    1
    44    22    41    1
    45    23    42    1
    46    24    43    1
    47    25    44    1
    48    28    45    1
