REMARK  16 active torsions:
REMARK  status: ('A' for Active; 'I' for Inactive)
REMARK    1  A    between atoms: C_2  and  C_3 
REMARK       I    between atoms: C_2  and  N_18 
REMARK    2  A    between atoms: C_3  and  C_4 
REMARK    3  A    between atoms: C_4  and  C_5 
REMARK    4  A    between atoms: C_5  and  C_6 
REMARK    5  A    between atoms: C_6  and  O_8 
REMARK    6  A    between atoms: O_8  and  C_9 
REMARK    7  A    between atoms: C_9  and  C_10 
REMARK    8  A    between atoms: C_10  and  C_11 
REMARK    9  A    between atoms: C_11  and  C_12 
REMARK   10  A    between atoms: N_18  and  C_19 
REMARK   11  A    between atoms: C_19  and  N_21 
REMARK   12  A    between atoms: N_21  and  C_22 
REMARK   13  A    between atoms: C_26  and  O_27 
REMARK   14  A    between atoms: O_27  and  C_28 
REMARK   15  A    between atoms: C_28  and  C_29 
REMARK   16  A    between atoms: C_29  and  C_30 
ROOT
ATOM      1  O   UNL d   1       1.158   0.153   0.180  0.00  0.00    -0.273 OA
ATOM      2  C   UNL d   1       2.367   0.059  -0.023  0.00  0.00     0.223 C 
ATOM      3  N   UNL d   1       3.288   0.512   0.942  0.00  0.00    -0.304 N 
ATOM      4  H   UNL d   1       2.796   0.918   1.730  0.00  0.00     0.171 HD
ENDROOT
BRANCH   3   5
ATOM      5  C   UNL d   1       4.696   0.406   1.020  0.00  0.00     0.178 C 
ATOM      6  S   UNL d   1       5.657  -0.455  -0.083  0.00  0.00    -0.040 SA
BRANCH   5   7
ATOM      7  N   UNL d   1       5.257   1.070   2.132  0.00  0.00    -0.333 N 
ATOM      8  H   UNL d   1       4.709   1.196   2.975  0.00  0.00     0.168 HD
BRANCH   7   9
ATOM      9  C   UNL d   1       6.675   1.228   2.264  0.00  0.00     0.036 A 
ATOM     10  C   UNL d   1       7.374   0.873   3.412  0.00  0.00     0.029 A 
ATOM     11  C   UNL d   1       8.775   0.997   3.424  0.00  0.00     0.005 A 
ATOM     12  C   UNL d   1       9.476   1.408   2.279  0.00  0.00     0.037 A 
ATOM     13  C   UNL d   1       8.781   1.772   1.133  0.00  0.00     0.070 A 
ATOM     14  C   UNL d   1       7.392   1.722   1.167  0.00  0.00     0.066 A 
BRANCH  13  15
ATOM     15  O   UNL d   1       9.512   2.173   0.045  0.00  0.00    -0.351 OA
BRANCH  15  16
ATOM     16  C   UNL d   1       8.740   2.515  -1.117  0.00  0.00     0.180 C 
BRANCH  16  17
ATOM     17  C   UNL d   1       9.658   3.028  -2.223  0.00  0.00     0.065 C 
BRANCH  17  18
ATOM     18  C   UNL d   1       8.864   3.395  -3.454  0.00  0.00    -0.056 A 
ATOM     19  C   UNL d   1       8.773   4.726  -3.877  0.00  0.00     0.007 A 
ATOM     20  C   UNL d   1       7.928   5.072  -4.934  0.00  0.00     0.001 A 
ATOM     21  C   UNL d   1       7.231   4.083  -5.626  0.00  0.00     0.000 A 
ATOM     22  C   UNL d   1       7.343   2.751  -5.237  0.00  0.00     0.001 A 
ATOM     23  C   UNL d   1       8.152   2.409  -4.154  0.00  0.00     0.007 A 
ENDBRANCH  17  18
ENDBRANCH  16  17
ENDBRANCH  15  16
ENDBRANCH  13  15
ENDBRANCH   7   9
ENDBRANCH   5   7
ENDBRANCH   3   5
BRANCH   2  24
ATOM     24  C   UNL d   1       2.945  -0.536  -1.296  0.00  0.00     0.103 C 
BRANCH  24  25
ATOM     25  C   UNL d   1       1.998  -1.033  -2.356  0.00  0.00     0.019 C 
BRANCH  25  26
ATOM     26  C   UNL d   1       2.772  -1.613  -3.559  0.00  0.00     0.111 C 
BRANCH  26  27
ATOM     27  C   UNL d   1       1.784  -2.103  -4.587  0.00  0.00     0.258 C 
ATOM     28  O   UNL d   1       0.559  -2.036  -4.445  0.00  0.00    -0.265 OA
BRANCH  27  29
ATOM     29  O   UNL d   1       2.391  -2.626  -5.688  0.00  0.00    -0.321 OA
BRANCH  29  30
ATOM     30  C   UNL d   1       1.446  -3.093  -6.669  0.00  0.00     0.179 C 
BRANCH  30  31
ATOM     31  C   UNL d   1       2.178  -3.662  -7.877  0.00  0.00     0.031 C 
BRANCH  31  32
ATOM     32  C   UNL d   1       1.192  -4.155  -8.945  0.00  0.00     0.041 C 
BRANCH  32  33
ATOM     33  C   UNL d   1       1.913  -4.729 -10.139  0.00  0.00    -0.058 A 
ATOM     34  C   UNL d   1       1.818  -6.093 -10.442  0.00  0.00     0.007 A 
ATOM     35  C   UNL d   1       2.581  -6.640 -11.475  0.00  0.00     0.001 A 
ATOM     36  C   UNL d   1       3.381  -5.816 -12.265  0.00  0.00     0.000 A 
ATOM     37  C   UNL d   1       3.452  -4.452 -11.997  0.00  0.00     0.001 A 
ATOM     38  C   UNL d   1       2.726  -3.911 -10.936  0.00  0.00     0.007 A 
ENDBRANCH  32  33
ENDBRANCH  31  32
ENDBRANCH  30  31
ENDBRANCH  29  30
ENDBRANCH  27  29
ENDBRANCH  26  27
ENDBRANCH  25  26
ENDBRANCH  24  25
ENDBRANCH   2  24
TORSDOF 16
