@<TRIPOS>MOLECULE
*****
 54 57 0 0 0
SMALL
GASTEIGER

@<TRIPOS>ATOM
      1 C           0.8483    2.0418    0.0147 C.3     1  UNL1       -0.0366
      2 C          -0.1703    0.9549    0.0027 C.ar    1  UNL1       -0.0110
      3 C           0.3259   -0.3685    0.0082 C.ar    1  UNL1        0.0456
      4 CL          2.0252   -0.7270    0.0043 Cl      1  UNL1       -0.0832
      5 C          -0.5302   -1.4558    0.0130 C.ar    1  UNL1       -0.0430
      6 C          -1.9008   -1.2403    0.0037 C.ar    1  UNL1       -0.0586
      7 C          -2.4190    0.0734   -0.0118 C.ar    1  UNL1       -0.0401
      8 C          -1.5718    1.2116   -0.0114 C.ar    1  UNL1        0.0377
      9 N          -2.2055    2.5288   -0.0271 N.am    1  UNL1       -0.2839
     10 C          -1.6013    3.7875   -0.0269 C.2     1  UNL1        0.2344
     11 O          -0.3965    4.0406   -0.0080 O.2     1  UNL1       -0.2737
     12 C          -2.4407    5.0593   -0.0499 C.3     1  UNL1        0.0884
     13 N          -1.4441    6.1706   -0.0473 N.am    1  UNL1       -0.3067
     14 C          -1.7852    7.4903   -0.0583 C.2     1  UNL1        0.2138
     15 O          -2.9640    7.8291   -0.0737 O.2     1  UNL1       -0.2758
     16 C          -0.6314    8.4971   -0.0511 C.3     1  UNL1        0.0308
     17 C          -1.1764    9.9387   -0.0644 C.3     1  UNL1        0.0138
     18 C          -0.1750   11.0962   -0.0425 C.ar    1  UNL1        0.1125
     19 N          -0.5931   12.3395   -0.0138 N.ar    1  UNL1       -0.2142
     20 C           0.4111   13.2744   -0.0141 C.ar    1  UNL1        0.1703
     21 C           1.7599   12.9990   -0.0464 C.ar    1  UNL1        0.1031
     22 C           2.4158   14.2257   -0.1002 C.ar    1  UNL1        0.0643
     23 N           1.5607   15.2479   -0.1942 N.ar    1  UNL1       -0.1721
     24 N           0.3223   14.6712   -0.0837 N.ar    1  UNL1       -0.2138
     25 C          -0.8354   15.4880   -0.0776 C.ar    1  UNL1        0.0677
     26 C          -1.0816   16.3561   -1.1492 C.ar    1  UNL1       -0.0362
     27 C          -2.3378   16.9608   -1.2577 C.ar    1  UNL1       -0.0598
     28 C          -3.2212   16.9326   -0.1797 C.ar    1  UNL1       -0.0616
     29 C          -2.8899   16.2114    0.9667 C.ar    1  UNL1       -0.0598
     30 C          -1.7413   15.4135    0.9834 C.ar    1  UNL1       -0.0362
     31 C           2.2004   11.6433   -0.0525 C.ar    1  UNL1        0.2623
     32 O           3.3799   11.2916   -0.0713 O.2     1  UNL1       -0.2670
     33 N           1.1647   10.7406   -0.0551 N.ar    1  UNL1       -0.3102
     34 H           1.8980    1.7696    0.0345 H       1  UNL1        0.0279
     35 H           0.7122    2.5961    0.9499 H       1  UNL1        0.0279
     36 H           0.7419    2.5904   -0.9275 H       1  UNL1        0.0279
     37 H          -0.1173   -2.4616    0.0230 H       1  UNL1        0.0632
     38 H          -2.5576   -2.1091    0.0066 H       1  UNL1        0.0619
     39 H          -3.5050    0.1620   -0.0234 H       1  UNL1        0.0636
     40 H          -3.2217    2.5102   -0.0400 H       1  UNL1        0.1549
     41 H          -3.0468    5.1432    0.8523 H       1  UNL1        0.0558
     42 H          -3.0241    5.1271   -0.9683 H       1  UNL1        0.0558
     43 H          -0.4665    5.8677   -0.0312 H       1  UNL1        0.1492
     44 H           0.0040    8.3240   -0.9298 H       1  UNL1        0.0362
     45 H          -0.0145    8.3353    0.8425 H       1  UNL1        0.0362
     46 H          -1.8352   10.0744    0.8025 H       1  UNL1        0.0348
     47 H          -1.8039   10.0710   -0.9554 H       1  UNL1        0.0348
     48 H           3.4837   14.4087   -0.1100 H       1  UNL1        0.0856
     49 H          -0.3441   16.5155   -1.9318 H       1  UNL1        0.0639
     50 H          -2.6349   17.4438   -2.1858 H       1  UNL1        0.0618
     51 H          -4.1626   17.4752   -0.2318 H       1  UNL1        0.0618
     52 H          -3.5442   16.2477    1.8339 H       1  UNL1        0.0618
     53 H          -1.5367   14.7871    1.8462 H       1  UNL1        0.0639
     54 H           1.4647    9.7795   -0.0692 H       1  UNL1        0.1700
@<TRIPOS>BOND
     1     1     2    1
     2     2     3   ar
     3     3     4    1
     4     3     5   ar
     5     5     6   ar
     6     6     7   ar
     7     7     8   ar
     8     2     8   ar
     9     8     9    1
    10     9    10   am
    11    10    11    2
    12    10    12    1
    13    12    13    1
    14    13    14   am
    15    14    15    2
    16    14    16    1
    17    16    17    1
    18    17    18    1
    19    18    19   ar
    20    19    20   ar
    21    20    21   ar
    22    21    22   ar
    23    22    23   ar
    24    23    24   ar
    25    20    24   ar
    26    24    25    1
    27    25    26   ar
    28    26    27   ar
    29    27    28   ar
    30    28    29   ar
    31    29    30   ar
    32    25    30   ar
    33    21    31   ar
    34    31    32    2
    35    31    33   ar
    36    18    33   ar
    37     1    34    1
    38     1    35    1
    39     1    36    1
    40     5    37    1
    41     6    38    1
    42     7    39    1
    43     9    40    1
    44    12    41    1
    45    12    42    1
    46    13    43    1
    47    16    44    1
    48    16    45    1
    49    17    46    1
    50    17    47    1
    51    22    48    1
    52    26    49    1
    53    27    50    1
    54    28    51    1
    55    29    52    1
    56    30    53    1
    57    33    54    1
