REMARK  5 active torsions:
REMARK  status: ('A' for Active; 'I' for Inactive)
REMARK    1  A    between atoms: C_2  and  O_4 
REMARK    2  A    between atoms: O_4  and  C_5 
REMARK    3  A    between atoms: C_8  and  N_9 
REMARK    4  A    between atoms: N_9  and  C_10 
REMARK    5  A    between atoms: C_13  and  C_14 
ROOT
ATOM      1  C   UNL d   1       9.336   1.824   0.964  0.00  0.00     0.161 C 
ATOM      2  N   UNL d   1      10.289   1.002   0.570  0.00  0.00    -0.257 N 
ATOM      3  N   UNL d   1      11.147   1.041  -0.555  0.00  0.00    -0.176 NA
ATOM      4  C   UNL d   1      10.942   2.034  -1.367  0.00  0.00     0.074 C 
ATOM      5  C   UNL d   1       9.973   3.189  -1.211  0.00  0.00     0.144 C 
ATOM      6  S   UNL d   1       9.017   3.328   0.246  0.00  0.00    -0.086 SA
ATOM      7  H   UNL d   1      10.356   0.176   1.162  0.00  0.00     0.191 HD
ENDROOT
BRANCH   1   8
ATOM      8  N   UNL d   1       8.455   1.359   1.975  0.00  0.00    -0.336 N 
ATOM      9  H   UNL d   1       8.760   1.638   2.902  0.00  0.00     0.168 HD
BRANCH   8  10
ATOM     10  C   UNL d   1       7.047   1.394   1.823  0.00  0.00     0.034 C 
ATOM     11  C   UNL d   1       6.178   1.199   2.892  0.00  0.00     0.032 C 
ATOM     12  C   UNL d   1       4.818   0.897   2.658  0.00  0.00     0.039 C 
ATOM     13  C   UNL d   1       4.286   0.935   1.366  0.00  0.00     0.069 C 
ATOM     14  C   UNL d   1       5.136   1.301   0.344  0.00  0.00     0.039 C 
ATOM     15  C   UNL d   1       6.493   1.436   0.546  0.00  0.00     0.032 C 
BRANCH  13  16
ATOM     16  O   UNL d   1       2.941   0.778   1.185  0.00  0.00    -0.347 OA
BRANCH  16  17
ATOM     17  C   UNL d   1       2.482  -0.023   0.070  0.00  0.00     0.120 C 
ATOM     18  C   UNL d   1       0.951  -0.023   0.117  0.00  0.00     0.040 C 
ATOM     19  C   UNL d   1       2.846   0.472  -1.333  0.00  0.00     0.040 C 
ENDBRANCH  16  17
ENDBRANCH  13  16
ENDBRANCH   8  10
ENDBRANCH   1   8
BRANCH   4  20
ATOM     20  C   UNL d   1      11.856   2.268  -2.507  0.00  0.00    -0.007 C 
ATOM     21  C   UNL d   1      12.278   1.532  -3.612  0.00  0.00     0.016 C 
ATOM     22  C   UNL d   1      13.324   2.114  -4.528  0.00  0.00     0.039 C 
ATOM     23  C   UNL d   1      13.877   3.427  -4.274  0.00  0.00     0.090 C 
ATOM     24  C   UNL d   1      13.562   3.766  -3.018  0.00  0.00     0.049 C 
ATOM     25  O   UNL d   1      14.813   4.489  -4.721  0.00  0.00    -0.341 OA
ATOM     26  C   UNL d   1      12.496   3.436  -2.272  0.00  0.00     0.040 C 
ATOM     27  N   UNL d   1      14.613   4.307  -2.319  0.00  0.00    -0.225 NA
ATOM     28  C   UNL d   1      14.357   5.655  -2.420  0.00  0.00     0.226 C 
ATOM     29  H   UNL d   1      15.421   4.086  -2.929  0.00  0.00     0.136 HD
ATOM     30  O   UNL d   1      13.634   6.298  -1.730  0.00  0.00    -0.277 OA
ATOM     31  C   UNL d   1      15.048   5.912  -3.732  0.00  0.00     0.272 C 
ENDBRANCH   4  20
TORSDOF 5
