@<TRIPOS>MOLECULE
*****
 61 63 0 0 0
SMALL
GASTEIGER

@<TRIPOS>ATOM
      1 C           6.2260   -0.5571    8.8091 C.3     1  UNL1        0.0790
      2 O           6.0701   -1.8332    8.1929 O.3     1  UNL1       -0.4915
      3 C           6.0700   -2.0068    6.8293 C.ar    1  UNL1        0.1615
      4 C           4.9255   -2.6997    6.3927 C.ar    1  UNL1       -0.0159
      5 C           4.8508   -3.2779    5.1236 C.ar    1  UNL1       -0.0495
      6 C           5.8969   -3.1256    4.2101 C.ar    1  UNL1        0.0054
      7 C           5.7836   -3.6184    2.7794 C.3     1  UNL1        0.0204
      8 C           4.8742   -2.6268    1.9886 C.3     1  UNL1        0.0591
      9 N           5.2574   -1.2223    1.9878 N.am    1  UNL1       -0.3055
     10 C           4.3952   -0.2923    1.4172 C.2     1  UNL1        0.2487
     11 O           3.3030   -0.5980    0.9814 O.2     1  UNL1       -0.2700
     12 C           4.8326    1.1134    1.3775 C.ar    1  UNL1        0.0916
     13 C           3.9544    2.1332    1.6817 C.ar    1  UNL1        0.0455
     14 N           4.2856    3.4520    1.6647 N.ar    1  UNL1       -0.2295
     15 C           5.5401    3.7452    1.2947 C.ar    1  UNL1        0.1899
     16 S           6.1541    5.3951    1.2945 S.3     1  UNL1       -0.0813
     17 C           4.7109    6.4470    1.7066 C.3     1  UNL1        0.0262
     18 C           5.0654    7.9286    1.6165 C.ar    1  UNL1       -0.0371
     19 C           4.4848    8.8663    2.4856 C.ar    1  UNL1       -0.0578
     20 C           4.7202   10.2374    2.3140 C.ar    1  UNL1       -0.0615
     21 C           5.5982   10.6857    1.3283 C.ar    1  UNL1       -0.0617
     22 C           6.1968    9.7712    0.4723 C.ar    1  UNL1       -0.0615
     23 C           5.9090    8.4136    0.5987 C.ar    1  UNL1       -0.0578
     24 N           6.4562    2.8249    0.9529 N.ar    1  UNL1       -0.2095
     25 C           6.0778    1.5379    0.9975 C.ar    1  UNL1        0.1456
     26 CL          7.3441    0.4711    0.5172 Cl      1  UNL1       -0.0611
     27 N           5.2087   -5.0462    2.7124 N.4     1  UNL1        0.2375
     28 C           5.0080   -5.5577    1.3138 C.3     1  UNL1       -0.0427
     29 C           6.0345   -6.0273    3.5130 C.3     1  UNL1       -0.0427
     30 C           7.0359   -2.4353    4.6282 C.ar    1  UNL1       -0.0078
     31 C           7.1380   -1.8705    5.9167 C.ar    1  UNL1        0.1619
     32 O           8.3750   -1.2895    6.0349 O.3     1  UNL1       -0.4914
     33 C           8.5809   -0.5690    7.2170 C.3     1  UNL1        0.0790
     34 H           5.8140   -0.5959    9.8204 H       1  UNL1        0.0660
     35 H           5.7792    0.2615    8.2398 H       1  UNL1        0.0660
     36 H           7.2673   -0.3418    9.0434 H       1  UNL1        0.0660
     37 H           4.0741   -2.8240    7.0617 H       1  UNL1        0.0655
     38 H           3.9680   -3.8658    4.8868 H       1  UNL1        0.0623
     39 H           6.7757   -3.6796    2.3106 H       1  UNL1        0.0920
     40 H           4.8331   -2.9127    0.9339 H       1  UNL1        0.0522
     41 H           3.8529   -2.6841    2.3849 H       1  UNL1        0.0522
     42 H           6.1742   -0.9305    2.3131 H       1  UNL1        0.1492
     43 H           2.9276    1.9275    1.9775 H       1  UNL1        0.0839
     44 H           4.3872    6.2021    2.7243 H       1  UNL1        0.0429
     45 H           3.8741    6.2612    1.0224 H       1  UNL1        0.0429
     46 H           3.8390    8.5481    3.3013 H       1  UNL1        0.0621
     47 H           4.2114   10.9638    2.9435 H       1  UNL1        0.0618
     48 H           5.8141   11.7454    1.2227 H       1  UNL1        0.0618
     49 H           6.8747   10.1056   -0.3084 H       1  UNL1        0.0618
     50 H           6.3723    7.7345   -0.1128 H       1  UNL1        0.0621
     51 H           4.2765   -5.0153    3.1412 H       1  UNL1        0.2035
     52 H           5.9808   -5.5929    0.8195 H       1  UNL1        0.0778
     53 H           4.3148   -4.8984    0.7896 H       1  UNL1        0.0778
     54 H           4.5534   -6.5490    1.3807 H       1  UNL1        0.0778
     55 H           7.0252   -6.0894    3.0572 H       1  UNL1        0.0778
     56 H           5.5225   -6.9926    3.4917 H       1  UNL1        0.0778
     57 H           6.1048   -5.6898    4.5490 H       1  UNL1        0.0778
     58 H           7.8964   -2.3316    3.9632 H       1  UNL1        0.0660
     59 H           9.5564   -0.0864    7.2682 H       1  UNL1        0.0660
     60 H           8.5575   -1.2900    8.0385 H       1  UNL1        0.0660
     61 H           7.8516    0.2474    7.2417 H       1  UNL1        0.0660
@<TRIPOS>UNITY_ATOM_ATTR
27 1
charge 1
@<TRIPOS>BOND
     1     1     2    1
     2     2     3    1
     3     3     4   ar
     4     4     5   ar
     5     5     6   ar
     6     8     9    1
     7     9    10   am
     8    10    11    2
     9    10    12    1
    10    12    13   ar
    11    13    14   ar
    12    14    15   ar
    13    15    16    1
    14    16    17    1
    15    17    18    1
    16    18    19   ar
    17    19    20   ar
    18    20    21   ar
    19    21    22   ar
    20    22    23   ar
    21    18    23   ar
    22    15    24   ar
    23    24    25   ar
    24    12    25   ar
    25    25    26    1
    26     7    27    1
    27    27    28    1
    28    27    29    1
    29     6    30   ar
    30    30    31   ar
    31     3    31   ar
    32    31    32    1
    33    32    33    1
    34     7     8    1
    35     7     6    1
    36     1    34    1
    37     1    35    1
    38     1    36    1
    39     4    37    1
    40     5    38    1
    41     7    39    1
    42     8    40    1
    43     8    41    1
    44     9    42    1
    45    13    43    1
    46    17    44    1
    47    17    45    1
    48    19    46    1
    49    20    47    1
    50    21    48    1
    51    22    49    1
    52    23    50    1
    53    27    51    1
    54    28    52    1
    55    28    53    1
    56    28    54    1
    57    29    55    1
    58    29    56    1
    59    29    57    1
    60    30    58    1
    61    33    59    1
    62    33    60    1
    63    33    61    1
