@<TRIPOS>MOLECULE
*****
 48 50 0 0 0
SMALL
GASTEIGER

@<TRIPOS>ATOM
      1 C           2.7668    0.1567    0.0970 C.3     1  UNL1       -0.0329
      2 C           1.3035    0.2634    0.3336 C.ar    1  UNL1        0.0343
      3 C           0.6405   -1.0651    0.6326 C.ar    1  UNL1       -0.0063
      4 C           1.1490   -2.5393    0.1396 C.3     1  UNL1        0.0699
      5 O           2.5191   -2.6611   -0.1054 O.3     1  UNL1       -0.3904
      6 C          -0.9384   -1.0172    0.8651 C.ar    1  UNL1        0.0236
      7 C          -2.2356    0.3053    0.5898 C.ar    1  UNL1        0.3007
      8 N          -3.7377    0.3152    0.6245 N.pl3   1  UNL1        0.0818
      9 O          -4.4040   -0.6503    1.0166 O.2     1  UNL1        0.0415
     10 O          -4.2444    1.3113    0.1002 O.co2   1  UNL1       -0.5760
     11 C          -1.5095    1.9011    0.0923 C.ar    1  UNL1        0.1837
     12 N          -2.2987    3.0119   -0.0893 N.pl3   1  UNL1       -0.3301
     13 C          -1.1512    3.7657    0.0563 C.3     1  UNL1        0.0306
     14 C          -0.6118    3.3030   -1.5785 C.3     1  UNL1        0.0060
     15 C          -1.1292    1.7654   -2.0264 C.3     1  UNL1       -0.0299
     16 N          -0.7483    0.4128   -0.6716 N.4     1  UNL1        0.2375
     17 C          -1.6922   -1.0183   -1.3242 C.3     1  UNL1       -0.0205
     18 C          -2.6676   -2.1015   -0.1104 C.3     1  UNL1       -0.0046
     19 C          -3.1156   -1.3870   -1.3393 C.3     1  UNL1       -0.0046
     20 C          -0.6326    1.0674    1.4878 C.3     1  UNL1       -0.0299
     21 C          -0.5342    2.9968    1.6296 C.3     1  UNL1        0.0060
     22 C           0.4539    1.7936    0.0198 C.ar    1  UNL1        0.3036
     23 N           1.5610    2.9009   -0.0097 N.pl3   1  UNL1        0.0820
     24 O           1.2549    4.0862    0.0840 O.2     1  UNL1        0.0415
     25 O           2.7293    2.5503   -0.1150 O.co2   1  UNL1       -0.5760
     26 H           3.2457   -0.8015    0.1895 H       1  UNL1        0.0280
     27 H           3.1919    0.6822    0.9398 H       1  UNL1        0.0280
     28 H           2.9463    0.4875   -0.9286 H       1  UNL1        0.0280
     29 H           0.6841   -2.9391   -0.7954 H       1  UNL1        0.0607
     30 H           0.8428   -3.2412    0.9226 H       1  UNL1        0.0607
     31 H           2.6899   -2.1557   -0.9193 H       1  UNL1        0.2098
     32 H          -0.8724   -1.9608    0.2104 H       1  UNL1        0.0689
     33 H          -3.2974    2.9511    0.1161 H       1  UNL1        0.1467
     34 H          -1.2812    4.8485    0.1375 H       1  UNL1        0.0501
     35 H           0.4559    3.2867   -1.7859 H       1  UNL1        0.0335
     36 H          -0.9511    4.0871   -2.2590 H       1  UNL1        0.0335
     37 H          -0.6191    1.3880   -2.9066 H       1  UNL1        0.0815
     38 H          -2.2254    1.7675   -2.1157 H       1  UNL1        0.0815
     39 H           0.1370    0.1633   -1.1336 H       1  UNL1        0.2036
     40 H          -0.9966   -1.3697   -2.0667 H       1  UNL1        0.0851
     41 H          -2.7349   -1.8272    1.0332 H       1  UNL1        0.0322
     42 H          -2.1673   -3.0263    0.2793 H       1  UNL1        0.0322
     43 H          -3.8339   -0.5857   -1.3787 H       1  UNL1        0.0322
     44 H          -3.5535   -2.0521   -2.0576 H       1  UNL1        0.0322
     45 H          -0.4010    0.3806    2.3133 H       1  UNL1        0.0815
     46 H          -1.7467    1.3499    1.9866 H       1  UNL1        0.0815
     47 H           0.4988    3.1585    1.9159 H       1  UNL1        0.0335
     48 H          -1.1326    3.4340    2.4413 H       1  UNL1        0.0335
@<TRIPOS>UNITY_ATOM_ATTR
8 1
charge 1
10 1
charge -1
16 1
charge 1
23 1
charge 1
25 1
charge -1
@<TRIPOS>BOND
     1     1     2    1
     2     2     3   ar
     3     3     4    1
     4     4     5    1
     5     3     6   ar
     6     6     7   ar
     7     7     8    1
     8     8     9    2
     9     8    10    1
    10     7    11   ar
    11    11    12    1
    12    12    13    1
    13    13    14    1
    14    14    15    1
    15    15    16    1
    16    16    17    1
    17    17    18    1
    18    18    19    1
    19    17    19    1
    20    16    20    1
    21    20    21    1
    22    13    21    1
    23    11    22   ar
    24     2    22   ar
    25    22    23    1
    26    23    24    2
    27    23    25    1
    28     1    26    1
    29     1    27    1
    30     1    28    1
    31     4    29    1
    32     4    30    1
    33     5    31    1
    34     6    32    1
    35    12    33    1
    36    13    34    1
    37    14    35    1
    38    14    36    1
    39    15    37    1
    40    15    38    1
    41    16    39    1
    42    17    40    1
    43    18    41    1
    44    18    42    1
    45    19    43    1
    46    19    44    1
    47    20    45    1
    48    20    46    1
    49    21    47    1
    50    21    48    1
