@<TRIPOS>MOLECULE
*****
 32 33 0 0 0
SMALL
GASTEIGER

@<TRIPOS>ATOM
      1 C           1.0476   -0.0736   -0.0246 C.3     1  UNL1        0.0125
      2 C           2.5534    0.0592    0.0752 C.2     1  UNL1        0.2141
      3 O           3.0917    1.1627    0.1124 O.2     1  UNL1       -0.2758
      4 N           3.2245   -1.1543    0.0825 N.am    1  UNL1       -0.2842
      5 C           4.6123   -1.2344   -0.1550 C.ar    1  UNL1        0.0549
      6 C           5.4124   -0.5439    0.7621 C.ar    1  UNL1       -0.0373
      7 C           6.7952   -0.5799    0.6824 C.ar    1  UNL1       -0.0415
      8 C           7.3946   -1.3034   -0.3381 C.ar    1  UNL1        0.0428
      9 CL          9.1161   -1.3165   -0.4313 Cl      1  UNL1       -0.0835
     10 C           6.6165   -2.0106   -1.2724 C.ar    1  UNL1       -0.0203
     11 C           5.2012   -2.0006   -1.1950 C.ar    1  UNL1        0.0565
     12 N           4.4856   -2.7224   -2.2140 N.am    1  UNL1       -0.2787
     13 C           3.1069   -2.8030   -2.3789 C.2     1  UNL1        0.2666
     14 O           2.2313   -2.3590   -1.6373 O.2     1  UNL1       -0.2682
     15 C           2.5526   -3.5524   -3.5102 C.ar    1  UNL1        0.1256
     16 C           2.9484   -4.8583   -3.7201 C.ar    1  UNL1       -0.0312
     17 C           2.2987   -5.5568   -4.7268 C.ar    1  UNL1       -0.0582
     18 C           1.2613   -4.9472   -5.4350 C.ar    1  UNL1       -0.0436
     19 C           0.8851   -3.6600   -5.0954 C.ar    1  UNL1        0.0284
     20 N           1.5188   -2.9450   -4.1549 N.ar    1  UNL1       -0.2504
     21 H           0.6002    0.9119    0.1323 H       1  UNL1        0.0323
     22 H           0.6643   -0.7535    0.7408 H       1  UNL1        0.0323
     23 H           0.7403   -0.4231   -1.0154 H       1  UNL1        0.0323
     24 H           2.6714   -1.8969   -0.3394 H       1  UNL1        0.1548
     25 H           4.9360    0.0116    1.5661 H       1  UNL1        0.0637
     26 H           7.3786   -0.0423    1.4237 H       1  UNL1        0.0633
     27 H           7.1432   -2.5558   -2.0540 H       1  UNL1        0.0651
     28 H           5.0582   -3.1604   -2.9300 H       1  UNL1        0.1552
     29 H           3.6948   -5.3270   -3.0903 H       1  UNL1        0.0640
     30 H           2.5884   -6.5785   -4.9486 H       1  UNL1        0.0619
     31 H           0.7485   -5.4693   -6.2337 H       1  UNL1        0.0633
     32 H           0.0522   -3.1575   -5.5803 H       1  UNL1        0.0830
@<TRIPOS>BOND
     1     1     2    1
     2     2     3    2
     3     2     4   am
     4     4     5    1
     5     5     6   ar
     6     6     7   ar
     7     7     8   ar
     8     8     9    1
     9     8    10   ar
    10    10    11   ar
    11     5    11   ar
    12    11    12    1
    13    12    13   am
    14    13    14    2
    15    13    15    1
    16    15    16   ar
    17    16    17   ar
    18    17    18   ar
    19    18    19   ar
    20    19    20   ar
    21    15    20   ar
    22     1    21    1
    23     1    22    1
    24     1    23    1
    25     4    24    1
    26     6    25    1
    27     7    26    1
    28    10    27    1
    29    12    28    1
    30    16    29    1
    31    17    30    1
    32    18    31    1
    33    19    32    1
