@<TRIPOS>MOLECULE
*****
 57 60 0 0 0
SMALL
GASTEIGER

@<TRIPOS>ATOM
      1 C           2.5146   -0.0328   -0.0133 C.3     1  UNL1       -0.0397
      2 C           1.0229   -0.0727    0.0031 C.ar    1  UNL1       -0.0503
      3 C           0.2884   -1.2698    0.0048 C.ar    1  UNL1       -0.0571
      4 C          -1.1189   -1.2896   -0.0022 C.ar    1  UNL1       -0.0402
      5 C          -1.8271   -0.1065   -0.0156 C.ar    1  UNL1        0.0335
      6 N          -3.2889   -0.1755   -0.0579 N.am    1  UNL1       -0.2840
      7 C          -3.9949    0.9681   -0.0448 C.2     1  UNL1        0.2372
      8 O          -3.2988    1.9516    0.1052 O.2     1  UNL1       -0.2735
      9 C          -5.4572    1.2719   -0.1149 C.3     1  UNL1        0.1051
     10 N          -5.8531    2.7604   -0.1660 N.ar    1  UNL1       -0.2784
     11 C          -7.2591    2.9238   -0.2706 C.ar    1  UNL1        0.3335
     12 O          -8.0030    1.9388   -0.3463 O.2     1  UNL1       -0.2462
     13 N          -7.7859    4.2196   -0.2172 N.ar    1  UNL1       -0.2559
     14 C          -9.2344    4.4234   -0.1588 C.3     1  UNL1        0.0560
     15 C          -9.8797    3.9193    1.1138 C.ar    1  UNL1       -0.0275
     16 C         -11.2632    4.0474    1.2935 C.ar    1  UNL1       -0.0569
     17 C         -11.8675    3.5250    2.4390 C.ar    1  UNL1       -0.0614
     18 C         -11.1024    2.8677    3.4038 C.ar    1  UNL1       -0.0617
     19 C          -9.7310    2.7500    3.2424 C.ar    1  UNL1       -0.0614
     20 C          -9.1274    3.3030    2.1256 C.ar    1  UNL1       -0.0569
     21 C          -7.0596    5.3868   -0.1503 C.ar    1  UNL1        0.2654
     22 O          -7.5887    6.4933   -0.1309 O.2     1  UNL1       -0.2668
     23 C          -5.6362    5.2384   -0.1136 C.ar    1  UNL1        0.0742
     24 C          -4.6664    6.3185   -0.0736 C.ar    1  UNL1       -0.0168
     25 C          -5.0384    7.7350   -0.0648 C.3     1  UNL1       -0.0377
     26 C          -3.3514    5.8991   -0.0626 C.ar    1  UNL1        0.0807
     27 C          -2.0488    6.5990   -0.0342 C.2     1  UNL1        0.2643
     28 O          -0.9455    6.0451   -0.0141 O.2     1  UNL1       -0.2683
     29 N          -2.1164    7.9971   -0.0198 N.am    1  UNL1       -0.2491
     30 N          -0.9858    8.8286   -0.0530 N.3     1  UNL1       -0.2541
     31 S          -3.3918    4.2419   -0.1212 S.2     1  UNL1       -0.0653
     32 C          -5.0842    3.9861   -0.1197 C.ar    1  UNL1        0.0979
     33 C          -1.0429    1.0909   -0.0021 C.ar    1  UNL1       -0.0402
     34 C           0.3423    1.1219    0.0061 C.ar    1  UNL1       -0.0571
     35 H           2.9292   -1.0415   -0.0006 H       1  UNL1        0.0278
     36 H           2.8854    0.5097    0.8634 H       1  UNL1        0.0278
     37 H           2.8623    0.4776   -0.9184 H       1  UNL1        0.0278
     38 H           0.8169   -2.2160    0.0063 H       1  UNL1        0.0621
     39 H          -1.6434   -2.2362   -0.0025 H       1  UNL1        0.0636
     40 H          -3.7458   -1.0756   -0.0635 H       1  UNL1        0.1549
     41 H          -5.9359    0.8309    0.7734 H       1  UNL1        0.0589
     42 H          -5.8822    0.7842   -0.9999 H       1  UNL1        0.0589
     43 H          -9.6842    3.9651   -1.0445 H       1  UNL1        0.0544
     44 H          -9.4820    5.4937   -0.2100 H       1  UNL1        0.0544
     45 H         -11.8796    4.5467    0.5474 H       1  UNL1        0.0621
     46 H         -12.9407    3.6177    2.5772 H       1  UNL1        0.0618
     47 H         -11.5702    2.4478    4.2876 H       1  UNL1        0.0618
     48 H          -9.1163    2.2257    3.9671 H       1  UNL1        0.0618
     49 H          -8.0503    3.2037    2.0560 H       1  UNL1        0.0621
     50 H          -6.0937    7.9409   -0.0713 H       1  UNL1        0.0278
     51 H          -4.6294    8.1778   -0.9765 H       1  UNL1        0.0278
     52 H          -4.6395    8.1678    0.8557 H       1  UNL1        0.0278
     53 H          -2.9961    8.4715   -0.0934 H       1  UNL1        0.1690
     54 H          -0.1556    8.2299    0.0034 H       1  UNL1        0.1405
     55 H          -0.9900    9.3904    0.8015 H       1  UNL1        0.1405
     56 H          -1.4203    2.1074    0.0009 H       1  UNL1        0.0636
     57 H           0.8491    2.0876    0.0069 H       1  UNL1        0.0621
@<TRIPOS>BOND
     1     1     2    1
     2     2     3   ar
     3     3     4   ar
     4     4     5   ar
     5     5     6    1
     6     6     7   am
     7     7     8    2
     8     7     9    1
     9     9    10    1
    10    10    11   ar
    11    11    12    2
    12    11    13   ar
    13    13    14    1
    14    14    15    1
    15    15    16   ar
    16    16    17   ar
    17    17    18   ar
    18    18    19   ar
    19    19    20   ar
    20    15    20   ar
    21    13    21   ar
    22    21    22    2
    23    21    23   ar
    24    23    24   ar
    25    24    25    1
    26    24    26   ar
    27    26    27    1
    28    27    28    2
    29    27    29   am
    30    29    30    1
    31    26    31   ar
    32    31    32   ar
    33    23    32   ar
    34    10    32   ar
    35     5    33   ar
    36    33    34   ar
    37     2    34   ar
    38     1    35    1
    39     1    36    1
    40     1    37    1
    41     3    38    1
    42     4    39    1
    43     6    40    1
    44     9    41    1
    45     9    42    1
    46    14    43    1
    47    14    44    1
    48    16    45    1
    49    17    46    1
    50    18    47    1
    51    19    48    1
    52    20    49    1
    53    25    50    1
    54    25    51    1
    55    25    52    1
    56    29    53    1
    57    30    54    1
    58    30    55    1
    59    33    56    1
    60    34    57    1
