REMARK  8 active torsions:
REMARK  status: ('A' for Active; 'I' for Inactive)
REMARK    1  A    between atoms: C_2  and  C_3 
REMARK    2  A    between atoms: C_3  and  N_4 
REMARK       I    between atoms: N_4  and  C_5 
REMARK       I    between atoms: C_5  and  N_7 
REMARK    3  A    between atoms: N_7  and  N_8 
REMARK       I    between atoms: N_8  and  C_9 
REMARK    4  A    between atoms: C_9  and  C_11 
REMARK    5  A    between atoms: C_11  and  O_13 
REMARK    6  A    between atoms: O_13  and  C_14 
REMARK    7  A    between atoms: C_17  and  O_18 
REMARK    8  A    between atoms: O_18  and  C_19 
ROOT
ATOM      1  N   UNL d   1       7.392   3.113  -2.163  0.00  0.00    -0.264 N 
ATOM      2  C   UNL d   1       8.791   3.077  -2.116  0.00  0.00     0.265 C 
ATOM      3  O   UNL d   1       9.375   2.173  -1.513  0.00  0.00    -0.269 OA
ATOM      4  H   UNL d   1       6.849   3.842  -2.624  0.00  0.00     0.190 HD
ENDROOT
BRANCH   2   5
ATOM      5  C   UNL d   1       9.550   4.244  -2.869  0.00  0.00     0.218 C 
ATOM      6  C   UNL d   1       9.027   5.559  -2.281  0.00  0.00     0.050 C 
BRANCH   5   7
ATOM      7  O   UNL d   1      10.996   4.060  -2.787  0.00  0.00    -0.337 OA
BRANCH   7   8
ATOM      8  C   UNL d   1      11.856   4.980  -3.340  0.00  0.00     0.070 C 
ATOM      9  C   UNL d   1      12.996   4.549  -4.030  0.00  0.00     0.039 C 
ATOM     10  C   UNL d   1      13.952   5.485  -4.504  0.00  0.00     0.039 C 
ATOM     11  C   UNL d   1      13.731   6.860  -4.378  0.00  0.00     0.068 C 
ATOM     12  C   UNL d   1      12.624   7.274  -3.660  0.00  0.00     0.039 C 
ATOM     13  C   UNL d   1      11.762   6.342  -3.092  0.00  0.00     0.039 C 
BRANCH  11  14
ATOM     14  O   UNL d   1      14.638   7.720  -4.943  0.00  0.00    -0.352 OA
BRANCH  14  15
ATOM     15  C   UNL d   1      14.281   9.111  -4.885  0.00  0.00     0.171 C 
ATOM     16  C   UNL d   1      15.313   9.930  -5.632  0.00  0.00     0.034 C 
ENDBRANCH  14  15
ENDBRANCH  11  14
ENDBRANCH   7   8
ENDBRANCH   5   7
ENDBRANCH   2   5
BRANCH   1  17
ATOM     17  N   UNL d   1       6.614   2.136  -1.456  0.00  0.00    -0.249 N 
ATOM     18  C   UNL d   1       5.230   2.208  -1.494  0.00  0.00     0.334 C 
ATOM     19  N   UNL d   1       4.571   1.202  -0.812  0.00  0.00    -0.342 N 
ATOM     20  O   UNL d   1       4.640   3.108  -2.098  0.00  0.00    -0.246 OA
ATOM     21  H   UNL d   1       5.105   0.487  -0.339  0.00  0.00     0.164 HD
ATOM     22  H   UNL d   1       7.138   1.415  -0.967  0.00  0.00     0.192 HD
BRANCH  19  23
ATOM     23  C   UNL d   1       3.106   1.135  -0.771  0.00  0.00     0.124 C 
BRANCH  23  24
ATOM     24  C   UNL d   1       2.546  -0.053   0.026  0.00  0.00     0.015 C 
ATOM     25  C   UNL d   1       1.017  -0.070   0.037  0.00  0.00     0.006 C 
ENDBRANCH  23  24
ENDBRANCH  19  23
ENDBRANCH   1  17
TORSDOF 8
