@<TRIPOS>MOLECULE
*****
 59 62 0 0 0
SMALL
GASTEIGER

@<TRIPOS>ATOM
      1 C           1.0207    0.0936    0.0602 C.3     1  UNL1        0.0788
      2 O           2.4399    0.2164    0.1647 O.3     1  UNL1       -0.4949
      3 C           3.1169   -0.7839    0.8164 C.ar    1  UNL1        0.1253
      4 C           4.3759   -0.4419    1.3520 C.ar    1  UNL1        0.0015
      5 C           5.2410   -1.4259    1.8748 C.ar    1  UNL1        0.0397
      6 N           6.6204   -1.1520    2.1109 N.pl3   1  UNL1       -0.2941
      7 C           7.5437   -2.0449    2.6184 C.2     1  UNL1        0.1543
      8 N           8.2598   -1.8316    3.6692 N.2     1  UNL1       -0.2561
      9 C           9.0644   -3.0219    4.0639 C.3     1  UNL1        0.0944
     10 C           8.5297   -3.5710    5.4290 C.3     1  UNL1        0.1043
     11 O           7.1243   -3.4641    5.5940 O.3     1  UNL1       -0.3871
     12 C           8.9317   -5.0159    5.6816 C.3     1  UNL1        0.0838
     13 O          10.3281   -4.9612    5.9065 O.3     1  UNL1       -0.3891
     14 C           8.5342   -5.9126    4.5014 C.3     1  UNL1       -0.0121
     15 C           9.2686   -5.5484    3.2118 C.3     1  UNL1        0.0522
     16 C          10.7125   -6.1489    3.1523 C.2     1  UNL1        0.2176
     17 O          11.0650   -6.8384    2.2219 O.2     1  UNL1       -0.2755
     18 N          11.5620   -5.7747    4.1778 N.am    1  UNL1       -0.3122
     19 C          12.9825   -6.0072    4.2684 C.3     1  UNL1        0.0231
     20 C          13.6825   -5.7513    2.9598 C.3     1  UNL1       -0.0345
     21 C          15.1256   -5.5445    3.3597 C.3     1  UNL1       -0.0513
     22 C          15.0956   -4.9203    4.7543 C.3     1  UNL1       -0.0513
     23 C          13.6433   -4.9867    5.2133 C.3     1  UNL1       -0.0345
     24 C           9.2446   -4.0243    2.8985 C.3     1  UNL1        0.0484
     25 S           7.9042   -3.5431    1.7624 S.3     1  UNL1       -0.0843
     26 C           4.7333   -2.7236    1.9753 C.ar    1  UNL1        0.0015
     27 C           3.4999   -3.0811    1.4343 C.ar    1  UNL1        0.1253
     28 O           3.2292   -4.4223    1.4839 O.3     1  UNL1       -0.4949
     29 C           2.0432   -4.8411    0.8223 C.3     1  UNL1        0.0788
     30 C           2.6952   -2.1100    0.8481 C.ar    1  UNL1        0.0219
     31 H           0.6639    0.8718   -0.6233 H       1  UNL1        0.0660
     32 H           0.5667    0.2679    1.0396 H       1  UNL1        0.0660
     33 H           0.6778   -0.8576   -0.3597 H       1  UNL1        0.0660
     34 H           4.6660    0.6067    1.3338 H       1  UNL1        0.0673
     35 H           6.7871   -0.1856    2.3681 H       1  UNL1        0.1540
     36 H          10.0792   -2.6417    4.2534 H       1  UNL1        0.0583
     37 H           9.0003   -2.9614    6.2140 H       1  UNL1        0.0641
     38 H           6.7011   -3.9004    4.8401 H       1  UNL1        0.2100
     39 H           8.4934   -5.4287    6.5957 H       1  UNL1        0.0620
     40 H          10.6990   -4.3988    5.1844 H       1  UNL1        0.2099
     41 H           7.4507   -5.8239    4.3315 H       1  UNL1        0.0298
     42 H           8.7048   -6.9720    4.7332 H       1  UNL1        0.0298
     43 H           8.7545   -6.0845    2.3974 H       1  UNL1        0.0407
     44 H          11.1739   -5.9414    5.1049 H       1  UNL1        0.1490
     45 H          13.1417   -7.0229    4.6512 H       1  UNL1        0.0498
     46 H          13.2770   -4.8446    2.4936 H       1  UNL1        0.0283
     47 H          13.5521   -6.5826    2.2629 H       1  UNL1        0.0283
     48 H          15.6360   -4.9113    2.6309 H       1  UNL1        0.0266
     49 H          15.6342   -6.5136    3.3969 H       1  UNL1        0.0266
     50 H          15.4500   -3.8839    4.7359 H       1  UNL1        0.0266
     51 H          15.7467   -5.4773    5.4371 H       1  UNL1        0.0266
     52 H          13.1841   -3.9935    5.1072 H       1  UNL1        0.0283
     53 H          13.5553   -5.2519    6.2742 H       1  UNL1        0.0283
     54 H          10.1750   -3.7773    2.3713 H       1  UNL1        0.0445
     55 H           5.3121   -3.5089    2.4453 H       1  UNL1        0.0673
     56 H           1.9812   -5.9298    0.8908 H       1  UNL1        0.0660
     57 H           2.0616   -4.5749   -0.2410 H       1  UNL1        0.0660
     58 H           1.1656   -4.4185    1.3210 H       1  UNL1        0.0660
     59 H           1.7636   -2.3976    0.3847 H       1  UNL1        0.0691
@<TRIPOS>BOND
     1     1     2    1
     2     2     3    1
     3     3     4   ar
     4     4     5   ar
     5     5     6    1
     6     6     7    1
     7     7     8    2
     8     8     9    1
     9     9    10    1
    10    10    12    1
    11    12    13    1
    12    12    14    1
    13    14    15    1
    14    16    17    2
    15    16    18   am
    16    18    19    1
    17    19    20    1
    18    20    21    1
    19    21    22    1
    20    22    23    1
    21    19    23    1
    22    15    24    1
    23     9    24    1
    24    24    25    1
    25     7    25    1
    26     5    26   ar
    27    26    27   ar
    28    27    28    1
    29    28    29    1
    30    27    30   ar
    31     3    30   ar
    32    10    11    1
    33    15    16    1
    34     1    31    1
    35     1    32    1
    36     1    33    1
    37     4    34    1
    38     6    35    1
    39     9    36    1
    40    10    37    1
    41    11    38    1
    42    12    39    1
    43    13    40    1
    44    14    41    1
    45    14    42    1
    46    15    43    1
    47    18    44    1
    48    19    45    1
    49    20    46    1
    50    20    47    1
    51    21    48    1
    52    21    49    1
    53    22    50    1
    54    22    51    1
    55    23    52    1
    56    23    53    1
    57    24    54    1
    58    26    55    1
    59    29    56    1
    60    29    57    1
    61    29    58    1
    62    30    59    1
