@<TRIPOS>MOLECULE
*****
 61 64 0 0 0
SMALL
GASTEIGER

@<TRIPOS>ATOM
      1 CD1         7.0030    2.0573   -2.1993 C.3     1  LEU1       -0.0626
      2 CG          6.6833    3.3278   -1.4293 C.3     1  LEU1       -0.0447
      3 CD2         5.1704    3.3820   -1.3745 C.3     1  LEU1       -0.0626
      4 CB          7.2925    3.4033   -0.0137 C.3     1  LEU1       -0.0269
      5 CA          8.8305    3.3758   -0.0344 C.3     1  LEU1        0.0629
      6 N           9.2125    1.9795   -0.3753 N.am    1  LEU1       -0.3058
      7 C           9.8863    1.5838   -1.5279 C.2     0  UNK0        0.2345
      8 O          10.1987    2.3843   -2.4134 O.2     0  UNK0       -0.2737
      9 C          10.2009    0.0507   -1.6864 C.3     0  UNK0        0.1103
     10 C          11.7242   -0.0599   -1.4777 C.3     0  UNK0        0.0017
     11 C          12.1932    0.5480   -0.1842 C.ar    0  UNK0       -0.0201
     12 C          11.4443    0.8392    0.9306 C.ar    0  UNK0        0.0060
     13 N          12.1363    1.7142    1.7181 N.ar    0  UNK0       -0.3604
     14 C          13.4550    1.6302    1.3788 C.ar    0  UNK0        0.0467
     15 C          14.5750    2.1229    2.0380 C.ar    0  UNK0       -0.0378
     16 C          15.8073    1.8663    1.4388 C.ar    0  UNK0       -0.0598
     17 C          15.9008    1.1821    0.2235 C.ar    0  UNK0       -0.0611
     18 C          14.7598    0.7285   -0.4381 C.ar    0  UNK0       -0.0523
     19 C          13.5147    0.9329    0.1673 C.ar    0  UNK0        0.0029
     20 N           9.7304   -0.5026   -3.0029 N.am    0  UNK0       -0.2445
     21 C          10.2469   -0.0476   -4.2077 C.2     0  UNK0        0.2521
     22 O          11.4511    0.0741   -4.4579 O.2     0  UNK0       -0.2698
     23 C           9.2285    0.3056   -5.2349 C.ar    0  UNK0        0.0579
     24 C           9.5808    1.0620   -6.3590 C.ar    0  UNK0       -0.0478
     25 C           8.5949    1.4652   -7.2576 C.ar    0  UNK0       -0.0609
     26 C           7.2661    1.1019   -7.0349 C.ar    0  UNK0       -0.0600
     27 C           6.9154    0.3517   -5.9018 C.ar    0  UNK0       -0.0400
     28 C           7.8915   -0.0534   -4.9829 C.ar    0  UNK0        0.0424
     29 N           7.5609   -0.7059   -3.7901 N.pl3   0  UNK0       -0.3031
     30 C           8.6406   -1.4183   -3.1773 C.3     0  UNK0        0.1965
     31 O           8.2013   -1.9949   -1.9820 O.3     0  UNK0       -0.3588
     32 C           9.3030    3.9455    1.3654 C.2     1  LEU1        0.0620
     33 O           9.8835    3.1311    2.1457 O.co2   1  LEU1       -0.5479
     34 OXT         9.0117    5.1590    1.5846 O.co2   1  LEU1       -0.5479
     35 HD11        6.5020    2.0092   -3.1660 H       1  LEU1        0.0232
     36 HD12        6.7912    1.1517   -1.6189 H       1  LEU1        0.0232
     37 HD13        8.0294    2.0679   -2.4963 H       1  LEU1        0.0232
     38 HG          7.0656    4.1840   -1.9989 H       1  LEU1        0.0296
     39 HD21        4.7830    2.5082   -0.8386 H       1  LEU1        0.0232
     40 HD22        4.7729    3.3543   -2.3949 H       1  LEU1        0.0232
     41 HD23        4.8206    4.2904   -0.8849 H       1  LEU1        0.0232
     42 HB1         6.9265    2.5609    0.5928 H       1  LEU1        0.0289
     43 HB2         6.9211    4.3074    0.4859 H       1  LEU1        0.0289
     44 HA          9.2307    4.0477   -0.8014 H       1  LEU1        0.0560
     45 H           8.9580    1.3357    0.3555 H       1  LEU1        0.1494
     46 H           9.6999   -0.5083   -0.8879 H       0  UNK0        0.0601
     47 H          12.0363   -1.1071   -1.5215 H       0  UNK0        0.0337
     48 H          12.2366    0.4646   -2.2943 H       0  UNK0        0.0337
     49 H          10.4186    0.6808    1.1891 H       0  UNK0        0.0810
     50 H          11.6904    2.2875    2.4359 H       0  UNK0        0.1653
     51 H          14.4813    2.6513    2.9805 H       0  UNK0        0.0638
     52 H          16.7083    2.2143    1.9315 H       0  UNK0        0.0618
     53 H          16.8707    0.9922   -0.2210 H       0  UNK0        0.0618
     54 H          14.8198    0.1869   -1.3759 H       0  UNK0        0.0624
     55 H          10.6135    1.3706   -6.5039 H       0  UNK0        0.0626
     56 H           8.8609    2.0771   -8.1166 H       0  UNK0        0.0618
     57 H           6.4986    1.4208   -7.7371 H       0  UNK0        0.0618
     58 H           5.8707    0.0960   -5.7491 H       0  UNK0        0.0636
     59 H           6.6193   -1.0289   -3.6340 H       0  UNK0        0.1501
     60 H           8.9797   -2.2400   -3.8284 H       0  UNK0        0.1036
     61 H           7.8299   -1.2570   -1.4821 H       0  UNK0        0.2134
@<TRIPOS>UNITY_ATOM_ATTR
34 1
charge -1
@<TRIPOS>BOND
     1     1     2    1
     2     2     3    1
     3     2     4    1
     4     6     7   am
     5     7     8    2
     6    10    11    1
     7    11    12   ar
     8    12    13   ar
     9    13    14   ar
    10    14    15   ar
    11    15    16   ar
    12    16    17   ar
    13    17    18   ar
    14    18    19   ar
    15    11    19   ar
    16    14    19   ar
    17     9    20    1
    18    20    21   am
    19    21    22    2
    20    21    23    1
    21    23    24   ar
    22    24    25   ar
    23    25    26   ar
    24    26    27   ar
    25    27    28   ar
    26    23    28   ar
    27    28    29    1
    28    29    30    1
    29    20    30    1
    30    30    31    1
    31     5    32    1
    32    32    33   ar
    33    32    34   ar
    34     9    10    1
    35     9     7    1
    36     5     6    1
    37     5     4    1
    38     1    35    1
    39     1    36    1
    40     1    37    1
    41     2    38    1
    42     3    39    1
    43     3    40    1
    44     3    41    1
    45     4    42    1
    46     4    43    1
    47     5    44    1
    48     6    45    1
    49     9    46    1
    50    10    47    1
    51    10    48    1
    52    12    49    1
    53    13    50    1
    54    15    51    1
    55    16    52    1
    56    17    53    1
    57    18    54    1
    58    24    55    1
    59    25    56    1
    60    26    57    1
    61    27    58    1
    62    29    59    1
    63    30    60    1
    64    31    61    1
