@<TRIPOS>MOLECULE
*****
 57 61 0 0 0
SMALL
GASTEIGER

@<TRIPOS>ATOM
      1 C           0.9913    0.0258   -0.1066 C.3     1  UNL1       -0.0470
      2 C           2.5146   -0.0221   -0.0984 C.3     1  UNL1        0.0241
      3 N           3.0002   -0.6111    1.1439 N.ar    1  UNL1       -0.3026
      4 C           3.5534    0.2354    2.1075 C.ar    1  UNL1        0.3164
      5 O           3.7487    1.4374    1.9292 O.2     1  UNL1       -0.2618
      6 C           3.9270   -0.3923    3.4607 C.ar    1  UNL1        0.3141
      7 O           4.4355    0.2849    4.3558 O.2     1  UNL1       -0.2620
      8 N           3.6632   -1.7271    3.6349 N.ar    1  UNL1       -0.3164
      9 C           3.1550   -2.5430    2.6228 C.ar    1  UNL1        0.0666
     10 C           2.9702   -3.9065    2.8621 C.ar    1  UNL1       -0.0241
     11 C           2.6518   -4.7721    1.8004 C.ar    1  UNL1        0.0402
     12 C           2.4797   -6.2238    2.0864 C.2     1  UNL1        0.2608
     13 O           2.6695   -6.6191    3.2318 O.2     1  UNL1       -0.2686
     14 N           2.0992   -7.0427    1.0366 N.am    1  UNL1       -0.2196
     15 N           1.8676   -8.3949    1.2777 N.am    1  UNL1       -0.1363
     16 C           1.0079   -8.8744    2.2272 C.2     1  UNL1        0.3268
     17 O           0.3323   -8.2568    3.0402 O.2     1  UNL1       -0.2506
     18 N           0.9389  -10.2405    2.0841 N.am    1  UNL1       -0.2763
     19 C           1.6977  -10.7509    0.9473 C.3     1  UNL1        0.1651
     20 C           2.7457  -11.7424    1.4671 C.ar    1  UNL1       -0.0107
     21 C           2.3478  -12.8886    2.2024 C.ar    1  UNL1       -0.0557
     22 C           3.2797  -13.8299    2.6332 C.ar    1  UNL1       -0.0614
     23 C           4.6183  -13.6700    2.2967 C.ar    1  UNL1       -0.0617
     24 C           5.0142  -12.6005    1.4981 C.ar    1  UNL1       -0.0614
     25 C           4.0957  -11.6251    1.1191 C.ar    1  UNL1       -0.0557
     26 C           0.7391  -11.3795   -0.0836 C.ar    1  UNL1       -0.0107
     27 C          -0.3150  -10.6336   -0.6316 C.ar    1  UNL1       -0.0557
     28 C          -1.3414  -11.2720   -1.3308 C.ar    1  UNL1       -0.0614
     29 C          -1.2784  -12.6394   -1.5913 C.ar    1  UNL1       -0.0617
     30 C          -0.1620  -13.3624   -1.2070 C.ar    1  UNL1       -0.0614
     31 C           0.8223  -12.7410   -0.4487 C.ar    1  UNL1       -0.0557
     32 C           2.2899   -9.3924    0.4285 C.2     1  UNL1        0.2723
     33 O           2.9683   -9.2185   -0.5802 O.2     1  UNL1       -0.2704
     34 C           2.4718   -4.2429    0.5260 C.ar    1  UNL1       -0.0475
     35 C           2.4340   -2.8658    0.3538 C.ar    1  UNL1       -0.0354
     36 C           2.8476   -2.0026    1.3740 C.ar    1  UNL1        0.0685
     37 H           0.6263    0.4686   -1.0351 H       1  UNL1        0.0247
     38 H           0.6249    0.6095    0.7435 H       1  UNL1        0.0247
     39 H           0.5427   -0.9691   -0.0163 H       1  UNL1        0.0247
     40 H           2.9007    0.9957   -0.2122 H       1  UNL1        0.0490
     41 H           2.9148   -0.5840   -0.9503 H       1  UNL1        0.0490
     42 H           3.9317   -2.1147    4.5305 H       1  UNL1        0.1691
     43 H           3.0926   -4.3080    3.8666 H       1  UNL1        0.0646
     44 H           2.0115   -6.7477    0.0734 H       1  UNL1        0.1739
     45 H           0.3657  -10.7904    2.7061 H       1  UNL1        0.1519
     46 H           1.2903  -13.1075    2.3617 H       1  UNL1        0.0621
     47 H           2.9574  -14.6989    3.2015 H       1  UNL1        0.0618
     48 H           5.3554  -14.3883    2.6419 H       1  UNL1        0.0618
     49 H           6.0419  -12.5226    1.1552 H       1  UNL1        0.0618
     50 H           4.4591  -10.7945    0.5200 H       1  UNL1        0.0621
     51 H          -0.3713   -9.5560   -0.4969 H       1  UNL1        0.0621
     52 H          -2.2041  -10.7010   -1.6613 H       1  UNL1        0.0618
     53 H          -2.0909  -13.1404   -2.1074 H       1  UNL1        0.0618
     54 H          -0.0540  -14.4127   -1.4641 H       1  UNL1        0.0618
     55 H           1.6420  -13.3781   -0.1263 H       1  UNL1        0.0621
     56 H           2.3553   -4.8522   -0.3618 H       1  UNL1        0.0626
     57 H           2.0967   -2.5061   -0.6126 H       1  UNL1        0.0639
@<TRIPOS>BOND
     1     1     2    1
     2     2     3    1
     3     3     4   ar
     4     4     5    2
     5     4     6   ar
     6     6     7    2
     7     6     8   ar
     8     8     9   ar
     9     9    10   ar
    10    10    11   ar
    11    11    12    1
    12    12    13    2
    13    12    14   am
    14    14    15    1
    15    15    16   am
    16    16    17    2
    17    16    18   am
    18    18    19    1
    19    19    20    1
    20    20    21   ar
    21    21    22   ar
    22    22    23   ar
    23    23    24   ar
    24    24    25   ar
    25    20    25   ar
    26    19    26    1
    27    26    27   ar
    28    27    28   ar
    29    28    29   ar
    30    29    30   ar
    31    30    31   ar
    32    26    31   ar
    33    19    32    1
    34    15    32   am
    35    32    33    2
    36    11    34   ar
    37    34    35   ar
    38    35    36   ar
    39     9    36   ar
    40     3    36   ar
    41     1    37    1
    42     1    38    1
    43     1    39    1
    44     2    40    1
    45     2    41    1
    46     8    42    1
    47    10    43    1
    48    14    44    1
    49    18    45    1
    50    21    46    1
    51    22    47    1
    52    23    48    1
    53    24    49    1
    54    25    50    1
    55    27    51    1
    56    28    52    1
    57    29    53    1
    58    30    54    1
    59    31    55    1
    60    34    56    1
    61    35    57    1
