REMARK  4 active torsions:
REMARK  status: ('A' for Active; 'I' for Inactive)
REMARK    1  A    between atoms: C_3  and  N_4 
REMARK    2  A    between atoms: C_3  and  C_16 
REMARK       I    between atoms: N_4  and  C_5 
REMARK    3  A    between atoms: C_5  and  C_7 
REMARK       I    between atoms: C_7  and  N_9 
REMARK    4  A    between atoms: N_9  and  C_10 
ROOT
ATOM      1  N   UNL d   1       0.982   0.015   0.097  0.00  0.00    -0.099 N 
ATOM      2  C   UNL d   1       2.243   0.015   0.097  0.00  0.00     0.010 C 
ATOM      3  C   UNL d   1       3.763   0.015   0.097  0.00  0.00     0.214 C 
ENDROOT
BRANCH   3   4
ATOM      4  N   UNL d   1       4.234  -1.210  -0.604  0.00  0.00    -0.333 N 
ATOM      5  C   UNL d   1       3.913  -2.502  -0.202  0.00  0.00     0.310 C 
ATOM      6  O   UNL d   1       3.228  -2.783   0.778  0.00  0.00    -0.262 OA
ATOM      7  H   UNL d   1       4.736  -1.148  -1.485  0.00  0.00     0.164 HD
BRANCH   5   8
ATOM      8  C   UNL d   1       4.488  -3.636  -1.105  0.00  0.00     0.314 C 
ATOM      9  O   UNL d   1       5.190  -3.300  -2.055  0.00  0.00    -0.262 OA
ATOM     10  N   UNL d   1       4.093  -4.930  -0.772  0.00  0.00    -0.319 N 
ATOM     11  H   UNL d   1       3.342  -5.022  -0.092  0.00  0.00     0.169 HD
BRANCH  10  12
ATOM     12  C   UNL d   1       4.496  -6.086  -1.486  0.00  0.00     0.035 A 
ATOM     13  C   UNL d   1       3.575  -7.113  -1.732  0.00  0.00     0.029 A 
ATOM     14  C   UNL d   1       3.965  -8.267  -2.430  0.00  0.00     0.002 A 
ATOM     15  C   UNL d   1       5.273  -8.400  -2.894  0.00  0.00     0.000 A 
ATOM     16  C   UNL d   1       6.201  -7.398  -2.625  0.00  0.00     0.002 A 
ATOM     17  C   UNL d   1       5.814  -6.247  -1.927  0.00  0.00     0.029 A 
ENDBRANCH  10  12
ENDBRANCH   5   8
ENDBRANCH   3   4
BRANCH   3  18
ATOM     18  C   UNL d   1       4.258   1.317  -0.508  0.00  0.00     0.016 A 
ATOM     19  C   UNL d   1       5.392   1.423  -1.327  0.00  0.00     0.016 A 
ATOM     20  C   UNL d   1       5.811   2.679  -1.780  0.00  0.00     0.043 A 
ATOM     21  C   UNL d   1       5.067   3.817  -1.481  0.00  0.00     0.119 A 
ATOM     22  F   UNL d   1       5.444   5.002  -1.972  0.00  0.00    -0.206 F 
ATOM     23  C   UNL d   1       3.943   3.743  -0.685  0.00  0.00     0.085 A 
ATOM     24  C   UNL d   1       3.572   2.508  -0.184  0.00  0.00     0.128 A 
ATOM     25  F   UNL d   1       2.514   2.480   0.637  0.00  0.00    -0.205 F 
ENDBRANCH   3  18
TORSDOF 4
