@<TRIPOS>MOLECULE
*****
 66 68 0 0 0
SMALL
GASTEIGER

@<TRIPOS>ATOM
      1 C           1.6930    1.8070   -0.1271 C.3     1  UNL1       -0.0394
      2 C           0.3915    1.0298   -0.1639 C.ar    1  UNL1       -0.0458
      3 C          -0.8307    1.6006    0.0418 C.ar    1  UNL1       -0.0585
      4 C          -1.9102    0.7500    0.2442 C.ar    1  UNL1       -0.0597
      5 C          -1.7306   -0.6569    0.4246 C.ar    1  UNL1       -0.0400
      6 C          -0.5298   -1.3100    0.0957 C.ar    1  UNL1        0.0409
      7 N          -0.3265   -2.8541    0.1346 N.am    1  UNL1       -0.2506
      8 C           1.0879   -3.6394    0.3503 C.2     1  UNL1        0.2617
      9 O           1.2697   -4.8157    0.4136 O.2     1  UNL1       -0.2689
     10 C           2.3872   -3.0125    0.5754 C.ar    1  UNL1        0.1156
     11 S           3.7233   -3.2891   -0.5116 S.2     1  UNL1        0.0190
     12 N           4.6211   -1.9754    0.0284 N.ar    1  UNL1       -0.2031
     13 C           4.0127   -1.4700    1.1213 C.ar    1  UNL1        0.1554
     14 C           4.3713   -0.1472    1.6549 C.2     1  UNL1        0.2624
     15 N           5.4924    0.4578    1.1770 N.am    1  UNL1       -0.3240
     16 O           3.6533    0.4634    2.4472 O.2     1  UNL1       -0.2687
     17 C           2.7568   -2.1074    1.5130 C.ar    1  UNL1        0.0765
     18 N           1.8107   -1.5915    2.3520 N.pl3   1  UNL1       -0.3551
     19 C          -1.7733   -3.6365   -0.1103 C.3     1  UNL1        0.1323
     20 C          -2.6228   -3.2732   -1.4596 C.2     1  UNL1        0.2385
     21 O          -2.9842   -4.1448   -2.2574 O.2     1  UNL1       -0.2734
     22 N          -3.0965   -1.9921   -1.6574 N.am    1  UNL1       -0.3135
     23 C          -3.8476   -1.5684   -2.8090 C.3     1  UNL1        0.0119
     24 C          -4.1246   -0.0536   -2.7603 C.3     1  UNL1       -0.0350
     25 C          -4.9323    0.3923   -3.9827 C.3     1  UNL1       -0.0453
     26 C          -6.2682   -0.3470   -4.0326 C.3     1  UNL1       -0.0626
     27 C          -5.1809    1.8991   -3.9636 C.3     1  UNL1       -0.0626
     28 C          -1.7575   -5.1778   -0.0184 C.ar    1  UNL1       -0.0177
     29 C          -0.6049   -5.7941   -0.4249 C.ar    1  UNL1       -0.0536
     30 C          -0.2153   -7.0878   -0.1375 C.ar    1  UNL1       -0.0261
     31 C          -1.2322   -7.9635    0.0469 C.ar    1  UNL1        0.1234
     32 F          -0.9632   -9.2732    0.0053 F       1  UNL1       -0.2055
     33 C          -2.5415   -7.4767    0.0820 C.ar    1  UNL1       -0.0261
     34 C          -2.8096   -6.0789    0.1146 C.ar    1  UNL1       -0.0536
     35 C           0.4509   -0.3771   -0.2949 C.ar    1  UNL1       -0.0261
     36 C           1.7508   -0.8123   -0.7491 C.3     1  UNL1       -0.0377
     37 H           1.5643    2.8836   -0.1351 H       1  UNL1        0.0278
     38 H           2.3528    1.5327   -0.9610 H       1  UNL1        0.0278
     39 H           2.2228    1.5542    0.8006 H       1  UNL1        0.0278
     40 H          -0.9214    2.6809    0.0564 H       1  UNL1        0.0620
     41 H          -2.9046    1.1915    0.2795 H       1  UNL1        0.0618
     42 H          -2.6301   -1.1983    0.7193 H       1  UNL1        0.0636
     43 H           6.1001    0.0036    0.5101 H       1  UNL1        0.1453
     44 H           5.7670    1.3100    1.6429 H       1  UNL1        0.1453
     45 H           1.9018   -0.5849    2.5206 H       1  UNL1        0.1424
     46 H           0.8333   -1.7584    2.1003 H       1  UNL1        0.1424
     47 H          -2.3789   -3.3074    0.7495 H       1  UNL1        0.0651
     48 H          -2.6910   -1.2053   -1.2157 H       1  UNL1        0.1487
     49 H          -4.7704   -2.1495   -2.7931 H       1  UNL1        0.0462
     50 H          -3.2705   -1.8176   -3.7037 H       1  UNL1        0.0462
     51 H          -3.1769    0.5041   -2.7223 H       1  UNL1        0.0283
     52 H          -4.6587    0.2126   -1.8366 H       1  UNL1        0.0283
     53 H          -4.3534    0.1518   -4.8834 H       1  UNL1        0.0296
     54 H          -6.8565   -0.1365   -3.1325 H       1  UNL1        0.0232
     55 H          -6.1317   -1.4294   -4.0973 H       1  UNL1        0.0232
     56 H          -6.8453   -0.0553   -4.9118 H       1  UNL1        0.0232
     57 H          -5.7616    2.1934   -3.0828 H       1  UNL1        0.0232
     58 H          -5.7422    2.2013   -4.8545 H       1  UNL1        0.0232
     59 H          -4.2395    2.4580   -3.9539 H       1  UNL1        0.0232
     60 H           0.0405   -5.1958   -1.0472 H       1  UNL1        0.0622
     61 H           0.8291   -7.3699   -0.2247 H       1  UNL1        0.0646
     62 H          -3.3456   -8.1988    0.0279 H       1  UNL1        0.0646
     63 H          -3.8434   -5.7397    0.0798 H       1  UNL1        0.0622
     64 H           1.5532   -1.8392   -0.8650 H       1  UNL1        0.0278
     65 H           2.3562   -0.4544    0.0685 H       1  UNL1        0.0278
     66 H           2.2493   -0.5996   -1.6776 H       1  UNL1        0.0278
@<TRIPOS>BOND
     1     1     2    1
     2     2     3   ar
     3     3     4   ar
     4     4     5   ar
     5     5     6   ar
     6     6     7    1
     7     7     8   am
     8     8     9    2
     9     8    10    1
    10    10    11   ar
    11    11    12   ar
    12    12    13   ar
    13    13    14    1
    14    14    15   am
    15    14    16    2
    16    13    17   ar
    17    10    17   ar
    18    17    18    1
    19     7    19    1
    20    19    20    1
    21    20    21    2
    22    20    22   am
    23    22    23    1
    24    23    24    1
    25    24    25    1
    26    25    26    1
    27    25    27    1
    28    19    28    1
    29    28    29   ar
    30    29    30   ar
    31    30    31   ar
    32    31    32    1
    33    31    33   ar
    34    33    34   ar
    35    28    34   ar
    36     6    35   ar
    37     2    35   ar
    38    35    36    1
    39     1    37    1
    40     1    38    1
    41     1    39    1
    42     3    40    1
    43     4    41    1
    44     5    42    1
    45    15    43    1
    46    15    44    1
    47    18    45    1
    48    18    46    1
    49    19    47    1
    50    22    48    1
    51    23    49    1
    52    23    50    1
    53    24    51    1
    54    24    52    1
    55    25    53    1
    56    26    54    1
    57    26    55    1
    58    26    56    1
    59    27    57    1
    60    27    58    1
    61    27    59    1
    62    29    60    1
    63    30    61    1
    64    33    62    1
    65    34    63    1
    66    36    64    1
    67    36    65    1
    68    36    66    1
