@<TRIPOS>MOLECULE
*****
 49 49 0 0 0
SMALL
GASTEIGER

@<TRIPOS>ATOM
      1 C           1.0793    0.0213   -0.0583 C.3     1  UNL1       -0.0653
      2 C           2.6013    0.0331   -0.0513 C.3     1  UNL1       -0.0559
      3 C           3.1479    1.2668    0.6746 C.3     1  UNL1       -0.0519
      4 C           4.6860    1.2884    0.6873 C.3     1  UNL1       -0.0373
      5 C           5.2397    2.5239    1.4146 C.3     1  UNL1        0.0131
      6 N           6.7050    2.5925    1.4555 N.am    1  UNL1       -0.2982
      7 C           7.3607    3.6427    2.0711 C.2     1  UNL1        0.3160
      8 O           6.7688    4.5702    2.6244 O.2     1  UNL1       -0.2513
      9 N           8.7464    3.5823    2.0223 N.am    1  UNL1       -0.2180
     10 N           9.5126    4.6303    2.6320 N.am    1  UNL1       -0.2292
     11 C          10.9039    4.6362    2.5563 C.2     1  UNL1        0.2603
     12 O          11.5454    3.7631    1.9647 O.2     1  UNL1       -0.2687
     13 C          11.6439    5.7267    3.2870 C.ar    1  UNL1        0.0418
     14 C          12.8612    6.2491    2.8257 C.ar    1  UNL1       -0.0459
     15 C          13.6228    7.1176    3.6377 C.ar    1  UNL1       -0.0156
     16 C          13.1610    7.5224    4.8993 C.ar    1  UNL1        0.1615
     17 O          13.9814    8.4156    5.5515 O.3     1  UNL1       -0.4915
     18 C          13.5153    8.9809    6.7784 C.3     1  UNL1        0.0790
     19 C          11.9480    6.9886    5.3636 C.ar    1  UNL1        0.1627
     20 O          11.5566    7.3157    6.6310 O.3     1  UNL1       -0.4860
     21 C          10.3670    6.7381    7.1354 C.3     1  UNL1        0.1127
     22 C          10.1525    7.2393    8.5533 C.3     1  UNL1        0.0783
     23 O           8.9488    6.7050    9.0851 O.3     1  UNL1       -0.3917
     24 C          11.2020    6.1118    4.5530 C.ar    1  UNL1       -0.0041
     25 H           0.7053   -0.8656   -0.5801 H       1  UNL1        0.0230
     26 H           0.6835    0.9061   -0.5670 H       1  UNL1        0.0230
     27 H           0.6835    0.0064    0.9623 H       1  UNL1        0.0230
     28 H           2.9641    0.0158   -1.0856 H       1  UNL1        0.0263
     29 H           2.9641   -0.8794    0.4359 H       1  UNL1        0.0263
     30 H           2.7670    1.2766    1.7035 H       1  UNL1        0.0266
     31 H           2.7670    2.1710    0.1834 H       1  UNL1        0.0266
     32 H           5.0533    1.2694   -0.3458 H       1  UNL1        0.0280
     33 H           5.0532    0.3760    1.1724 H       1  UNL1        0.0280
     34 H           4.8727    2.5390    2.4477 H       1  UNL1        0.0462
     35 H           4.8732    3.4344    0.9256 H       1  UNL1        0.0462
     36 H           7.2383    1.8556    1.0182 H       1  UNL1        0.1503
     37 H           9.2741    2.8315    1.5877 H       1  UNL1        0.1744
     38 H           8.9629    5.3792    3.0510 H       1  UNL1        0.1732
     39 H          13.2387    5.9830    1.8401 H       1  UNL1        0.0626
     40 H          14.5980    7.4639    3.2928 H       1  UNL1        0.0655
     41 H          14.2191    9.7487    7.1143 H       1  UNL1        0.0660
     42 H          13.4854    8.2209    7.5671 H       1  UNL1        0.0660
     43 H          12.5460    9.4788    6.6509 H       1  UNL1        0.0660
     44 H          10.4402    5.6442    7.1481 H       1  UNL1        0.0720
     45 H           9.5141    7.0402    6.5167 H       1  UNL1        0.0720
     46 H          10.1056    8.3335    8.5774 H       1  UNL1        0.0591
     47 H          10.9888    6.9411    9.1948 H       1  UNL1        0.0591
     48 H           8.2203    6.9933    8.5079 H       1  UNL1        0.2095
     49 H          10.2880    5.6681    4.9249 H       1  UNL1        0.0663
@<TRIPOS>BOND
     1     1     2    1
     2     2     3    1
     3     3     4    1
     4     4     5    1
     5     5     6    1
     6     6     7   am
     7     7     8    2
     8     7     9   am
     9     9    10    1
    10    10    11   am
    11    11    12    2
    12    11    13    1
    13    13    14   ar
    14    14    15   ar
    15    15    16   ar
    16    16    17    1
    17    17    18    1
    18    16    19   ar
    19    19    20    1
    20    20    21    1
    21    21    22    1
    22    22    23    1
    23    19    24   ar
    24    13    24   ar
    25     1    25    1
    26     1    26    1
    27     1    27    1
    28     2    28    1
    29     2    29    1
    30     3    30    1
    31     3    31    1
    32     4    32    1
    33     4    33    1
    34     5    34    1
    35     5    35    1
    36     6    36    1
    37     9    37    1
    38    10    38    1
    39    14    39    1
    40    15    40    1
    41    18    41    1
    42    18    42    1
    43    18    43    1
    44    21    44    1
    45    21    45    1
    46    22    46    1
    47    22    47    1
    48    23    48    1
    49    24    49    1
