REMARK  4 active torsions:
REMARK  status: ('A' for Active; 'I' for Inactive)
REMARK       I    between atoms: C_2  and  N_3 
REMARK       I    between atoms: C_2  and  N_13 
REMARK    1  A    between atoms: N_3  and  N_4 
REMARK    2  A    between atoms: C_5  and  C_6 
REMARK    3  A    between atoms: C_9  and  O_10 
REMARK    4  A    between atoms: N_13  and  C_14 
ROOT
ATOM      1  O   UNL d   1       1.013  -0.067  -0.113  0.00  0.00    -0.245 OA
ATOM      2  C   UNL d   1       2.241   0.054  -0.028  0.00  0.00     0.341 C 
ATOM      3  N   UNL d   1       2.892   0.861   0.892  0.00  0.00    -0.229 N 
ATOM      4  N   UNL d   1       3.026  -0.597  -0.955  0.00  0.00    -0.308 N 
ATOM      5  H   UNL d   1       3.885   1.025   0.799  0.00  0.00     0.194 HD
ATOM      6  H   UNL d   1       2.486  -1.023  -1.700  0.00  0.00     0.170 HD
ENDROOT
BRANCH   3   7
ATOM      7  N   UNL d   1       2.183   1.577   1.819  0.00  0.00    -0.182 NA
ATOM      8  C   UNL d   1       2.844   2.374   2.599  0.00  0.00     0.150 C 
BRANCH   8   9
ATOM      9  C   UNL d   1       2.115   3.199   3.594  0.00  0.00    -0.017 A 
ATOM     10  C   UNL d   1       1.041   2.630   4.288  0.00  0.00     0.015 A 
ATOM     11  C   UNL d   1       0.273   3.406   5.162  0.00  0.00     0.037 A 
ATOM     12  C   UNL d   1       0.582   4.752   5.332  0.00  0.00     0.065 A 
ATOM     13  C   UNL d   1       1.659   5.323   4.659  0.00  0.00     0.037 A 
ATOM     14  C   UNL d   1       2.444   4.544   3.797  0.00  0.00     0.015 A 
BRANCH  12  15
ATOM     15  O   UNL d   1      -0.152   5.560   6.151  0.00  0.00    -0.361 OA
ATOM     16  H   UNL d   1      -0.867   5.042   6.556  0.00  0.00     0.217 HD
ENDBRANCH  12  15
ENDBRANCH   8   9
ENDBRANCH   3   7
BRANCH   4  17
ATOM     17  C   UNL d   1       4.418  -0.768  -0.981  0.00  0.00     0.036 A 
ATOM     18  C   UNL d   1       5.089  -0.826  -2.207  0.00  0.00     0.029 A 
ATOM     19  C   UNL d   1       6.478  -0.995  -2.232  0.00  0.00     0.002 A 
ATOM     20  C   UNL d   1       7.194  -1.079  -1.037  0.00  0.00     0.000 A 
ATOM     21  C   UNL d   1       6.521  -1.062   0.180  0.00  0.00     0.002 A 
ATOM     22  C   UNL d   1       5.136  -0.936   0.203  0.00  0.00     0.029 A 
ENDBRANCH   4  17
TORSDOF 4
