REMARK  9 active torsions:
REMARK  status: ('A' for Active; 'I' for Inactive)
REMARK    1  A    between atoms: C_2  and  C_3 
REMARK    2  A    between atoms: C_3  and  N_4 
REMARK       I    between atoms: N_4  and  C_5 
REMARK       I    between atoms: C_5  and  N_7 
REMARK       I    between atoms: N_7  and  C_8 
REMARK    3  A    between atoms: C_8  and  C_10 
REMARK    4  A    between atoms: C_10  and  N_11 
REMARK    5  A    between atoms: N_11  and  C_12 
REMARK    6  A    between atoms: C_15  and  C_16 
REMARK    7  A    between atoms: C_16  and  C_17 
REMARK    8  A    between atoms: C_17  and  N_18 
REMARK    9  A    between atoms: C_21  and  C_22 
ROOT
ATOM      1  C   UNL d   1      10.884  -1.778  -5.302  0.00  0.00     0.028 A 
ATOM      2  C   UNL d   1      11.455  -1.427  -6.536  0.00  0.00     0.029 A 
ATOM      3  C   UNL d   1      12.818  -1.658  -6.822  0.00  0.00     0.009 A 
ATOM      4  C   UNL d   1      13.675  -2.197  -5.853  0.00  0.00    -0.056 A 
ATOM      5  C   UNL d   1      13.095  -2.581  -4.637  0.00  0.00     0.009 A 
ATOM      6  C   UNL d   1      11.732  -2.365  -4.368  0.00  0.00     0.029 A 
ENDROOT
BRANCH   1   7
ATOM      7  N   UNL d   1       9.547  -1.513  -5.059  0.00  0.00    -0.381 N 
ATOM      8  H   UNL d   1       8.881  -1.869  -5.751  0.00  0.00     0.160 HD
BRANCH   7   9
ATOM      9  C   UNL d   1       8.955  -1.223  -3.736  0.00  0.00     0.223 C 
BRANCH   9  10
ATOM     10  C   UNL d   1       7.399  -1.259  -3.817  0.00  0.00     0.243 C 
ATOM     11  N   UNL d   1       6.676  -0.869  -2.680  0.00  0.00    -0.278 N 
ATOM     12  C   UNL d   1       5.290  -0.860  -2.656  0.00  0.00     0.322 C 
ATOM     13  H   UNL d   1       7.170  -0.572  -1.855  0.00  0.00     0.173 HD
ATOM     14  N   UNL d   1       4.694  -0.447  -1.472  0.00  0.00    -0.343 N 
ATOM     15  O   UNL d   1       4.577  -1.194  -3.604  0.00  0.00    -0.247 OA
ATOM     16  H   UNL d   1       5.226  -0.161  -0.665  0.00  0.00     0.164 HD
ATOM     17  O   UNL d   1       6.875  -1.646  -4.866  0.00  0.00    -0.271 OA
BRANCH  14  18
ATOM     18  C   UNL d   1       3.222  -0.420  -1.397  0.00  0.00     0.124 C 
BRANCH  18  19
ATOM     19  C   UNL d   1       2.651   0.050  -0.056  0.00  0.00     0.015 C 
ATOM     20  C   UNL d   1       1.120   0.053  -0.050  0.00  0.00     0.006 C 
ENDBRANCH  18  19
ENDBRANCH  14  18
ENDBRANCH   9  10
ENDBRANCH   7   9
ENDBRANCH   1   7
BRANCH   4  21
ATOM     21  C   UNL d   1      15.174  -2.295  -6.129  0.00  0.00     0.061 C 
BRANCH  21  22
ATOM     22  C   UNL d   1      16.018  -2.822  -4.960  0.00  0.00     0.174 C 
BRANCH  22  23
ATOM     23  N   UNL d   1      17.428  -2.996  -5.240  0.00  0.00    -0.191 N 
ATOM     24  N   UNL d   1      18.312  -1.985  -5.301  0.00  0.00     0.024 NA
ATOM     25  N   UNL d   1      19.498  -2.579  -5.444  0.00  0.00    -0.136 NA
ATOM     26  C   UNL d   1      19.265  -3.938  -5.440  0.00  0.00     0.198 A 
ATOM     27  N   UNL d   1      17.961  -4.230  -5.303  0.00  0.00    -0.136 NA
BRANCH  26  28
ATOM     28  C   UNL d   1      20.278  -4.962  -5.673  0.00  0.00     0.015 A 
ATOM     29  C   UNL d   1      21.418  -5.096  -4.870  0.00  0.00     0.015 A 
ATOM     30  C   UNL d   1      22.364  -6.098  -5.146  0.00  0.00     0.001 A 
ATOM     31  C   UNL d   1      22.149  -7.007  -6.182  0.00  0.00     0.000 A 
ATOM     32  C   UNL d   1      21.009  -6.895  -6.971  0.00  0.00     0.001 A 
ATOM     33  C   UNL d   1      20.084  -5.876  -6.721  0.00  0.00     0.015 A 
ENDBRANCH  26  28
ENDBRANCH  22  23
ENDBRANCH  21  22
ENDBRANCH   4  21
TORSDOF 9
