@<TRIPOS>MOLECULE
*****
 57 60 0 0 0
SMALL
GASTEIGER

@<TRIPOS>ATOM
      1 C           2.6887    0.6987    0.0029 C.3     1  UNL1       -0.0379
      2 C           1.2587    0.2631   -0.0029 C.ar    1  UNL1       -0.0290
      3 C           1.1542   -1.1428    0.0041 C.ar    1  UNL1       -0.0571
      4 C          -0.0657   -1.7730   -0.0001 C.ar    1  UNL1       -0.0611
      5 C          -1.2090   -0.9931   -0.0032 C.ar    1  UNL1       -0.0571
      6 C          -1.1517    0.4305   -0.0067 C.ar    1  UNL1       -0.0290
      7 C          -2.4954    1.1168   -0.0065 C.3     1  UNL1       -0.0379
      8 C           0.1082    1.1084   -0.0129 C.ar    1  UNL1        0.0393
      9 N           0.1396    2.5773   -0.0441 N.am    1  UNL1       -0.2844
     10 C           1.2601    3.4049   -0.0310 C.2     1  UNL1        0.2275
     11 O           2.4148    2.9984    0.0873 O.2     1  UNL1       -0.2746
     12 C           1.1521    4.9327   -0.1270 C.3     1  UNL1        0.0779
     13 S           2.9188    5.5370   -0.3328 S.3     1  UNL1       -0.0787
     14 C           2.8933    7.2420   -0.1704 C.ar    1  UNL1        0.1625
     15 C           3.3101    7.9778    0.9183 C.ar    1  UNL1       -0.0091
     16 C           3.2326    9.3309    0.5329 C.ar    1  UNL1       -0.0138
     17 C           2.8134    9.3539   -0.7829 C.ar    1  UNL1        0.1488
     18 C           2.5671   10.4675   -1.6660 C.2     1  UNL1        0.0879
     19 N           2.7054   11.6666   -1.1958 N.2     1  UNL1       -0.1844
     20 N           2.4401   12.7437   -2.0009 N.am    1  UNL1       -0.2028
     21 C           2.6122   14.0247   -1.4748 C.2     1  UNL1        0.2668
     22 O           3.0052   14.2701   -0.3355 O.2     1  UNL1       -0.2683
     23 C           2.3699   15.1737   -2.3949 C.ar    1  UNL1        0.0803
     24 C           3.3236   16.2069   -2.4089 C.ar    1  UNL1       -0.0383
     25 C           3.1875   17.3252   -3.2554 C.ar    1  UNL1       -0.0169
     26 C           4.1718   18.3294   -3.3127 C.ar    1  UNL1       -0.0540
     27 C           4.0338   19.4286   -4.1634 C.ar    1  UNL1       -0.0612
     28 C           2.9016   19.5478   -4.9613 C.ar    1  UNL1       -0.0612
     29 C           1.9120   18.5611   -4.9162 C.ar    1  UNL1       -0.0539
     30 C           2.0417   17.4367   -4.0740 C.ar    1  UNL1       -0.0144
     31 C           1.0688   16.4161   -4.0265 C.ar    1  UNL1       -0.0117
     32 C           1.2389   15.2914   -3.2034 C.ar    1  UNL1        0.1296
     33 O           0.2853   14.3106   -3.1926 O.3     1  UNL1       -0.5060
     34 O           2.6122    8.0736   -1.2182 O.2     1  UNL1       -0.4477
     35 H           3.4283   -0.1023    0.0088 H       1  UNL1        0.0278
     36 H           2.8718    1.2253    0.9460 H       1  UNL1        0.0278
     37 H           2.8804    1.2409   -0.9300 H       1  UNL1        0.0278
     38 H           2.0614   -1.7457    0.0110 H       1  UNL1        0.0621
     39 H          -0.1087   -2.8574    0.0001 H       1  UNL1        0.0618
     40 H          -2.1641   -1.5167   -0.0041 H       1  UNL1        0.0621
     41 H          -3.3171    0.3854    0.0203 H       1  UNL1        0.0278
     42 H          -2.6294    1.7041   -0.9180 H       1  UNL1        0.0278
     43 H          -2.6107    1.7451    0.8801 H       1  UNL1        0.0278
     44 H          -0.7669    3.0283   -0.0554 H       1  UNL1        0.1548
     45 H           0.7205    5.3169    0.8003 H       1  UNL1        0.0475
     46 H           0.5919    5.2289   -1.0121 H       1  UNL1        0.0475
     47 H           3.6501    7.5825    1.8674 H       1  UNL1        0.0661
     48 H           3.4646   10.2047    1.1246 H       1  UNL1        0.0656
     49 H           2.2597   10.2545   -2.7049 H       1  UNL1        0.0883
     50 H           2.1099   12.6139   -2.9506 H       1  UNL1        0.1776
     51 H           4.1926   16.1282   -1.7563 H       1  UNL1        0.0632
     52 H           5.0659   18.2576   -2.6963 H       1  UNL1        0.0624
     53 H           4.8106   20.1893   -4.2007 H       1  UNL1        0.0618
     54 H           2.7903   20.4074   -5.6189 H       1  UNL1        0.0618
     55 H           1.0379   18.6789   -5.5536 H       1  UNL1        0.0624
     56 H           0.1828   16.5081   -4.6505 H       1  UNL1        0.0660
     57 H          -0.4839   14.6066   -3.7099 H       1  UNL1        0.2922
@<TRIPOS>BOND
     1     1     2    1
     2     2     3   ar
     3     3     4   ar
     4     4     5   ar
     5     5     6   ar
     6     6     7    1
     7     6     8   ar
     8     2     8   ar
     9     8     9    1
    10     9    10   am
    11    10    11    2
    12    10    12    1
    13    12    13    1
    14    13    14    1
    15    14    15   ar
    16    15    16   ar
    17    16    17   ar
    18    17    18    1
    19    18    19    2
    20    19    20    1
    21    20    21   am
    22    21    22    2
    23    21    23    1
    24    23    24   ar
    25    24    25   ar
    26    25    26   ar
    27    26    27   ar
    28    27    28   ar
    29    28    29   ar
    30    29    30   ar
    31    25    30   ar
    32    30    31   ar
    33    31    32   ar
    34    23    32   ar
    35    32    33    1
    36    17    34   ar
    37    14    34   ar
    38     1    35    1
    39     1    36    1
    40     1    37    1
    41     3    38    1
    42     4    39    1
    43     5    40    1
    44     7    41    1
    45     7    42    1
    46     7    43    1
    47     9    44    1
    48    12    45    1
    49    12    46    1
    50    15    47    1
    51    16    48    1
    52    18    49    1
    53    20    50    1
    54    24    51    1
    55    26    52    1
    56    27    53    1
    57    28    54    1
    58    29    55    1
    59    31    56    1
    60    33    57    1
