REMARK  7 active torsions:
REMARK  status: ('A' for Active; 'I' for Inactive)
REMARK    1  A    between atoms: N_1  and  C_2 
REMARK    2  A    between atoms: C_6  and  N_7 
REMARK    3  A    between atoms: C_10  and  C_11 
REMARK    4  A    between atoms: C_11  and  N_12 
REMARK    5  A    between atoms: C_17  and  C_18 
REMARK       I    between atoms: C_18  and  N_20 
REMARK    6  A    between atoms: N_20  and  N_21 
REMARK    7  A    between atoms: C_22  and  C_23 
ROOT
ATOM      1  N   UNL d   1       0.122  -2.671  -0.662  0.00  0.00    -0.207 N 
ATOM      2  N   UNL d   1      -0.261  -3.837  -1.261  0.00  0.00     0.012 NA
ATOM      3  N   UNL d   1       0.404  -4.914  -0.721  0.00  0.00    -0.160 NA
ATOM      4  C   UNL d   1       1.111  -4.482   0.356  0.00  0.00     0.112 C 
ATOM      5  C   UNL d   1       0.810  -3.068   0.372  0.00  0.00     0.153 C 
ENDROOT
BRANCH   5   6
ATOM      6  C   UNL d   1       0.977  -2.217   1.435  0.00  0.00     0.292 C 
ATOM      7  O   UNL d   1       1.528  -3.157   1.972  0.00  0.00    -0.264 OA
ATOM      8  N   UNL d   1       0.738  -0.863   2.037  0.00  0.00    -0.242 N 
ATOM      9  H   UNL d   1       0.425  -0.078   1.503  0.00  0.00     0.192 HD
BRANCH   8  10
ATOM     10  N   UNL d   1       1.299  -0.349   3.342  0.00  0.00    -0.188 NA
ATOM     11  C   UNL d   1       1.470   0.906   3.611  0.00  0.00     0.116 C 
BRANCH  11  12
ATOM     12  C   UNL d   1       2.160   1.438   4.903  0.00  0.00     0.028 C 
ATOM     13  C   UNL d   1       1.871   2.944   4.905  0.00  0.00     0.010 C 
ATOM     14  C   UNL d   1       2.222   3.650   6.204  0.00  0.00     0.001 C 
ATOM     15  C   UNL d   1       1.573   2.966   7.398  0.00  0.00     0.000 C 
ATOM     16  C   UNL d   1       1.978   1.500   7.459  0.00  0.00     0.001 C 
ATOM     17  C   UNL d   1       1.611   0.766   6.167  0.00  0.00     0.010 C 
ENDBRANCH  11  12
ENDBRANCH   8  10
ENDBRANCH   5   6
BRANCH   4  18
ATOM     18  C   UNL d   1       1.942  -5.424   1.506  0.00  0.00     0.297 C 
BRANCH  18  19
ATOM     19  N   UNL d   1       2.635  -4.675   2.948  0.00  0.00    -0.066 N 
ATOM     20  C   UNL d   1       1.372  -4.127   4.038  0.00  0.00     0.235 C 
ATOM     21  C   UNL d   1       1.153  -2.640   3.845  0.00  0.00     0.029 C 
ATOM     22  C   UNL d   1       2.829  -2.080   3.073  0.00  0.00     0.029 C 
ATOM     23  C   UNL d   1       3.586  -3.349   2.474  0.00  0.00     0.235 C 
ATOM     24  H   UNL d   1       3.206  -5.379   3.432  0.00  0.00     0.280 HD
ENDBRANCH  18  19
ENDBRANCH   4  18
BRANCH   1  25
ATOM     25  C   UNL d   1      -0.191  -1.250  -0.707  0.00  0.00     0.225 C 
ATOM     26  N   UNL d   1      -1.386  -0.873  -0.219  0.00  0.00    -0.081 NA
ATOM     27  O   UNL d   1      -1.287   0.510  -0.031  0.00  0.00    -0.103 OA
ATOM     28  N   UNL d   1       0.027   0.945  -0.119  0.00  0.00    -0.083 NA
ATOM     29  C   UNL d   1       0.740  -0.120  -0.502  0.00  0.00     0.201 C 
BRANCH  29  30
ATOM     30  N   UNL d   1       2.091  -0.101  -0.321  0.00  0.00    -0.379 N 
ATOM     31  H   UNL d   1       2.565   0.772  -0.055  0.00  0.00     0.158 HD
ATOM     32  H   UNL d   1       2.712  -0.899  -0.264  0.00  0.00     0.158 HD
ENDBRANCH  29  30
ENDBRANCH   1  25
TORSDOF 7
