REMARK  5 active torsions:
REMARK  status: ('A' for Active; 'I' for Inactive)
REMARK    1  A    between atoms: C_14  and  N_15 
REMARK       I    between atoms: N_15  and  C_16 
REMARK    2  A    between atoms: C_16  and  C_18 
REMARK    3  A    between atoms: C_18  and  S_19 
REMARK    4  A    between atoms: S_19  and  C_20 
REMARK    5  A    between atoms: C_23  and  C_24 
ROOT
ATOM      1  N   UNL d   1       1.478  -5.731   1.607  0.00  0.00    -0.305 N 
ATOM      2  C   UNL d   1       0.911  -5.497   2.861  0.00  0.00     0.233 C 
ATOM      3  O   UNL d   1       0.883  -4.372   3.364  0.00  0.00    -0.272 OA
ATOM      4  H   UNL d   1       1.502  -6.646   1.175  0.00  0.00     0.171 HD
ENDROOT
BRANCH   1   5
ATOM      5  C   UNL d   1       2.039  -4.662   0.912  0.00  0.00     0.173 A 
ATOM      6  S   UNL d   1       2.689  -4.977  -0.642  0.00  0.00    -0.061 SA
ATOM      7  C   UNL d   1       3.132  -3.300  -0.792  0.00  0.00     0.085 A 
ATOM      8  C   UNL d   1       2.780  -2.634   0.363  0.00  0.00     0.075 A 
ATOM      9  C   UNL d   1       3.034  -1.270   0.693  0.00  0.00     0.006 A 
ATOM     10  N   UNL d   1       2.150  -3.413   1.304  0.00  0.00    -0.223 NA
ATOM     11  C   UNL d   1       3.741  -0.774   1.723  0.00  0.00     0.001 A 
ATOM     12  C   UNL d   1       2.426  -0.154  -0.130  0.00  0.00     0.114 A 
ATOM     13  C   UNL d   1       4.495  -1.333   2.803  0.00  0.00     0.014 A 
ATOM     14  C   UNL d   1       3.645   0.693   1.586  0.00  0.00     0.039 A 
ATOM     15  C   UNL d   1       5.106  -0.500   3.663  0.00  0.00     0.001 A 
ATOM     16  C   UNL d   1       5.019   0.947   3.538  0.00  0.00     0.002 A 
ATOM     17  C   UNL d   1       4.326   1.558   2.560  0.00  0.00     0.030 A 
ATOM     18  N   UNL d   1       2.944   1.048   0.575  0.00  0.00    -0.381 N 
ATOM     19  H   UNL d   1       2.767   2.023   0.349  0.00  0.00     0.160 HD
ATOM     20  C   UNL d   1       0.908  -0.068  -0.099  0.00  0.00     0.037 C 
ENDBRANCH   1   5
BRANCH   2  21
ATOM     21  C   UNL d   1       0.310  -6.721   3.616  0.00  0.00     0.185 C 
BRANCH  21  22
ATOM     22  S   UNL d   1      -0.382  -6.152   5.216  0.00  0.00    -0.083 SA
BRANCH  22  23
ATOM     23  C   UNL d   1      -1.010  -7.491   6.103  0.00  0.00     0.167 A 
ATOM     24  N   UNL d   1      -1.790  -7.365   7.153  0.00  0.00    -0.235 NA
ATOM     25  C   UNL d   1      -1.974  -8.637   7.631  0.00  0.00     0.149 A 
ATOM     26  C   UNL d   1      -1.300  -9.562   6.856  0.00  0.00     0.062 A 
ATOM     27  N   UNL d   1      -0.687  -8.799   5.884  0.00  0.00    -0.333 N 
ATOM     28  H   UNL d   1      -0.093  -9.148   5.152  0.00  0.00     0.168 HD
BRANCH  26  29
ATOM     29  C   UNL d   1      -1.177 -11.005   7.010  0.00  0.00    -0.008 A 
ATOM     30  C   UNL d   1      -2.327 -11.802   7.089  0.00  0.00     0.014 A 
ATOM     31  C   UNL d   1      -2.234 -13.148   7.450  0.00  0.00     0.001 A 
ATOM     32  C   UNL d   1      -0.984 -13.735   7.632  0.00  0.00     0.000 A 
ATOM     33  C   UNL d   1       0.170 -12.977   7.442  0.00  0.00     0.001 A 
ATOM     34  C   UNL d   1       0.075 -11.606   7.183  0.00  0.00     0.014 A 
ENDBRANCH  26  29
ENDBRANCH  22  23
ENDBRANCH  21  22
ENDBRANCH   2  21
TORSDOF 5
