REMARK  5 active torsions:
REMARK  status: ('A' for Active; 'I' for Inactive)
REMARK    1  A    between atoms: C_2  and  C_4 
REMARK    2  A    between atoms: C_4  and  N_5 
REMARK       I    between atoms: N_5  and  C_6 
REMARK       I    between atoms: C_6  and  N_8 
REMARK    3  A    between atoms: N_8  and  N_9 
REMARK       I    between atoms: N_9  and  C_10 
REMARK    4  A    between atoms: C_10  and  C_12 
REMARK    5  A    between atoms: C_15  and  C_16 
ROOT
ATOM      1  N   UNL d   1       7.341  -2.921   2.715  0.00  0.00    -0.261 N 
ATOM      2  C   UNL d   1       8.730  -2.882   2.719  0.00  0.00     0.286 C 
ATOM      3  O   UNL d   1       9.396  -2.134   2.004  0.00  0.00    -0.264 OA
ATOM      4  H   UNL d   1       6.786  -3.532   3.311  0.00  0.00     0.190 HD
ENDROOT
BRANCH   2   5
ATOM      5  C   UNL d   1       9.435  -3.877   3.648  0.00  0.00     0.133 C 
ATOM      6  N   UNL d   1      10.444  -3.581   4.400  0.00  0.00    -0.132 NA
ATOM      7  O   UNL d   1      10.865  -4.782   5.048  0.00  0.00    -0.245 OA
ATOM      8  C   UNL d   1      10.086  -5.901   4.570  0.00  0.00     0.193 C 
ATOM      9  C   UNL d   1       8.993  -5.282   3.700  0.00  0.00     0.107 C 
BRANCH   8  10
ATOM     10  C   UNL d   1      10.975  -6.962   3.925  0.00  0.00    -0.027 A 
ATOM     11  C   UNL d   1      12.061  -7.541   4.613  0.00  0.00     0.010 A 
ATOM     12  C   UNL d   1      12.890  -8.482   3.979  0.00  0.00     0.001 A 
ATOM     13  C   UNL d   1      12.608  -8.916   2.685  0.00  0.00     0.000 A 
ATOM     14  C   UNL d   1      11.521  -8.388   2.011  0.00  0.00     0.001 A 
ATOM     15  C   UNL d   1      10.721  -7.433   2.628  0.00  0.00     0.010 A 
ENDBRANCH   8  10
ENDBRANCH   2   5
BRANCH   1  16
ATOM     16  N   UNL d   1       6.580  -2.040   1.873  0.00  0.00    -0.249 N 
ATOM     17  C   UNL d   1       5.194  -2.090   1.933  0.00  0.00     0.334 C 
ATOM     18  N   UNL d   1       4.540  -1.202   1.103  0.00  0.00    -0.341 N 
ATOM     19  O   UNL d   1       4.607  -2.883   2.668  0.00  0.00    -0.246 OA
ATOM     20  H   UNL d   1       5.079  -0.567   0.533  0.00  0.00     0.164 HD
ATOM     21  H   UNL d   1       7.105  -1.372   1.315  0.00  0.00     0.192 HD
BRANCH  18  22
ATOM     22  C   UNL d   1       3.073  -1.117   1.060  0.00  0.00     0.128 C 
BRANCH  22  23
ATOM     23  C   UNL d   1       2.514  -0.036   0.105  0.00  0.00    -0.005 C 
ATOM     24  C   UNL d   1       0.976  -0.050   0.083  0.00  0.00     0.011 C 
ATOM     25  C   UNL d   1       2.983   1.360   0.513  0.00  0.00     0.011 C 
ENDBRANCH  22  23
ENDBRANCH  18  22
ENDBRANCH   1  16
TORSDOF 5
