@<TRIPOS>MOLECULE
*****
 68 72 0 0 0
SMALL
GASTEIGER

@<TRIPOS>ATOM
      1 C           0.7670    0.1016   -0.1686 C.3     1  UNL1       -0.0564
      2 C           2.3279    0.0617    0.0581 C.3     1  UNL1        0.0036
      3 C           2.8851    1.1794   -0.8085 C.3     1  UNL1       -0.0442
      4 C           4.3739    1.1577   -0.8783 C.3     1  UNL1       -0.0483
      5 C           4.6646   -0.1670   -1.5493 C.3     1  UNL1       -0.0224
      6 C           4.2585   -1.4485   -0.5711 C.3     1  UNL1       -0.0078
      7 C           4.7013   -2.7768   -1.2586 C.3     1  UNL1       -0.0447
      8 C           6.2020   -2.8866   -1.3631 C.3     1  UNL1       -0.0227
      9 C           6.6054   -1.7984   -2.2454 C.3     1  UNL1        0.0792
     10 O           8.3967   -2.1189   -2.3919 O.3     1  UNL1       -0.3876
     11 C           5.8829   -1.6489   -3.5495 C.3     1  UNL1        0.0030
     12 C           6.9311   -3.0202   -3.9807 C.3     1  UNL1        0.0579
     13 O           6.1602   -4.1616   -4.1457 O.3     1  UNL1       -0.3917
     14 C           6.8300   -1.7033   -4.4422 C.3     1  UNL1       -0.0258
     15 C           7.2792   -0.5356   -2.5902 C.3     1  UNL1       -0.0372
     16 C           6.0944   -0.0370   -2.0326 C.3     1  UNL1        0.0395
     17 C           6.7225    1.3556   -2.6680 C.2     1  UNL1        0.0323
     18 N           8.0252    1.4995   -2.7938 N.2     1  UNL1       -0.1928
     19 N           8.5381    2.4822   -3.5179 N.am    1  UNL1       -0.2189
     20 C           9.8646    2.6276   -3.8016 C.2     1  UNL1        0.1473
     21 N          10.7648    1.7271   -3.3442 N.am    1  UNL1       -0.3394
     22 S          10.3609    3.9291   -4.7085 S.2     1  UNL1       -0.0174
     23 C           2.6060   -1.4099   -0.1766 C.3     1  UNL1        0.0751
     24 O           1.9548   -1.8512   -1.3615 O.3     1  UNL1       -0.3877
     25 C           1.8017   -1.6926    1.4362 C.3     1  UNL1       -0.0226
     26 C           2.9706   -1.2651    2.1990 C.3     1  UNL1       -0.0432
     27 C           3.0810    0.1136    1.4766 C.3     1  UNL1       -0.0081
     28 C           2.6903    1.3136    2.2393 C.2     1  UNL1       -0.0222
     29 C           3.2210    1.5884    3.4188 C.2     1  UNL1        0.0252
     30 C           2.5276    2.7700    3.8914 C.2     1  UNL1        0.3323
     31 O           2.7021    3.2721    4.9822 O.2     1  UNL1       -0.2456
     32 O           1.6439    3.2100    2.9662 O.3     1  UNL1       -0.4571
     33 C           1.7018    2.3462    1.8523 C.3     1  UNL1        0.1147
     34 H           0.5402    0.0772   -1.2392 H       1  UNL1        0.0236
     35 H           0.2798    0.9585    0.2524 H       1  UNL1        0.0236
     36 H           0.2111   -0.7795    0.1851 H       1  UNL1        0.0236
     37 H           2.6364    2.1525   -0.4243 H       1  UNL1        0.0272
     38 H           2.4460    1.1730   -1.8114 H       1  UNL1        0.0272
     39 H           4.9113    1.2654    0.0709 H       1  UNL1        0.0268
     40 H           4.6834    2.0455   -1.4384 H       1  UNL1        0.0268
     41 H           4.0038   -0.1786   -2.4247 H       1  UNL1        0.0314
     42 H           4.8804   -1.3787    0.3270 H       1  UNL1        0.0332
     43 H           4.2668   -2.8262   -2.2653 H       1  UNL1        0.0270
     44 H           4.3674   -3.6585   -0.7328 H       1  UNL1        0.0270
     45 H           6.5936   -3.8171   -1.7976 H       1  UNL1        0.0293
     46 H           6.7623   -2.7914   -0.4346 H       1  UNL1        0.0293
     47 H           8.7352   -2.7344   -3.0680 H       1  UNL1        0.2102
     48 H           6.1065   -0.2583   -4.1299 H       1  UNL1        0.0318
     49 H           4.7977   -1.5024   -3.5873 H       1  UNL1        0.0318
     50 H           7.7997   -3.1091   -4.6815 H       1  UNL1        0.0594
     51 H           5.3182   -4.0178   -3.6999 H       1  UNL1        0.2098
     52 H           5.5811   -2.2461   -4.9800 H       1  UNL1        0.0290
     53 H           6.9631   -1.3415   -5.4327 H       1  UNL1        0.0290
     54 H           8.2389   -0.3009   -2.1390 H       1  UNL1        0.0276
     55 H           7.1379   -0.7272   -1.1802 H       1  UNL1        0.0276
     56 H           6.0480    2.1239   -3.0684 H       1  UNL1        0.0805
     57 H           7.8958    3.1372   -3.9272 H       1  UNL1        0.1762
     58 H          10.4804    0.9079   -2.8228 H       1  UNL1        0.1440
     59 H          11.7513    1.8531   -3.5486 H       1  UNL1        0.1440
     60 H           2.5280   -1.5865   -2.1117 H       1  UNL1        0.2102
     61 H           1.2897   -2.5974    1.7782 H       1  UNL1        0.0293
     62 H           1.0594   -0.9105    1.8190 H       1  UNL1        0.0293
     63 H           3.6435   -2.0808    1.9127 H       1  UNL1        0.0272
     64 H           2.9890   -1.2193    3.2881 H       1  UNL1        0.0272
     65 H           4.1699    0.1607    1.3735 H       1  UNL1        0.0353
     66 H           3.9592    1.0142    3.9460 H       1  UNL1        0.0689
     67 H           1.9706    2.9730    1.0029 H       1  UNL1        0.0746
     68 H           0.7054    1.9441    1.7113 H       1  UNL1        0.0746
@<TRIPOS>BOND
     1     1     2    1
     2     2     3    1
     3     3     4    1
     4     4     5    1
     5     5     6    1
     6     6     7    1
     7     7     8    1
     8     8     9    1
     9     9    10    1
    10     9    11    1
    11    11    12    1
    12    12    13    1
    13    12    14    1
    14    14    15    1
    15    15    16    1
    16     5    16    1
    17     9    16    1
    18    16    17    1
    19    17    18    2
    20    18    19    1
    21    19    20    1
    22    20    21    1
    23    20    22    2
    24     6    23    1
    25     2    23    1
    26    23    24    1
    27    23    25    1
    28    25    26    1
    29    26    27    1
    30     2    27    1
    31    28    29    2
    32    29    30    1
    33    30    31    2
    34    30    32    1
    35    32    33    1
    36    28    33    1
    37    27    28    1
    38     1    34    1
    39     1    35    1
    40     1    36    1
    41     3    37    1
    42     3    38    1
    43     4    39    1
    44     4    40    1
    45     5    41    1
    46     6    42    1
    47     7    43    1
    48     7    44    1
    49     8    45    1
    50     8    46    1
    51    10    47    1
    52    11    48    1
    53    11    49    1
    54    12    50    1
    55    13    51    1
    56    14    52    1
    57    14    53    1
    58    15    54    1
    59    15    55    1
    60    17    56    1
    61    19    57    1
    62    21    58    1
    63    21    59    1
    64    24    60    1
    65    25    61    1
    66    25    62    1
    67    26    63    1
    68    26    64    1
    69    27    65    1
    70    29    66    1
    71    33    67    1
    72    33    68    1
