@<TRIPOS>MOLECULE
*****
 39 39 0 0 0
SMALL
GASTEIGER

@<TRIPOS>ATOM
      1 C          -7.9673   -6.4730   -6.3797 C.3     1  UNL1       -0.0397
      2 C          -8.5256   -5.7263   -5.1998 C.ar    1  UNL1       -0.0503
      3 C          -8.8488   -6.3919   -4.0128 C.ar    1  UNL1       -0.0570
      4 C          -9.3892   -5.6861   -2.9296 C.ar    1  UNL1       -0.0351
      5 C          -9.6128   -4.3021   -3.0221 C.ar    1  UNL1        0.1068
      6 S         -10.3476   -3.4878   -1.6134 S.O2    1  UNL1        0.0735
      7 O         -11.6766   -4.0315   -1.4565 O.2     1  UNL1       -0.1517
      8 O          -9.3799   -3.5397   -0.5337 O.2     1  UNL1       -0.1517
      9 N         -10.5612   -1.8420   -2.0138 N.3     1  UNL1       -0.1092
     10 N         -11.0577   -0.9263   -0.9403 N.am    1  UNL1       -0.2498
     11 C         -11.2694    0.4321   -1.1474 C.2     1  UNL1        0.1219
     12 S         -10.9017    1.2144   -2.5801 S.2     1  UNL1       -0.0269
     13 S         -11.9541    1.1763    0.3004 S.3     1  UNL1       -0.0923
     14 C         -12.1242    2.9597   -0.1009 C.3     1  UNL1        0.0765
     15 C         -12.7444    3.7683    1.0513 C.2     1  UNL1        0.2252
     16 O         -13.1330    3.2855    2.1142 O.2     1  UNL1       -0.2748
     17 N         -12.8979    5.1248    0.8911 N.am    1  UNL1       -0.2862
     18 C         -12.4637    5.9366   -0.2323 C.3     1  UNL1        0.1685
     19 O         -11.0397    5.8828   -0.1927 O.3     1  UNL1       -0.3702
     20 C         -13.0018    7.4162   -0.2550 C.3     1  UNL1        0.2323
     21 CL        -12.4414    8.2873    1.2160 Cl      1  UNL1       -0.0788
     22 CL        -12.3851    8.2827   -1.6964 Cl      1  UNL1       -0.0788
     23 CL        -14.7905    7.4373   -0.2841 Cl      1  UNL1       -0.0788
     24 C          -9.2726   -3.6265   -4.1940 C.ar    1  UNL1       -0.0351
     25 C          -8.7372   -4.3416   -5.2774 C.ar    1  UNL1       -0.0570
     26 H          -7.8446   -7.5400   -6.1632 H       1  UNL1        0.0278
     27 H          -6.9852   -6.0748   -6.6553 H       1  UNL1        0.0278
     28 H          -8.6425   -6.3841   -7.2375 H       1  UNL1        0.0278
     29 H          -8.6866   -7.4653   -3.9245 H       1  UNL1        0.0621
     30 H          -9.6339   -6.2267   -2.0165 H       1  UNL1        0.0637
     31 H         -10.9199   -1.6390   -2.9506 H       1  UNL1        0.1715
     32 H         -11.2136   -1.3445   -0.0221 H       1  UNL1        0.1689
     33 H         -12.7845    3.0789   -0.9659 H       1  UNL1        0.0475
     34 H         -11.1364    3.3730   -0.3186 H       1  UNL1        0.0475
     35 H         -13.3587    5.5755    1.6773 H       1  UNL1        0.1513
     36 H         -12.7831    5.4272   -1.1477 H       1  UNL1        0.0849
     37 H         -10.7600    6.3663    0.6066 H       1  UNL1        0.2119
     38 H          -9.4036   -2.5555   -4.2967 H       1  UNL1        0.0637
     39 H          -8.4829   -3.8107   -6.1938 H       1  UNL1        0.0621
@<TRIPOS>BOND
     1     1     2    1
     2     2     3   ar
     3     3     4   ar
     4     4     5   ar
     5     5     6    1
     6     6     7    2
     7     6     8    2
     8     6     9    1
     9     9    10    1
    10    10    11    1
    11    11    12    2
    12    11    13    1
    13    13    14    1
    14    14    15    1
    15    15    16    2
    16    15    17   am
    17    18    20    1
    18    20    21    1
    19    20    22    1
    20    20    23    1
    21     5    24   ar
    22    24    25   ar
    23     2    25   ar
    24    18    19    1
    25    18    17    1
    26     1    26    1
    27     1    27    1
    28     1    28    1
    29     3    29    1
    30     4    30    1
    31     9    31    1
    32    10    32    1
    33    14    33    1
    34    14    34    1
    35    17    35    1
    36    18    36    1
    37    19    37    1
    38    24    38    1
    39    25    39    1
