@<TRIPOS>MOLECULE
*****
 54 56 0 0 0
SMALL
GASTEIGER

@<TRIPOS>ATOM
      1 O           0.7200   -0.3471    0.2094 O.2     1  UNL1       -0.2739
      2 C           1.8953   -0.6393    0.0989 C.2     1  UNL1        0.2334
      3 C           2.7396   -0.1353   -1.2466 C.3     1  UNL1        0.0505
      4 C           1.8747    0.2919   -2.4096 C.ar    1  UNL1       -0.0385
      5 C           1.6790    1.6345   -2.8270 C.ar    1  UNL1       -0.0567
      6 C           0.7982    1.9108   -3.8782 C.ar    1  UNL1       -0.0431
      7 C           0.1401    0.8524   -4.5035 C.ar    1  UNL1        0.0410
      8 CL         -0.9968    1.1592   -5.7556 Cl      1  UNL1       -0.0835
      9 C           0.3795   -0.4670   -4.1205 C.ar    1  UNL1       -0.0431
     10 C           1.2549   -0.7429   -3.0872 C.ar    1  UNL1       -0.0567
     11 N           2.5714   -1.2614    1.2712 N.am    1  UNL1       -0.2349
     12 N           4.1519   -1.5379    1.5182 N.am    1  UNL1       -0.2455
     13 C           4.7930   -1.2160    2.7878 C.2     1  UNL1        0.1533
     14 S           3.8983   -0.8342    4.1525 S.2     1  UNL1       -0.0170
     15 N           6.2543   -1.2810    2.7592 N.am    1  UNL1       -0.2626
     16 C           7.1811   -1.0673    3.8495 C.2     1  UNL1        0.2531
     17 O           6.8459   -1.1092    5.0242 O.2     1  UNL1       -0.2697
     18 C           8.6878   -0.8961    3.6457 C.ar    1  UNL1        0.0786
     19 C           9.4595   -1.8119    4.4122 C.ar    1  UNL1       -0.0461
     20 C          10.8472   -1.6735    4.5878 C.ar    1  UNL1       -0.0608
     21 C          11.5264   -0.6581    3.9353 C.ar    1  UNL1       -0.0583
     22 C          10.8017    0.2652    3.1887 C.ar    1  UNL1       -0.0192
     23 C           9.3921    0.1967    3.0765 C.ar    1  UNL1        0.1326
     24 O           8.9382    1.3383    2.4510 O.3     1  UNL1       -0.4909
     25 C           7.5546    1.3772    2.2220 C.3     1  UNL1        0.0936
     26 C           7.0989    2.5507    1.3256 C.3     1  UNL1        0.0066
     27 C           5.6128    2.5537    1.2132 C.ar    1  UNL1       -0.0442
     28 C           4.6835    3.6042    1.2756 C.ar    1  UNL1       -0.0585
     29 C           3.2787    3.3916    1.3390 C.ar    1  UNL1       -0.0615
     30 C           2.7914    2.1333    1.2223 C.ar    1  UNL1       -0.0617
     31 C           3.7759    1.2202    0.9842 C.ar    1  UNL1       -0.0615
     32 C           5.1169    1.3428    0.9405 C.ar    1  UNL1       -0.0585
     33 H           3.4676   -0.8954   -1.5319 H       1  UNL1        0.0407
     34 H           3.3315    0.7833   -1.1481 H       1  UNL1        0.0407
     35 H           2.1824    2.4763   -2.3453 H       1  UNL1        0.0621
     36 H           0.6091    2.9372   -4.1910 H       1  UNL1        0.0632
     37 H          -0.1267   -1.2970   -4.5969 H       1  UNL1        0.0632
     38 H           1.4441   -1.7619   -2.7668 H       1  UNL1        0.0621
     39 H           2.1121   -1.0050    2.1636 H       1  UNL1        0.1728
     40 H           4.6858   -1.4141    0.6676 H       1  UNL1        0.1718
     41 H           6.6981   -1.3716    1.8590 H       1  UNL1        0.1569
     42 H           8.9650   -2.6228    4.9481 H       1  UNL1        0.0626
     43 H          11.3899   -2.3384    5.2587 H       1  UNL1        0.0618
     44 H          12.6058   -0.5595    4.0327 H       1  UNL1        0.0619
     45 H          11.3367    1.0964    2.7276 H       1  UNL1        0.0654
     46 H           7.0065    1.3766    3.1734 H       1  UNL1        0.0700
     47 H           7.3693    0.4677    1.6543 H       1  UNL1        0.0700
     48 H           7.4988    2.3610    0.3212 H       1  UNL1        0.0346
     49 H           7.4489    3.5032    1.7015 H       1  UNL1        0.0346
     50 H           5.0346    4.6204    1.2201 H       1  UNL1        0.0620
     51 H           2.5562    4.1908    1.4357 H       1  UNL1        0.0618
     52 H           1.7350    1.8706    1.1747 H       1  UNL1        0.0618
     53 H           3.6093    0.2740    0.6154 H       1  UNL1        0.0618
     54 H           5.7071    0.4756    0.6694 H       1  UNL1        0.0620
@<TRIPOS>BOND
     1     1     2    2
     2     2     3    1
     3     3     4    1
     4     4     5   ar
     5     5     6   ar
     6     6     7   ar
     7     7     8    1
     8     7     9   ar
     9     9    10   ar
    10     4    10   ar
    11     2    11   am
    12    11    12    1
    13    12    13    1
    14    13    14    2
    15    13    15    1
    16    15    16   am
    17    16    17    2
    18    16    18    1
    19    18    19   ar
    20    19    20   ar
    21    20    21   ar
    22    21    22   ar
    23    22    23   ar
    24    18    23   ar
    25    23    24    1
    26    24    25    1
    27    25    26    1
    28    26    27    1
    29    27    28   ar
    30    28    29   ar
    31    29    30   ar
    32    30    31   ar
    33    31    32   ar
    34    27    32   ar
    35     3    33    1
    36     3    34    1
    37     5    35    1
    38     6    36    1
    39     9    37    1
    40    10    38    1
    41    11    39    1
    42    12    40    1
    43    15    41    1
    44    19    42    1
    45    20    43    1
    46    21    44    1
    47    22    45    1
    48    25    46    1
    49    25    47    1
    50    26    48    1
    51    26    49    1
    52    28    50    1
    53    29    51    1
    54    30    52    1
    55    31    53    1
    56    32    54    1
