REMARK  11 active torsions:
REMARK  status: ('A' for Active; 'I' for Inactive)
REMARK    1  A    between atoms: C_2  and  C_3 
REMARK    2  A    between atoms: C_3  and  C_4 
REMARK    3  A    between atoms: C_4  and  N_5 
REMARK    4  A    between atoms: N_5  and  C_6 
REMARK    5  A    between atoms: C_9  and  S_10 
REMARK    6  A    between atoms: S_10  and  N_11 
REMARK    7  A    between atoms: C_15  and  N_16 
REMARK       I    between atoms: N_16  and  C_17 
REMARK    8  A    between atoms: C_17  and  C_19 
REMARK    9  A    between atoms: C_24  and  N_25 
REMARK   10  A    between atoms: N_25  and  S_26 
REMARK   11  A    between atoms: S_26  and  C_29 
ROOT
ATOM      1  N   UNL d   1       6.370   2.767   0.214  0.00  0.00    -0.321 N 
ATOM      2  C   UNL d   1       5.085   2.652  -0.235  0.00  0.00     0.258 C 
ATOM      3  O   UNL d   1       4.169   3.134   0.434  0.00  0.00    -0.267 OA
ATOM      4  H   UNL d   1       7.053   2.892  -0.527  0.00  0.00     0.169 HD
ENDROOT
BRANCH   1   5
ATOM      5  C   UNL d   1       6.926   2.445   1.498  0.00  0.00     0.057 C 
ATOM      6  C   UNL d   1       8.341   2.651   1.646  0.00  0.00     0.056 C 
ATOM      7  C   UNL d   1       8.992   2.489   2.872  0.00  0.00     0.081 C 
ATOM      8  C   UNL d   1       8.223   2.197   3.984  0.00  0.00     0.027 C 
ATOM      9  C   UNL d   1       6.876   1.837   3.808  0.00  0.00     0.027 C 
ATOM     10  C   UNL d   1       6.222   1.845   2.557  0.00  0.00     0.035 C 
BRANCH   7  11
ATOM     11  S   UNL d   1      10.769   2.599   3.038  0.00  0.00     0.256 S 
ATOM     12  O   UNL d   1      11.225   1.482   3.832  0.00  0.00    -0.201 OA
ATOM     13  O   UNL d   1      11.347   2.917   1.751  0.00  0.00    -0.201 OA
BRANCH  11  14
ATOM     14  N   UNL d   1      10.951   3.963   3.978  0.00  0.00    -0.324 N 
ATOM     15  H   UNL d   1      10.729   3.858   4.963  0.00  0.00     0.169 HD
ATOM     16  H   UNL d   1      10.799   4.848   3.508  0.00  0.00     0.169 HD
ENDBRANCH  11  14
ENDBRANCH   7  11
BRANCH  10  17
ATOM     17  N   UNL d   1       4.886   1.391   2.563  0.00  0.00    -0.291 NA
ATOM     18  H   UNL d   1       4.300   2.226   2.601  0.00  0.00     0.127 HD
BRANCH  17  19
ATOM     19  C   UNL d   1       4.382   0.477   1.515  0.00  0.00     0.092 C 
BRANCH  19  20
ATOM     20  C   UNL d   1       2.866   0.656   1.318  0.00  0.00     0.014 C 
BRANCH  20  21
ATOM     21  C   UNL d   1       2.359  -0.126   0.104  0.00  0.00    -0.003 C 
ATOM     22  C   UNL d   1       0.849  -0.042   0.008  0.00  0.00     0.005 C 
ENDBRANCH  20  21
ENDBRANCH  19  20
ENDBRANCH  17  19
ENDBRANCH  10  17
ENDBRANCH   1   5
BRANCH   2  23
ATOM     23  C   UNL d   1       4.779   1.999  -1.621  0.00  0.00     0.059 C 
ATOM     24  C   UNL d   1       3.450   2.354  -1.992  0.00  0.00     0.019 C 
ATOM     25  C   UNL d   1       2.844   1.950  -3.177  0.00  0.00     0.001 C 
ATOM     26  C   UNL d   1       3.584   1.236  -4.094  0.00  0.00     0.002 C 
ATOM     27  C   UNL d   1       4.865   0.790  -3.752  0.00  0.00     0.031 C 
ATOM     28  C   UNL d   1       5.485   1.102  -2.514  0.00  0.00     0.058 C 
BRANCH  28  29
ATOM     29  N   UNL d   1       6.703   0.279  -2.333  0.00  0.00    -0.280 N 
ATOM     30  H   UNL d   1       7.197  -0.034  -3.164  0.00  0.00     0.179 HD
BRANCH  29  31
ATOM     31  S   UNL d   1       7.642   0.572  -1.026  0.00  0.00     0.263 S 
ATOM     32  O   UNL d   1       7.965   1.980  -1.252  0.00  0.00    -0.200 OA
ATOM     33  O   UNL d   1       6.957   0.006   0.098  0.00  0.00    -0.200 OA
BRANCH  31  34
ATOM     34  C   UNL d   1       9.226  -0.114  -0.944  0.00  0.00     0.080 A 
ATOM     35  C   UNL d   1       9.364  -1.477  -0.767  0.00  0.00     0.028 A 
ATOM     36  C   UNL d   1      10.624  -1.952  -0.432  0.00  0.00     0.044 A 
ATOM     37  C   UNL d   1      11.704  -1.069  -0.298  0.00  0.00     0.116 A 
ATOM     38  F   UNL d   1      12.932  -1.561  -0.120  0.00  0.00    -0.206 F 
ATOM     39  C   UNL d   1      11.542   0.302  -0.378  0.00  0.00     0.044 A 
ATOM     40  C   UNL d   1      10.290   0.780  -0.689  0.00  0.00     0.028 A 
ENDBRANCH  31  34
ENDBRANCH  29  31
ENDBRANCH  28  29
ENDBRANCH   2  23
TORSDOF 11
