@<TRIPOS>MOLECULE
*****
 64 66 0 0 0
SMALL
GASTEIGER

@<TRIPOS>ATOM
      1 C           1.0509   -0.0529   -0.0828 C.3     1  UNL1       -0.0645
      2 C           2.5752   -0.0681   -0.0783 C.3     1  UNL1       -0.0464
      3 C           3.1386   -1.4400    0.3164 C.3     1  UNL1        0.0009
      4 S           4.9775   -1.3704    0.3134 S.3     1  UNL1       -0.0860
      5 C           5.4175   -3.0153    0.8166 C.ar    1  UNL1        0.1896
      6 N           6.4882   -3.1758    1.6138 N.ar    1  UNL1       -0.2295
      7 C           6.8180   -4.4433    1.9989 C.ar    1  UNL1        0.0455
      8 C           6.1041   -5.5688    1.6492 C.ar    1  UNL1        0.0916
      9 C           6.5595   -6.9396    2.0955 C.2     1  UNL1        0.2487
     10 O           7.5504   -7.0691    2.7821 O.2     1  UNL1       -0.2700
     11 N           5.8134   -8.0366    1.6733 N.am    1  UNL1       -0.3055
     12 C           6.1433   -9.4677    1.8823 C.3     1  UNL1        0.0592
     13 C           5.2369  -10.5375    1.0561 C.3     1  UNL1        0.0209
     14 C           5.3810  -10.3253   -0.4865 C.ar    1  UNL1        0.0054
     15 C           5.5221  -11.3111   -1.4645 C.ar    1  UNL1       -0.0495
     16 C           6.0204  -11.1131   -2.7343 C.ar    1  UNL1       -0.0159
     17 C           5.9926   -9.8520   -3.2483 C.ar    1  UNL1        0.1615
     18 O           6.1877   -9.8404   -4.5949 O.3     1  UNL1       -0.4915
     19 C           5.8834   -8.6136   -5.2323 C.3     1  UNL1        0.0790
     20 C           5.6652   -8.7986   -2.4015 C.ar    1  UNL1        0.1619
     21 O           5.6859   -7.5492   -2.9372 O.3     1  UNL1       -0.4914
     22 C           5.3598   -6.4454   -2.1337 C.3     1  UNL1        0.0790
     23 C           5.3606   -9.0555   -1.0557 C.ar    1  UNL1       -0.0078
     24 N           5.5908  -12.0353    1.6336 N.4     1  UNL1        0.2418
     25 C           4.5901  -12.5931    2.6493 C.3     1  UNL1       -0.0313
     26 C           4.9548  -14.0543    2.9936 C.3     1  UNL1       -0.0123
     27 C           4.9601  -14.9438    1.7548 C.3     1  UNL1       -0.0434
     28 C           6.0887  -14.4553    0.8887 C.3     1  UNL1       -0.0123
     29 C           5.7811  -13.0336    0.5442 C.3     1  UNL1       -0.0313
     30 C           4.9828   -5.2443    0.9107 C.ar    1  UNL1        0.1456
     31 CL          3.6370   -6.3108    0.7022 Cl      1  UNL1       -0.0611
     32 N           4.6548   -4.0289    0.4176 N.ar    1  UNL1       -0.2095
     33 H           0.6808    0.9382   -0.3691 H       1  UNL1        0.0230
     34 H           0.6514   -0.2863    0.9091 H       1  UNL1        0.0230
     35 H           0.6512   -0.7794   -0.7971 H       1  UNL1        0.0230
     36 H           2.9252    0.7026    0.6195 H       1  UNL1        0.0271
     37 H           2.9257    0.2127   -1.0791 H       1  UNL1        0.0271
     38 H           2.7863   -2.1980   -0.3922 H       1  UNL1        0.0381
     39 H           2.7820   -1.7119    1.3163 H       1  UNL1        0.0381
     40 H           7.6820   -4.4949    2.6598 H       1  UNL1        0.0839
     41 H           4.9019   -7.8224    1.2998 H       1  UNL1        0.1492
     42 H           6.0395   -9.6364    2.9602 H       1  UNL1        0.0522
     43 H           7.2006   -9.6129    1.6263 H       1  UNL1        0.0522
     44 H           4.1874  -10.3707    1.3363 H       1  UNL1        0.0920
     45 H           5.2101  -12.3338   -1.4070 H       1  UNL1        0.0623
     46 H           6.2941  -11.9724   -3.3401 H       1  UNL1        0.0655
     47 H           5.9579   -8.7588   -6.3069 H       1  UNL1        0.0660
     48 H           6.6345   -7.8732   -4.9451 H       1  UNL1        0.0660
     49 H           4.8582   -8.2850   -5.0105 H       1  UNL1        0.0660
     50 H           5.4763   -5.5360   -2.7229 H       1  UNL1        0.0660
     51 H           6.0492   -6.3907   -1.2878 H       1  UNL1        0.0660
     52 H           4.3115   -6.5176   -1.8432 H       1  UNL1        0.0660
     53 H           5.0476   -8.2135   -0.4824 H       1  UNL1        0.0660
     54 H           6.4987  -11.9446    2.1050 H       1  UNL1        0.2040
     55 H           3.5909  -12.5415    2.1995 H       1  UNL1        0.0814
     56 H           4.6296  -11.9614    3.5404 H       1  UNL1        0.0814
     57 H           4.2564  -14.4727    3.7213 H       1  UNL1        0.0317
     58 H           5.9563  -14.0772    3.4427 H       1  UNL1        0.0317
     59 H           4.0018  -14.8545    1.2198 H       1  UNL1        0.0269
     60 H           5.1027  -16.0020    1.9820 H       1  UNL1        0.0269
     61 H           6.1361  -15.0339   -0.0450 H       1  UNL1        0.0317
     62 H           7.0675  -14.5218    1.3691 H       1  UNL1        0.0317
     63 H           4.7915  -13.0861    0.0755 H       1  UNL1        0.0814
     64 H           6.6330  -12.6960   -0.0454 H       1  UNL1        0.0814
@<TRIPOS>UNITY_ATOM_ATTR
24 1
charge 1
@<TRIPOS>BOND
     1     1     2    1
     2     2     3    1
     3     3     4    1
     4     4     5    1
     5     5     6   ar
     6     6     7   ar
     7     7     8   ar
     8     8     9    1
     9     9    10    2
    10     9    11   am
    11    11    12    1
    12    12    13    1
    13    13    14    1
    14    14    15   ar
    15    15    16   ar
    16    16    17   ar
    17    17    18    1
    18    18    19    1
    19    17    20   ar
    20    20    21    1
    21    21    22    1
    22    20    23   ar
    23    14    23   ar
    24    13    24    1
    25    24    25    1
    26    25    26    1
    27    26    27    1
    28    27    28    1
    29    28    29    1
    30    24    29    1
    31     8    30   ar
    32    30    31    1
    33    30    32   ar
    34     5    32   ar
    35     1    33    1
    36     1    34    1
    37     1    35    1
    38     2    36    1
    39     2    37    1
    40     3    38    1
    41     3    39    1
    42     7    40    1
    43    11    41    1
    44    12    42    1
    45    12    43    1
    46    13    44    1
    47    15    45    1
    48    16    46    1
    49    19    47    1
    50    19    48    1
    51    19    49    1
    52    22    50    1
    53    22    51    1
    54    22    52    1
    55    23    53    1
    56    24    54    1
    57    25    55    1
    58    25    56    1
    59    26    57    1
    60    26    58    1
    61    27    59    1
    62    27    60    1
    63    28    61    1
    64    28    62    1
    65    29    63    1
    66    29    64    1
