REMARK  10 active torsions:
REMARK  status: ('A' for Active; 'I' for Inactive)
REMARK    1  A    between atoms: C_2  and  C_3 
REMARK    2  A    between atoms: C_3  and  C_4 
REMARK    3  A    between atoms: C_4  and  S_5 
REMARK    4  A    between atoms: S_5  and  C_6 
REMARK    5  A    between atoms: C_9  and  C_10 
REMARK       I    between atoms: C_10  and  N_12 
REMARK    6  A    between atoms: N_12  and  C_13 
REMARK    7  A    between atoms: C_13  and  C_14 
REMARK    8  A    between atoms: C_14  and  C_15 
REMARK    9  A    between atoms: C_14  and  N_23 
REMARK   10  A    between atoms: C_18  and  O_19 
ROOT
ATOM      1  C   UNL d   1      11.030  -2.205  -2.001  0.00  0.00     0.256 C 
ATOM      2  O   UNL d   1      11.636  -1.459  -2.777  0.00  0.00    -0.268 OA
ATOM      3  N   UNL d   1      11.705  -2.990  -1.094  0.00  0.00    -0.354 N 
ATOM      4  H   UNL d   1      11.179  -3.633  -0.510  0.00  0.00     0.162 HD
ENDROOT
BRANCH   3   5
ATOM      5  C   UNL d   1      13.139  -3.130  -1.157  0.00  0.00     0.161 C 
BRANCH   5   6
ATOM      6  C   UNL d   1      13.789  -4.292  -0.336  0.00  0.00     0.238 C 
BRANCH   6   7
ATOM      7  C   UNL d   1      13.213  -5.687  -0.580  0.00  0.00    -0.026 C 
ATOM      8  C   UNL d   1      12.107  -5.952  -1.396  0.00  0.00     0.012 C 
ATOM      9  C   UNL d   1      11.679  -7.255  -1.633  0.00  0.00     0.037 C 
ATOM     10  C   UNL d   1      12.495  -8.319  -1.283  0.00  0.00     0.068 C 
ATOM     11  C   UNL d   1      13.605  -8.078  -0.488  0.00  0.00     0.037 C 
ATOM     12  C   UNL d   1      13.847  -6.797   0.000  0.00  0.00     0.012 C 
BRANCH  10  13
ATOM     13  O   UNL d   1      12.127  -9.531  -1.782  0.00  0.00    -0.356 OA
ATOM     14  C   UNL d   1      13.056 -10.588  -1.574  0.00  0.00     0.210 C 
ENDBRANCH  10  13
ENDBRANCH   6   7
BRANCH   6  15
ATOM     15  N   UNL d   1      15.376  -4.238  -0.449  0.00  0.00    -0.061 N 
ATOM     16  C   UNL d   1      15.989  -3.051  -1.180  0.00  0.00     0.236 C 
ATOM     17  C   UNL d   1      16.087  -3.544  -2.607  0.00  0.00     0.029 C 
ATOM     18  C   UNL d   1      16.546  -4.971  -2.478  0.00  0.00     0.029 C 
ATOM     19  C   UNL d   1      16.106  -5.419  -1.109  0.00  0.00     0.236 C 
ATOM     20  H   UNL d   1      15.687  -4.190   0.532  0.00  0.00     0.280 HD
ENDBRANCH   6  15
ENDBRANCH   5   6
ENDBRANCH   3   5
BRANCH   1  21
ATOM     21  C   UNL d   1       9.554  -2.288  -2.026  0.00  0.00     0.090 A 
ATOM     22  C   UNL d   1       8.837  -1.425  -2.827  0.00  0.00     0.139 A 
ATOM     23  N   UNL d   1       7.482  -1.387  -2.873  0.00  0.00    -0.234 NA
ATOM     24  C   UNL d   1       6.816  -2.255  -2.095  0.00  0.00     0.189 A 
ATOM     25  N   UNL d   1       7.409  -3.155  -1.311  0.00  0.00    -0.210 NA
ATOM     26  C   UNL d   1       8.753  -3.145  -1.297  0.00  0.00     0.146 A 
ATOM     27 CL   UNL d   1       9.322  -4.358  -0.209  0.00  0.00    -0.061 Cl
BRANCH  24  28
ATOM     28  S   UNL d   1       5.056  -2.357  -2.232  0.00  0.00    -0.090 SA
BRANCH  28  29
ATOM     29  C   UNL d   1       4.528  -1.121  -0.993  0.00  0.00     0.082 C 
BRANCH  29  30
ATOM     30  C   UNL d   1       2.994  -1.094  -0.959  0.00  0.00     0.010 C 
BRANCH  30  31
ATOM     31  C   UNL d   1       2.455  -0.061   0.033  0.00  0.00    -0.004 C 
ATOM     32  C   UNL d   1       0.932  -0.052   0.042  0.00  0.00     0.005 C 
ENDBRANCH  30  31
ENDBRANCH  29  30
ENDBRANCH  28  29
ENDBRANCH  24  28
ENDBRANCH   1  21
TORSDOF 10
