@<TRIPOS>MOLECULE
*****
 63 66 0 0 0
SMALL
GASTEIGER

@<TRIPOS>ATOM
      1 O           0.9415   -0.0916    0.0360 O.2     1  UNL1       -0.2738
      2 C           2.1693   -0.0006   -0.0307 C.2     1  UNL1        0.2343
      3 C           2.8726    1.1955   -0.6907 C.3     1  UNL1        0.0861
      4 N           1.9766    2.2607   -1.1049 N.pl3   1  UNL1       -0.3354
      5 C           2.4853    3.3355   -1.8142 C.ar    1  UNL1        0.0277
      6 C           2.0018    4.6264   -1.5902 C.ar    1  UNL1       -0.0374
      7 C           2.5120    5.7205   -2.3092 C.ar    1  UNL1       -0.0182
      8 C           3.5585    5.5509   -3.2193 C.ar    1  UNL1        0.1207
      9 O           4.0225    6.6818   -3.8363 O.3     1  UNL1       -0.4894
     10 C           5.2057    6.5274   -4.6389 C.3     1  UNL1        0.1156
     11 C           5.7516    7.8839   -5.0982 C.3     1  UNL1        0.0927
     12 C           5.7989    8.9376   -4.0058 C.3     1  UNL1       -0.0213
     13 C           5.7236   10.2218   -4.7886 C.3     1  UNL1       -0.0270
     14 C           4.8410    9.8517   -5.9618 C.3     1  UNL1        0.0482
     15 O           4.9651    8.4384   -6.1692 O.3     1  UNL1       -0.3732
     16 C           4.0537    4.2715   -3.4345 C.ar    1  UNL1       -0.0182
     17 C           3.5255    3.1855   -2.7364 C.ar    1  UNL1       -0.0374
     18 N           2.9553   -1.0567    0.4021 N.am    1  UNL1       -0.2842
     19 C           4.3560   -1.1002    0.5112 C.ar    1  UNL1        0.0341
     20 C           5.0532   -2.2772    0.2487 C.ar    1  UNL1       -0.0404
     21 C           6.4439   -2.3074    0.4039 C.ar    1  UNL1       -0.0593
     22 C           7.1375   -1.1515    0.7760 C.ar    1  UNL1       -0.0495
     23 C           6.4398    0.0211    1.0825 C.ar    1  UNL1        0.0388
     24 C           7.1767    1.2208    1.5633 C.2     1  UNL1        0.2483
     25 O           8.4076    1.1310    1.6396 O.2     1  UNL1       -0.2699
     26 N           6.4502    2.3468    1.9438 N.am    1  UNL1       -0.2815
     27 C           7.0545    3.5631    2.3120 C.ar    1  UNL1        0.0342
     28 C           6.4586    4.4024    3.2565 C.ar    1  UNL1       -0.0404
     29 C           7.0311    5.6476    3.5397 C.ar    1  UNL1       -0.0595
     30 C           8.2034    6.0431    2.8922 C.ar    1  UNL1       -0.0500
     31 C           8.7901    5.2128    1.9299 C.ar    1  UNL1        0.0566
     32 C           9.9891    5.6500    1.1389 C.3     1  UNL1        0.4175
     33 F           9.7512    6.8028    0.4535 F       1  UNL1       -0.1659
     34 F          11.0772    5.8881    1.9178 F       1  UNL1       -0.1659
     35 F          10.3866    4.7437    0.2013 F       1  UNL1       -0.1659
     36 C           8.2115    3.9731    1.6600 C.ar    1  UNL1       -0.0288
     37 C           5.0545    0.0110    0.9782 C.ar    1  UNL1       -0.0284
     38 H           3.4737    0.7959   -1.5138 H       1  UNL1        0.0557
     39 H           3.5169    1.6899    0.0272 H       1  UNL1        0.0557
     40 H           0.9766    2.0843   -1.0807 H       1  UNL1        0.1466
     41 H           1.2477    4.8002   -0.8257 H       1  UNL1        0.0637
     42 H           2.0871    6.7089   -2.1527 H       1  UNL1        0.0655
     43 H           4.9585    5.9196   -5.5174 H       1  UNL1        0.0723
     44 H           5.9925    6.0397   -4.0486 H       1  UNL1        0.0723
     45 H           6.7544    7.7280   -5.5171 H       1  UNL1        0.0630
     46 H           6.7000    8.8570   -3.3915 H       1  UNL1        0.0292
     47 H           4.9315    8.8745   -3.3407 H       1  UNL1        0.0292
     48 H           6.7223   10.5039   -5.1401 H       1  UNL1        0.0288
     49 H           5.3214   11.0569   -4.2081 H       1  UNL1        0.0288
     50 H           5.1280   10.3872   -6.8724 H       1  UNL1        0.0560
     51 H           3.7875   10.0636   -5.7554 H       1  UNL1        0.0560
     52 H           4.8392    4.0685   -4.1527 H       1  UNL1        0.0655
     53 H           3.9322    2.2069   -2.9664 H       1  UNL1        0.0637
     54 H           2.4337   -1.8942    0.6378 H       1  UNL1        0.1549
     55 H           4.5432   -3.1668   -0.1131 H       1  UNL1        0.0636
     56 H           6.9945   -3.2323    0.2434 H       1  UNL1        0.0618
     57 H           8.2236   -1.1797    0.8605 H       1  UNL1        0.0625
     58 H           5.4428    2.3397    2.0107 H       1  UNL1        0.1551
     59 H           5.5860    4.0854    3.8228 H       1  UNL1        0.0636
     60 H           6.5631    6.3173    4.2584 H       1  UNL1        0.0618
     61 H           8.6547    7.0057    3.1268 H       1  UNL1        0.0623
     62 H           8.6467    3.3457    0.8850 H       1  UNL1        0.0642
     63 H           4.4940    0.8503    1.3496 H       1  UNL1        0.0644
@<TRIPOS>BOND
     1     1     2    2
     2     2     3    1
     3     3     4    1
     4     4     5    1
     5     5     6   ar
     6     6     7   ar
     7     7     8   ar
     8     8     9    1
     9     9    10    1
    10    10    11    1
    11    11    12    1
    12    12    13    1
    13    13    14    1
    14    14    15    1
    15    11    15    1
    16     8    16   ar
    17    16    17   ar
    18     5    17   ar
    19     2    18   am
    20    18    19    1
    21    19    20   ar
    22    20    21   ar
    23    21    22   ar
    24    22    23   ar
    25    23    24    1
    26    24    25    2
    27    24    26   am
    28    26    27    1
    29    27    28   ar
    30    28    29   ar
    31    29    30   ar
    32    30    31   ar
    33    31    32    1
    34    32    33    1
    35    32    34    1
    36    32    35    1
    37    31    36   ar
    38    27    36   ar
    39    23    37   ar
    40    19    37   ar
    41     3    38    1
    42     3    39    1
    43     4    40    1
    44     6    41    1
    45     7    42    1
    46    10    43    1
    47    10    44    1
    48    11    45    1
    49    12    46    1
    50    12    47    1
    51    13    48    1
    52    13    49    1
    53    14    50    1
    54    14    51    1
    55    16    52    1
    56    17    53    1
    57    18    54    1
    58    20    55    1
    59    21    56    1
    60    22    57    1
    61    26    58    1
    62    28    59    1
    63    29    60    1
    64    30    61    1
    65    36    62    1
    66    37    63    1
