@<TRIPOS>MOLECULE
*****
 38 40 0 0 0
SMALL
GASTEIGER

@<TRIPOS>ATOM
      1 C           1.1447    1.8237   -2.1808 C.3     1  UNL1       -0.0635
      2 C           2.6158    1.4089   -2.1877 C.3     1  UNL1       -0.0352
      3 CA          3.1214    0.1121   -1.4932 C.3     1  UNL1        0.0464
      4 C           2.6568   -0.0857   -0.0267 C.3     1  UNL1        0.0626
      5 O           2.0937    1.0814    0.5492 O.3     1  UNL1       -0.3932
      6 N           4.6118    0.0406   -1.5730 N.am    1  UNL1       -0.3024
      7 C           5.3276    0.1110   -2.7701 C.2     1  UNL1        0.3020
      8 O           4.7580    0.2066   -3.8520 O.2     1  UNL1       -0.2649
      9 C           6.7790    0.0913   -2.6562 C.ar    1  UNL1        0.3136
     10 N           7.5273   -0.6721   -1.8854 N.ar    1  UNL1       -0.1831
     11 C           8.8087   -0.3140   -2.2722 C.ar    1  UNL1        0.2032
     12 C           9.9868   -0.9735   -1.7399 C.ar    1  UNL1        0.0316
     13 C          10.1967   -2.3492   -1.9322 C.ar    1  UNL1       -0.0502
     14 C          11.2982   -2.9899   -1.3634 C.ar    1  UNL1       -0.0591
     15 C          12.2155   -2.2860   -0.5773 C.ar    1  UNL1       -0.0378
     16 C          12.0146   -0.9080   -0.4215 C.ar    1  UNL1        0.0471
     17 N          12.7617    0.0238    0.2668 N.ar    1  UNL1       -0.3606
     18 C          12.2217    1.2716    0.1094 C.ar    1  UNL1        0.0028
     19 C          11.0785    1.1428   -0.6437 C.ar    1  UNL1       -0.0360
     20 C          10.9318   -0.2309   -0.9952 C.ar    1  UNL1        0.0104
     21 N           8.8530    0.6640   -3.1909 N.ar    1  UNL1       -0.0555
     22 O           7.5072    0.9127   -3.4699 O.2     1  UNL1       -0.3276
     23 H           1.0370    2.6902   -2.8464 H       1  UNL1        0.0230
     24 H           0.7674    2.1844   -1.2233 H       1  UNL1        0.0230
     25 H           0.4875    1.0340   -2.5527 H       1  UNL1        0.0230
     26 H           3.2099    2.2505   -1.8148 H       1  UNL1        0.0281
     27 H           2.8497    1.3166   -3.2519 H       1  UNL1        0.0281
     28 HA          2.7766   -0.7617   -2.0630 H       1  UNL1        0.0521
     29 H1          1.9063   -0.8825    0.0352 H       1  UNL1        0.0575
     30 H2          3.4833   -0.3816    0.6287 H       1  UNL1        0.0575
     31 H           1.1816    1.1282    0.2163 H       1  UNL1        0.2095
     32 H           5.1519   -0.0058   -0.7146 H       1  UNL1        0.1495
     33 H           9.4987   -2.9240   -2.5370 H       1  UNL1        0.0625
     34 H          11.4436   -4.0556   -1.5287 H       1  UNL1        0.0618
     35 H          13.0598   -2.7944   -0.1203 H       1  UNL1        0.0638
     36 H          13.6012   -0.1844    0.7905 H       1  UNL1        0.1653
     37 H          12.6929    2.1430    0.5436 H       1  UNL1        0.0807
     38 H          10.4234    1.9522   -0.9387 H       1  UNL1        0.0639
@<TRIPOS>BOND
     1     1     2    1
     2     4     5    1
     3     3     6    1
     4     6     7   am
     5     7     8    2
     6     7     9    1
     7     9    10   ar
     8    10    11   ar
     9    11    12    1
    10    12    13   ar
    11    13    14   ar
    12    14    15   ar
    13    15    16   ar
    14    16    17   ar
    15    17    18   ar
    16    18    19   ar
    17    19    20   ar
    18    12    20   ar
    19    16    20   ar
    20    11    21   ar
    21    21    22   ar
    22     9    22   ar
    23     3     4    1
    24     3     2    1
    25     1    23    1
    26     1    24    1
    27     1    25    1
    28     2    26    1
    29     2    27    1
    30     3    28    1
    31     4    29    1
    32     4    30    1
    33     5    31    1
    34     6    32    1
    35    13    33    1
    36    14    34    1
    37    15    35    1
    38    17    36    1
    39    18    37    1
    40    19    38    1
