@<TRIPOS>MOLECULE
*****
 49 50 0 0 0
SMALL
GASTEIGER

@<TRIPOS>ATOM
      1 C           0.9617   -0.0310    0.1173 C.3     1  UNL1       -0.0462
      2 C           2.4946   -0.0372    0.0016 C.3     1  UNL1        0.0286
      3 C           2.9534    0.4848   -1.3782 C.3     1  UNL1        0.0435
      4 C           2.4756   -0.3886   -2.5341 C.2     1  UNL1        0.2308
      5 O           1.8337   -1.4292   -2.3822 O.2     1  UNL1       -0.2742
      6 N           2.7915    0.0692   -3.7999 N.am    1  UNL1       -0.2341
      7 N           2.3167   -0.6702   -4.9182 N.am    1  UNL1       -0.2304
      8 C           2.7218   -0.3094   -6.1900 C.2     1  UNL1        0.2601
      9 O           3.4777    0.6441   -6.3956 O.2     1  UNL1       -0.2687
     10 C           2.2250   -1.1161   -7.3508 C.ar    1  UNL1        0.0382
     11 C           0.9079   -1.5899   -7.4365 C.ar    1  UNL1       -0.0482
     12 C           0.4631   -2.2333   -8.6064 C.ar    1  UNL1       -0.0427
     13 C           1.3305   -2.4153   -9.6846 C.ar    1  UNL1        0.0410
     14 CL          0.7772   -3.1969  -11.1157 Cl      1  UNL1       -0.0835
     15 C           2.6416   -1.9551   -9.6088 C.ar    1  UNL1       -0.0427
     16 C           3.0842   -1.3051   -8.4479 C.ar    1  UNL1       -0.0482
     17 N           3.0573    0.7775    1.0920 N.am    1  UNL1       -0.3120
     18 C           4.4092    0.8472    1.3630 C.2     1  UNL1        0.2163
     19 O           5.2564    0.2905    0.6680 O.2     1  UNL1       -0.2755
     20 C           4.8143    1.7170    2.5554 C.3     1  UNL1        0.0356
     21 C           4.6256    3.2058    2.2369 C.3     1  UNL1       -0.0419
     22 C           4.8984    4.1003    3.4462 C.3     1  UNL1       -0.0524
     23 C           4.0774    3.6685    4.6558 C.3     1  UNL1       -0.0530
     24 C           4.3551    2.2112    5.0068 C.3     1  UNL1       -0.0524
     25 C           4.0637    1.2966    3.8243 C.3     1  UNL1       -0.0419
     26 H           0.4819   -0.6367   -0.6552 H       1  UNL1        0.0248
     27 H           0.5659    0.9864    0.0283 H       1  UNL1        0.0248
     28 H           0.6323   -0.4361    1.0805 H       1  UNL1        0.0248
     29 H           2.8586   -1.0619    0.1519 H       1  UNL1        0.0500
     30 H           4.0470    0.5187   -1.4241 H       1  UNL1        0.0377
     31 H           2.5968    1.5140   -1.5102 H       1  UNL1        0.0377
     32 H           3.4057    0.8604   -3.9923 H       1  UNL1        0.1728
     33 H           1.7957   -1.5184   -4.6980 H       1  UNL1        0.1731
     34 H           0.1983   -1.4261   -6.6305 H       1  UNL1        0.0625
     35 H          -0.5682   -2.5725   -8.6836 H       1  UNL1        0.0632
     36 H           3.3174   -2.0813  -10.4521 H       1  UNL1        0.0632
     37 H           4.1062   -0.9319   -8.4094 H       1  UNL1        0.0625
     38 H           2.4073    1.1963    1.7446 H       1  UNL1        0.1490
     39 H           5.8869    1.5409    2.7275 H       1  UNL1        0.0394
     40 H           3.6043    3.3873    1.8821 H       1  UNL1        0.0272
     41 H           5.2935    3.4974    1.4162 H       1  UNL1        0.0272
     42 H           4.6652    5.1411    3.1943 H       1  UNL1        0.0265
     43 H           5.9651    4.0651    3.7007 H       1  UNL1        0.0265
     44 H           3.0096    3.8012    4.4397 H       1  UNL1        0.0265
     45 H           4.3126    4.3063    5.5146 H       1  UNL1        0.0265
     46 H           3.7309    1.9108    5.8555 H       1  UNL1        0.0265
     47 H           5.4009    2.0972    5.3149 H       1  UNL1        0.0265
     48 H           2.9822    1.3108    3.6560 H       1  UNL1        0.0272
     49 H           4.3226    0.2620    4.0783 H       1  UNL1        0.0272
@<TRIPOS>BOND
     1     1     2    1
     2     2     3    1
     3     3     4    1
     4     4     5    2
     5     4     6   am
     6     6     7    1
     7     7     8   am
     8     8     9    2
     9     8    10    1
    10    10    11   ar
    11    11    12   ar
    12    12    13   ar
    13    13    14    1
    14    13    15   ar
    15    15    16   ar
    16    10    16   ar
    17     2    17    1
    18    17    18   am
    19    18    19    2
    20    18    20    1
    21    20    21    1
    22    21    22    1
    23    22    23    1
    24    23    24    1
    25    24    25    1
    26    20    25    1
    27     1    26    1
    28     1    27    1
    29     1    28    1
    30     2    29    1
    31     3    30    1
    32     3    31    1
    33     6    32    1
    34     7    33    1
    35    11    34    1
    36    12    35    1
    37    15    36    1
    38    16    37    1
    39    17    38    1
    40    20    39    1
    41    21    40    1
    42    21    41    1
    43    22    42    1
    44    22    43    1
    45    23    44    1
    46    23    45    1
    47    24    46    1
    48    24    47    1
    49    25    48    1
    50    25    49    1
