@<TRIPOS>MOLECULE
*****
 55 56 0 0 0
SMALL
GASTEIGER

@<TRIPOS>ATOM
      1 C           0.9547   -0.2766   -0.0722 C.3     1  UNL1       -0.0559
      2 C           2.5063   -0.1213   -0.0053 C.3     1  UNL1       -0.0092
      3 C           3.3197    0.7084    1.0546 C.3     1  UNL1       -0.0559
      4 C           2.9846   -1.5439    0.3064 C.3     1  UNL1       -0.0559
      5 C           2.8742    0.4676   -1.3447 C.ar    1  UNL1       -0.0003
      6 C           3.5097   -0.3805   -2.2930 C.ar    1  UNL1       -0.0546
      7 C           4.0302    0.1110   -3.4762 C.ar    1  UNL1       -0.0613
      8 C           3.8396    1.4500   -3.7702 C.ar    1  UNL1       -0.0583
      9 C           3.1566    2.2955   -2.8653 C.ar    1  UNL1       -0.0196
     10 C           2.6385    1.8330   -1.6377 C.ar    1  UNL1        0.1249
     11 O           2.0069    2.8052   -0.8617 O.3     1  UNL1       -0.4824
     12 C           1.2316    2.5956    0.3241 C.3     1  UNL1        0.1666
     13 C           0.6710    3.7410    1.1585 C.2     1  UNL1        0.2667
     14 O           0.6154    4.9016    0.8020 O.2     1  UNL1       -0.2705
     15 N           0.1797    3.2876    2.3988 N.am    1  UNL1       -0.2304
     16 N          -0.4451    4.2273    3.2175 N.am    1  UNL1       -0.2181
     17 C          -0.9916    3.8498    4.4258 C.2     1  UNL1        0.3160
     18 O          -0.9310    2.7158    4.8805 O.2     1  UNL1       -0.2513
     19 N          -1.6166    4.8918    5.0761 N.am    1  UNL1       -0.2982
     20 C          -2.2496    4.6952    6.3702 C.3     1  UNL1        0.0147
     21 C          -2.8704    5.9762    6.9059 C.3     1  UNL1       -0.0191
     22 C          -3.5223    5.8084    8.2832 C.3     1  UNL1        0.0296
     23 N          -4.0738    7.0870    8.7923 N.ar    1  UNL1       -0.2957
     24 C          -3.5823    8.3604    8.5107 C.ar    1  UNL1        0.0732
     25 C          -4.3541    9.2550    9.1874 C.ar    1  UNL1        0.1870
     26 N          -5.2795    8.5134    9.8767 N.ar    1  UNL1       -0.2011
     27 C          -5.1115    7.2058    9.6424 C.ar    1  UNL1        0.2463
     28 H           0.4929   -0.3618    0.9128 H       1  UNL1        0.0238
     29 H           0.6804   -1.1658   -0.6599 H       1  UNL1        0.0238
     30 H           0.4209    0.4658   -0.6737 H       1  UNL1        0.0238
     31 H           2.8909    0.6084    2.0561 H       1  UNL1        0.0238
     32 H           3.4841    1.7731    0.8302 H       1  UNL1        0.0238
     33 H           4.3722    0.4033    1.0959 H       1  UNL1        0.0238
     34 H           2.6327   -1.8238    1.3061 H       1  UNL1        0.0238
     35 H           4.0769   -1.5983    0.2948 H       1  UNL1        0.0238
     36 H           2.5932   -2.2744   -0.4044 H       1  UNL1        0.0238
     37 H           3.6247   -1.4480   -2.1148 H       1  UNL1        0.0622
     38 H           4.5855   -0.5485   -4.1414 H       1  UNL1        0.0618
     39 H           4.2188    1.8321   -4.7157 H       1  UNL1        0.0619
     40 H           3.0536    3.3425   -3.1377 H       1  UNL1        0.0654
     41 H           1.7671    2.1047    1.1175 H       1  UNL1        0.0795
     42 H           0.3310    2.0282    0.1258 H       1  UNL1        0.0795
     43 H           0.2541    2.3325    2.7559 H       1  UNL1        0.1729
     44 H          -0.5067    5.1571    2.8193 H       1  UNL1        0.1744
     45 H          -1.6222    5.7944    4.6217 H       1  UNL1        0.1503
     46 H          -1.4824    4.3332    7.0640 H       1  UNL1        0.0463
     47 H          -3.0088    3.9140    6.2666 H       1  UNL1        0.0463
     48 H          -3.6159    6.3660    6.2017 H       1  UNL1        0.0297
     49 H          -2.0745    6.7265    6.9649 H       1  UNL1        0.0297
     50 H          -2.7931    5.4561    9.0224 H       1  UNL1        0.0494
     51 H          -4.3378    5.0760    8.2375 H       1  UNL1        0.0494
     52 H          -2.7410    8.4848    7.8529 H       1  UNL1        0.0871
     53 H          -4.3505   10.3280    9.2637 H       1  UNL1        0.1392
     54 H          -5.9944    8.9014   10.4885 H       1  UNL1        0.4538
     55 H          -5.7071    6.4052   10.0683 H       1  UNL1        0.1600
@<TRIPOS>UNITY_ATOM_ATTR
26 1
charge 1
@<TRIPOS>BOND
     1     1     2    1
     2     2     3    1
     3     2     4    1
     4     2     5    1
     5     5     6   ar
     6     6     7   ar
     7     7     8   ar
     8     8     9   ar
     9     9    10   ar
    10     5    10   ar
    11    10    11    1
    12    11    12    1
    13    12    13    1
    14    13    14    2
    15    13    15   am
    16    15    16    1
    17    16    17   am
    18    17    18    2
    19    17    19   am
    20    19    20    1
    21    20    21    1
    22    21    22    1
    23    22    23    1
    24    23    24   ar
    25    24    25   ar
    26    25    26   ar
    27    26    27   ar
    28    23    27   ar
    29     1    28    1
    30     1    29    1
    31     1    30    1
    32     3    31    1
    33     3    32    1
    34     3    33    1
    35     4    34    1
    36     4    35    1
    37     4    36    1
    38     6    37    1
    39     7    38    1
    40     8    39    1
    41     9    40    1
    42    12    41    1
    43    12    42    1
    44    15    43    1
    45    16    44    1
    46    19    45    1
    47    20    46    1
    48    20    47    1
    49    21    48    1
    50    21    49    1
    51    22    50    1
    52    22    51    1
    53    24    52    1
    54    25    53    1
    55    26    54    1
    56    27    55    1
