REMARK  8 active torsions:
REMARK  status: ('A' for Active; 'I' for Inactive)
REMARK    1  A    between atoms: C_2  and  O_3 
REMARK    2  A    between atoms: O_3  and  C_4 
REMARK    3  A    between atoms: C_7  and  N_8 
REMARK       I    between atoms: N_8  and  C_9 
REMARK       I    between atoms: C_9  and  N_23 
REMARK       I    between atoms: N_10  and  C_11 
REMARK    4  A    between atoms: C_11  and  C_13 
REMARK    5  A    between atoms: C_17  and  N_18 
REMARK       I    between atoms: N_18  and  C_19 
REMARK    6  A    between atoms: N_23  and  C_24 
REMARK    7  A    between atoms: C_24  and  C_25 
REMARK    8  A    between atoms: C_25  and  C_26 
ROOT
ATOM      1  N   UNL d   1       8.382  -1.261  -2.189  0.00  0.00    -0.190 N 
ATOM      2  C   UNL d   1       9.221  -1.733  -1.153  0.00  0.00     0.704 C 
ATOM      3  N   UNL d   1       8.928  -2.140   0.056  0.00  0.00    -0.023 NA
ATOM      4  C   UNL d   1       7.798  -1.608   0.637  0.00  0.00     0.294 C 
ATOM      5  O   UNL d   1       7.583  -0.417   0.657  0.00  0.00    -0.265 OA
ATOM      6  N   UNL d   1      10.595  -1.790  -1.457  0.00  0.00    -0.224 N 
ATOM      7  H   UNL d   1       8.823  -0.736  -2.931  0.00  0.00     0.184 HD
ATOM      8  H   UNL d   1      10.960  -1.258  -2.240  0.00  0.00     0.177 HD
ENDROOT
BRANCH   1   9
ATOM      9  C   UNL d   1       6.951  -1.119  -2.192  0.00  0.00     0.049 C 
ATOM     10  C   UNL d   1       6.217  -0.298  -3.043  0.00  0.00     0.033 C 
ATOM     11  C   UNL d   1       4.848   0.026  -2.759  0.00  0.00     0.039 C 
ATOM     12  C   UNL d   1       4.239  -0.361  -1.568  0.00  0.00     0.068 C 
ATOM     13  C   UNL d   1       4.960  -1.204  -0.782  0.00  0.00     0.039 C 
ATOM     14  C   UNL d   1       6.141  -1.770  -1.285  0.00  0.00     0.033 C 
BRANCH  12  15
ATOM     15  O   UNL d   1       2.920  -0.099  -1.332  0.00  0.00    -0.352 OA
BRANCH  15  16
ATOM     16  C   UNL d   1       2.508   0.079   0.036  0.00  0.00     0.171 C 
ATOM     17  C   UNL d   1       0.989   0.034   0.088  0.00  0.00     0.034 C 
ENDBRANCH  15  16
ENDBRANCH  12  15
ENDBRANCH   1   9
BRANCH   6  18
ATOM     18  C   UNL d   1      11.568  -2.148  -0.392  0.00  0.00     0.142 C 
BRANCH  18  19
ATOM     19  C   UNL d   1      13.036  -2.110  -0.815  0.00  0.00     0.057 C 
BRANCH  19  20
ATOM     20  C   UNL d   1      14.066  -2.601   0.182  0.00  0.00    -0.048 A 
ATOM     21  C   UNL d   1      15.358  -2.664  -0.153  0.00  0.00    -0.006 A 
ATOM     22  C   UNL d   1      16.017  -2.329  -1.364  0.00  0.00     0.014 A 
ATOM     23  C   UNL d   1      16.075  -3.236   0.993  0.00  0.00     0.038 A 
ATOM     24  C   UNL d   1      17.309  -2.647  -1.493  0.00  0.00     0.001 A 
ATOM     25  C   UNL d   1      18.065  -3.195  -0.378  0.00  0.00     0.002 A 
ATOM     26  C   UNL d   1      17.525  -3.488   0.824  0.00  0.00     0.030 A 
ATOM     27  N   UNL d   1      15.288  -3.439   1.981  0.00  0.00    -0.385 N 
ATOM     28  C   UNL d   1      13.877  -3.105   1.591  0.00  0.00     0.155 A 
ATOM     29  H   UNL d   1      15.620  -3.777   2.885  0.00  0.00     0.160 HD
ENDBRANCH  19  20
ENDBRANCH  18  19
ENDBRANCH   6  18
BRANCH   4  30
ATOM     30  C   UNL d   1       7.032  -2.471   1.625  0.00  0.00     0.036 C 
ATOM     31  C   UNL d   1       5.757  -3.040   1.652  0.00  0.00     0.017 C 
ATOM     32  C   UNL d   1       5.081  -3.156   2.881  0.00  0.00     0.003 C 
ATOM     33  C   UNL d   1       5.689  -2.714   4.070  0.00  0.00     0.029 C 
ATOM     34  C   UNL d   1       6.979  -2.191   4.014  0.00  0.00     0.035 C 
ATOM     35  C   UNL d   1       7.635  -2.249   2.820  0.00  0.00     0.046 C 
BRANCH  34  36
ATOM     36  N   UNL d   1       7.651  -1.608   5.093  0.00  0.00    -0.327 N 
ATOM     37  C   UNL d   1       8.824  -0.887   5.128  0.00  0.00     0.218 C 
ATOM     38  C   UNL d   1       9.678  -0.479   3.920  0.00  0.00     0.117 C 
ATOM     39  O   UNL d   1       9.248  -0.562   6.245  0.00  0.00    -0.274 OA
ATOM     40  H   UNL d   1       7.205  -1.674   6.001  0.00  0.00     0.169 HD
ENDBRANCH  34  36
ENDBRANCH   4  30
TORSDOF 8
