REMARK  4 active torsions:
REMARK  status: ('A' for Active; 'I' for Inactive)
REMARK    1  A    between atoms: O_2  and  C_3 
REMARK    2  A    between atoms: C_6  and  C_7 
REMARK       I    between atoms: C_7  and  N_9 
REMARK    3  A    between atoms: N_9  and  N_10 
REMARK       I    between atoms: N_10  and  C_11 
REMARK       I    between atoms: C_11  and  N_13 
REMARK    4  A    between atoms: N_13  and  C_14 
ROOT
ATOM      1  N   UNL d   1       5.017   5.640  -5.130  0.00  0.00    -0.248 N 
ATOM      2  C   UNL d   1       4.441   6.899  -5.280  0.00  0.00     0.339 C 
ATOM      3  O   UNL d   1       3.511   7.243  -4.546  0.00  0.00    -0.245 OA
ATOM      4  N   UNL d   1       4.959   7.676  -6.312  0.00  0.00    -0.308 N 
ATOM      5  H   UNL d   1       5.798   5.274  -5.666  0.00  0.00     0.192 HD
ATOM      6  H   UNL d   1       5.551   7.233  -7.000  0.00  0.00     0.170 HD
ENDROOT
BRANCH   1   7
ATOM      7  N   UNL d   1       4.498   4.787  -4.094  0.00  0.00    -0.262 N 
ATOM      8  C   UNL d   1       5.023   3.518  -3.862  0.00  0.00     0.270 C 
ATOM      9  O   UNL d   1       5.972   3.080  -4.522  0.00  0.00    -0.266 OA
ATOM     10  H   UNL d   1       3.697   5.178  -3.603  0.00  0.00     0.190 HD
BRANCH   8  11
ATOM     11  C   UNL d   1       4.377   2.648  -2.797  0.00  0.00     0.033 A 
ATOM     12  C   UNL d   1       4.838   1.333  -2.581  0.00  0.00     0.020 A 
ATOM     13  C   UNL d   1       4.166   0.455  -1.702  0.00  0.00     0.038 A 
ATOM     14  C   UNL d   1       3.056   0.893  -0.980  0.00  0.00     0.068 A 
ATOM     15  C   UNL d   1       2.650   2.217  -1.121  0.00  0.00     0.038 A 
ATOM     16  C   UNL d   1       3.292   3.081  -2.025  0.00  0.00     0.020 A 
BRANCH  14  17
ATOM     17  O   UNL d   1       2.481   0.011  -0.104  0.00  0.00    -0.356 OA
ATOM     18  C   UNL d   1       1.055   0.076  -0.029  0.00  0.00     0.210 C 
ENDBRANCH  14  17
ENDBRANCH   8  11
ENDBRANCH   1   7
BRANCH   4  19
ATOM     19  C   UNL d   1       4.523   9.007  -6.592  0.00  0.00     0.036 A 
ATOM     20  C   UNL d   1       4.432   9.478  -7.913  0.00  0.00     0.031 A 
ATOM     21  C   UNL d   1       4.054  10.810  -8.179  0.00  0.00     0.026 A 
ATOM     22  C   UNL d   1       3.744  11.671  -7.128  0.00  0.00     0.034 A 
ATOM     23 CL   UNL d   1       3.191  13.270  -7.447  0.00  0.00    -0.084 Cl
ATOM     24  C   UNL d   1       3.852  11.225  -5.816  0.00  0.00     0.026 A 
ATOM     25  C   UNL d   1       4.232   9.901  -5.554  0.00  0.00     0.031 A 
ENDBRANCH   4  19
TORSDOF 4
