@<TRIPOS>MOLECULE
*****
 50 51 0 0 0
SMALL
GASTEIGER

@<TRIPOS>ATOM
      1 C           1.1078   -0.0624   -0.0510 C.3     1  UNL1       -0.0306
      2 C           2.6261   -0.0853   -0.0447 C.3     1  UNL1        0.0884
      3 O           3.0664   -1.2705    0.6272 O.3     1  UNL1       -0.4766
      4 C           4.4316   -1.3893    0.7287 C.ar    1  UNL1        0.2149
      5 C           5.2318   -0.3242    1.1250 C.ar    1  UNL1        0.0046
      6 C           6.6157   -0.4744    1.2545 C.ar    1  UNL1       -0.0238
      7 C           7.5314    0.6754    1.6547 C.3     1  UNL1        0.0385
      8 N           6.8787    1.9715    1.8903 N.am    1  UNL1       -0.2941
      9 C           7.5646    3.1067    2.2532 C.2     1  UNL1        0.3162
     10 O           8.7856    3.1380    2.4057 O.2     1  UNL1       -0.2513
     11 N           6.7604    4.2230    2.4304 N.am    1  UNL1       -0.2182
     12 N           7.3464    5.4716    2.8107 N.am    1  UNL1       -0.2332
     13 C           6.5293    6.5830    2.9550 C.2     1  UNL1        0.2294
     14 O           5.3158    6.5034    2.7534 O.2     1  UNL1       -0.2743
     15 C           7.2260    7.8995    3.3734 C.3     1  UNL1        0.0282
     16 C           6.2080    9.0572    3.5797 C.3     1  UNL1       -0.0327
     17 C           5.3959    8.8126    4.8652 C.3     1  UNL1       -0.0498
     18 C           4.3518    9.8953    5.1093 C.3     1  UNL1       -0.0528
     19 C           4.9872   11.2774    5.1572 C.3     1  UNL1       -0.0530
     20 C           5.7858   11.5489    3.8858 C.3     1  UNL1       -0.0528
     21 C           6.8468   10.4634    3.6381 C.3     1  UNL1       -0.0498
     22 C           7.1308   -1.7563    1.0035 C.ar    1  UNL1       -0.0387
     23 C           6.2545   -2.7820    0.6494 C.ar    1  UNL1        0.0317
     24 N           4.9195   -2.6228    0.5069 N.ar    1  UNL1       -0.2213
     25 H           0.7357    0.8290   -0.5658 H       1  UNL1        0.0262
     26 H           0.7202   -0.0573    0.9737 H       1  UNL1        0.0262
     27 H           0.7076   -0.9520   -0.5450 H       1  UNL1        0.0262
     28 H           2.9558    0.8243    0.4678 H       1  UNL1        0.0694
     29 H           3.0032   -0.0762   -1.0739 H       1  UNL1        0.0694
     30 H           4.7550    0.6101    1.3599 H       1  UNL1        0.0674
     31 H           8.2758    0.8226    0.8623 H       1  UNL1        0.0512
     32 H           8.0681    0.4012    2.5712 H       1  UNL1        0.0512
     33 H           5.8823    2.0549    1.8072 H       1  UNL1        0.1506
     34 H           5.7491    4.2289    2.3183 H       1  UNL1        0.1744
     35 H           8.3565    5.4753    2.9328 H       1  UNL1        0.1728
     36 H           7.9449    8.1741    2.5924 H       1  UNL1        0.0361
     37 H           7.7890    7.7345    4.3009 H       1  UNL1        0.0361
     38 H           5.5208    9.0632    2.7226 H       1  UNL1        0.0305
     39 H           6.0776    8.7696    5.7242 H       1  UNL1        0.0268
     40 H           4.8850    7.8469    4.8189 H       1  UNL1        0.0268
     41 H           3.8300    9.6922    6.0509 H       1  UNL1        0.0265
     42 H           3.6000    9.8638    4.3111 H       1  UNL1        0.0265
     43 H           5.6476   11.3503    6.0301 H       1  UNL1        0.0265
     44 H           4.2065   12.0365    5.2824 H       1  UNL1        0.0265
     45 H           6.2590   12.5353    3.9551 H       1  UNL1        0.0265
     46 H           5.0967   11.5878    3.0321 H       1  UNL1        0.0265
     47 H           7.5977   10.5106    4.4367 H       1  UNL1        0.0268
     48 H           7.3633   10.6877    2.6973 H       1  UNL1        0.0268
     49 H           8.1919   -1.9774    1.0861 H       1  UNL1        0.0636
     50 H           6.6145   -3.7931    0.4666 H       1  UNL1        0.0831
@<TRIPOS>BOND
     1     1     2    1
     2     2     3    1
     3     3     4    1
     4     4     5   ar
     5     5     6   ar
     6     6     7    1
     7     7     8    1
     8     8     9   am
     9     9    10    2
    10     9    11   am
    11    11    12    1
    12    12    13   am
    13    13    14    2
    14    13    15    1
    15    15    16    1
    16    16    17    1
    17    17    18    1
    18    18    19    1
    19    19    20    1
    20    20    21    1
    21    16    21    1
    22     6    22   ar
    23    22    23   ar
    24    23    24   ar
    25     4    24   ar
    26     1    25    1
    27     1    26    1
    28     1    27    1
    29     2    28    1
    30     2    29    1
    31     5    30    1
    32     7    31    1
    33     7    32    1
    34     8    33    1
    35    11    34    1
    36    12    35    1
    37    15    36    1
    38    15    37    1
    39    16    38    1
    40    17    39    1
    41    17    40    1
    42    18    41    1
    43    18    42    1
    44    19    43    1
    45    19    44    1
    46    20    45    1
    47    20    46    1
    48    21    47    1
    49    21    48    1
    50    22    49    1
    51    23    50    1
