@<TRIPOS>MOLECULE
*****
 62 64 0 0 0
SMALL
GASTEIGER

@<TRIPOS>ATOM
      1 C           1.0120   -0.1133   -0.0279 C.3     1  UNL1        0.0209
      2 C           2.5065   -0.0483   -0.0263 C.ar    1  UNL1        0.1839
      3 C           3.1899    1.1685   -0.0229 C.ar    1  UNL1        0.0450
      4 C           4.5815    1.2042   -0.0338 C.ar    1  UNL1        0.1337
      5 N           5.2061    2.4347    0.0504 N.pl3   1  UNL1       -0.3047
      6 C           4.9173    3.2988    1.2029 C.3     1  UNL1        0.0538
      7 C           4.5301    4.7018    0.6780 C.3     1  UNL1       -0.0152
      8 N           5.6254    5.2965   -0.2148 N.4     1  UNL1        0.2440
      9 C           5.1849    6.6636   -0.8348 C.3     1  UNL1        0.0461
     10 C           6.3063    7.3647   -1.6175 C.2     1  UNL1        0.2585
     11 O           7.4564    6.9584   -1.5248 O.2     1  UNL1       -0.2699
     12 N           5.9320    8.4263   -2.4270 N.am    1  UNL1       -0.3067
     13 C           6.9749    9.1103   -3.1733 C.3     1  UNL1        0.0405
     14 C           6.6274   10.5033   -3.6298 C.ar    1  UNL1        0.0116
     15 C           5.9708   10.5668   -4.8843 C.ar    1  UNL1       -0.0536
     16 C           5.8028   11.7688   -5.5682 C.ar    1  UNL1       -0.0612
     17 C           6.1567   12.9558   -4.9505 C.ar    1  UNL1       -0.0583
     18 C           6.6688   12.9285   -3.6503 C.ar    1  UNL1       -0.0193
     19 C           6.9698   11.7140   -2.9911 C.ar    1  UNL1        0.1347
     20 O           7.5953   11.9419   -1.7930 O.3     1  UNL1       -0.4054
     21 C           8.1278   10.8937   -1.0081 C.3     1  UNL1        0.5753
     22 F           7.1518   10.0185   -0.6672 F       1  UNL1       -0.1328
     23 F           9.1321   10.2619   -1.6503 F       1  UNL1       -0.1328
     24 F           8.6329   11.3784    0.1454 F       1  UNL1       -0.1328
     25 C           6.1274    4.2795   -1.2865 C.3     1  UNL1       -0.0152
     26 C           6.4146    2.8625   -0.6721 C.3     1  UNL1        0.0538
     27 N           5.2624    0.0497   -0.0902 N.ar    1  UNL1       -0.1752
     28 C           4.5609   -1.1384   -0.0611 C.ar    1  UNL1        0.2826
     29 C           5.2990   -2.4682   -0.0492 C.3     1  UNL1        0.0580
     30 C           4.9304   -3.3201   -1.2686 C.3     1  UNL1       -0.0514
     31 C           6.8110   -2.2634   -0.0058 C.3     1  UNL1       -0.0514
     32 N           3.2162   -1.1845   -0.0234 N.ar    1  UNL1       -0.1956
     33 H           0.5777    0.8927   -0.0305 H       1  UNL1        0.0336
     34 H           0.6510   -0.6329    0.8641 H       1  UNL1        0.0336
     35 H           0.6539   -0.6349   -0.9203 H       1  UNL1        0.0336
     36 H           2.6245    2.0946   -0.0308 H       1  UNL1        0.0714
     37 H           5.8136    3.3711    1.8335 H       1  UNL1        0.0517
     38 H           4.1239    2.8895    1.8375 H       1  UNL1        0.0517
     39 H           4.3548    5.3909    1.5089 H       1  UNL1        0.0830
     40 H           3.6299    4.6295    0.0567 H       1  UNL1        0.0830
     41 H           6.4506    5.5277    0.3613 H       1  UNL1        0.2040
     42 H           4.8835    7.3048    0.0013 H       1  UNL1        0.0913
     43 H           4.3367    6.4568   -1.4920 H       1  UNL1        0.0913
     44 H           5.1140    8.9799   -2.1975 H       1  UNL1        0.1492
     45 H           7.2645    8.4875   -4.0282 H       1  UNL1        0.0513
     46 H           7.8747    9.0972   -2.5816 H       1  UNL1        0.0513
     47 H           5.6360    9.6527   -5.3731 H       1  UNL1        0.0622
     48 H           5.4135   11.7747   -6.5847 H       1  UNL1        0.0618
     49 H           6.0383   13.8998   -5.4803 H       1  UNL1        0.0619
     50 H           6.8691   13.8841   -3.1634 H       1  UNL1        0.0654
     51 H           7.0341    4.6837   -1.7405 H       1  UNL1        0.0830
     52 H           5.3302    4.2175   -2.0338 H       1  UNL1        0.0830
     53 H           7.2589    2.9538    0.0262 H       1  UNL1        0.0517
     54 H           6.7130    2.1662   -1.4625 H       1  UNL1        0.0517
     55 H           4.9991   -3.0186    0.8543 H       1  UNL1        0.0420
     56 H           5.1698   -2.7963   -2.1998 H       1  UNL1        0.0238
     57 H           3.8618   -3.5623   -1.2882 H       1  UNL1        0.0238
     58 H           5.4770   -4.2705   -1.2632 H       1  UNL1        0.0238
     59 H           7.1485   -1.7000   -0.8831 H       1  UNL1        0.0238
     60 H           7.3432   -3.2195    0.0068 H       1  UNL1        0.0238
     61 H           7.1016   -1.7029    0.8893 H       1  UNL1        0.0238
     62 H           2.7414   -2.0880   -0.0048 H       1  UNL1        0.4544
@<TRIPOS>UNITY_ATOM_ATTR
8 1
charge 1
32 1
charge 1
@<TRIPOS>BOND
     1     1     2    1
     2     2     3   ar
     3     3     4   ar
     4     4     5    1
     5     5     6    1
     6     6     7    1
     7     7     8    1
     8     8     9    1
     9     9    10    1
    10    10    11    2
    11    10    12   am
    12    12    13    1
    13    13    14    1
    14    14    15   ar
    15    15    16   ar
    16    16    17   ar
    17    17    18   ar
    18    18    19   ar
    19    14    19   ar
    20    19    20    1
    21    20    21    1
    22    21    22    1
    23    21    23    1
    24    21    24    1
    25     8    25    1
    26    25    26    1
    27     5    26    1
    28     4    27   ar
    29    27    28   ar
    30    28    29    1
    31    29    30    1
    32    29    31    1
    33    28    32   ar
    34     2    32   ar
    35     1    33    1
    36     1    34    1
    37     1    35    1
    38     3    36    1
    39     6    37    1
    40     6    38    1
    41     7    39    1
    42     7    40    1
    43     8    41    1
    44     9    42    1
    45     9    43    1
    46    12    44    1
    47    13    45    1
    48    13    46    1
    49    15    47    1
    50    16    48    1
    51    17    49    1
    52    18    50    1
    53    25    51    1
    54    25    52    1
    55    26    53    1
    56    26    54    1
    57    29    55    1
    58    30    56    1
    59    30    57    1
    60    30    58    1
    61    31    59    1
    62    31    60    1
    63    31    61    1
    64    32    62    1
