REMARK  6 active torsions:
REMARK  status: ('A' for Active; 'I' for Inactive)
REMARK    1  A    between atoms: CA_3  and  C_2 
REMARK    2  A    between atoms: CA_3  and  N_6 
REMARK    3  A    between atoms: CA_3  and  C_4 
REMARK    4  A    between atoms: C_4  and  O_5 
REMARK       I    between atoms: N_6  and  C_7 
REMARK    5  A    between atoms: C_7  and  C_9 
REMARK    6  A    between atoms: C_11  and  C_12 
ROOT
ATOM      1  C   UNL d   1       6.779   0.091  -2.656  0.00  0.00     0.264 A 
ATOM      2  N   UNL d   1       7.527  -0.672  -1.885  0.00  0.00    -0.195 NA
ATOM      3  C   UNL d   1       8.809  -0.314  -2.272  0.00  0.00     0.190 A 
ATOM      4  N   UNL d   1       8.853   0.664  -3.191  0.00  0.00    -0.105 NA
ATOM      5  O   UNL d   1       7.507   0.913  -3.470  0.00  0.00    -0.185 OA
ENDROOT
BRANCH   1   6
ATOM      6  C   UNL d   1       5.328   0.111  -2.770  0.00  0.00     0.297 C 
ATOM      7  N   UNL d   1       4.612   0.041  -1.573  0.00  0.00    -0.347 N 
ATOM      8  H   UNL d   1       5.152  -0.006  -0.715  0.00  0.00     0.163 HD
ATOM      9  O   UNL d   1       4.758   0.207  -3.852  0.00  0.00    -0.264 OA
BRANCH   7  10
ATOM     10  CA  UNL d   1       3.121   0.112  -1.493  0.00  0.00     0.108 C 
BRANCH  10  11
ATOM     11  C   UNL d   1       2.657  -0.086  -0.027  0.00  0.00     0.189 C 
BRANCH  11  12
ATOM     12  O   UNL d   1       2.094   1.081   0.549  0.00  0.00    -0.399 OA
ATOM     13  H   UNL d   1       1.182   1.128   0.216  0.00  0.00     0.209 HD
ENDBRANCH  11  12
ENDBRANCH  10  11
BRANCH  10  14
ATOM     14  C   UNL d   1       2.616   1.409  -2.188  0.00  0.00     0.023 C 
ATOM     15  C   UNL d   1       1.145   1.824  -2.181  0.00  0.00     0.007 C 
ENDBRANCH  10  14
ENDBRANCH   7  10
ENDBRANCH   1   6
BRANCH   3  16
ATOM     16  C   UNL d   1       9.987  -0.974  -1.740  0.00  0.00     0.026 A 
ATOM     17  C   UNL d   1      10.197  -2.349  -1.932  0.00  0.00     0.016 A 
ATOM     18  C   UNL d   1      11.298  -2.990  -1.363  0.00  0.00     0.003 A 
ATOM     19  C   UNL d   1      12.216  -2.286  -0.577  0.00  0.00     0.030 A 
ATOM     20  C   UNL d   1      12.015  -0.908  -0.421  0.00  0.00     0.043 A 
ATOM     21  N   UNL d   1      12.762   0.024   0.267  0.00  0.00    -0.365 N 
ATOM     22  C   UNL d   1      10.932  -0.231  -0.995  0.00  0.00     0.006 A 
ATOM     23  C   UNL d   1      12.222   1.272   0.109  0.00  0.00     0.089 A 
ATOM     24  H   UNL d   1      13.601  -0.184   0.790  0.00  0.00     0.165 HD
ATOM     25  C   UNL d   1      11.079   1.143  -0.644  0.00  0.00     0.031 A 
ENDBRANCH   3  16
TORSDOF 6
