@<TRIPOS>MOLECULE
*****
 67 69 0 0 0
SMALL
GASTEIGER

@<TRIPOS>ATOM
      1 C          16.0592   -8.3974  -13.2206 C.3     1  UNL1       -0.0653
      2 C          15.4094   -7.4360  -12.2342 C.3     1  UNL1       -0.0552
      3 C          16.1470   -6.0945  -12.2028 C.3     1  UNL1       -0.0438
      4 C          15.5108   -5.1053  -11.2169 C.3     1  UNL1        0.0011
      5 S          16.4503   -3.5361  -11.2712 S.3     1  UNL1       -0.0860
      6 C          15.5703   -2.5585  -10.0870 C.ar    1  UNL1        0.1896
      7 N          14.7579   -1.5889  -10.5373 N.ar    1  UNL1       -0.2295
      8 C          14.1964   -0.7628   -9.6191 C.ar    1  UNL1        0.0455
      9 C          14.4217   -0.8596   -8.2637 C.ar    1  UNL1        0.0916
     10 C          13.7708    0.0988   -7.3387 C.2     1  UNL1        0.2487
     11 O          12.9897    0.9502   -7.7644 O.2     1  UNL1       -0.2700
     12 N          14.0748    0.0075   -5.9977 N.am    1  UNL1       -0.3055
     13 C          13.4556    0.8786   -5.0184 C.3     1  UNL1        0.0593
     14 C          13.9260    0.5809   -3.5725 C.3     1  UNL1        0.0244
     15 C          13.2062    1.4867   -2.6063 C.ar    1  UNL1        0.0466
     16 C          13.5260    2.8730   -2.6958 C.ar    1  UNL1       -0.0079
     17 C          13.2414    3.7676   -1.6759 C.ar    1  UNL1        0.1208
     18 O          13.9286    4.9472   -1.7221 O.3     1  UNL1       -0.4951
     19 C          13.7211    5.8281   -0.6179 C.3     1  UNL1        0.0788
     20 C          12.3697    3.3592   -0.6891 C.ar    1  UNL1       -0.0165
     21 C          11.9200    2.0320   -0.6575 C.ar    1  UNL1       -0.0160
     22 C          12.3484    1.0690   -1.5872 C.ar    1  UNL1        0.1289
     23 O          11.8367   -0.1726   -1.3328 O.3     1  UNL1       -0.4946
     24 C          12.0800   -1.2607   -2.2060 C.3     1  UNL1        0.0788
     25 N          15.4732    0.4515   -3.3576 N.4     1  UNL1        0.2419
     26 C          16.0517    1.5890   -2.5265 C.3     1  UNL1       -0.0313
     27 C          17.5332    1.4449   -2.3047 C.3     1  UNL1       -0.0123
     28 C          17.8006    0.1419   -1.5878 C.3     1  UNL1       -0.0434
     29 C          17.3684   -0.9869   -2.5085 C.3     1  UNL1       -0.0123
     30 C          15.8613   -0.9135   -2.7370 C.3     1  UNL1       -0.0313
     31 C          15.2931   -1.8792   -7.9320 C.ar    1  UNL1        0.1456
     32 CL         15.8229   -2.2333   -6.3230 Cl      1  UNL1       -0.0611
     33 N          15.8698   -2.7343   -8.7982 N.ar    1  UNL1       -0.2095
     34 H          15.5239   -9.3520  -13.2349 H       1  UNL1        0.0230
     35 H          17.1002   -8.5964  -12.9459 H       1  UNL1        0.0230
     36 H          16.0460   -7.9861  -14.2353 H       1  UNL1        0.0230
     37 H          15.4126   -7.8895  -11.2365 H       1  UNL1        0.0263
     38 H          14.3627   -7.2818  -12.5206 H       1  UNL1        0.0263
     39 H          16.1446   -5.6690  -13.2148 H       1  UNL1        0.0273
     40 H          17.1948   -6.2758  -11.9295 H       1  UNL1        0.0273
     41 H          15.5292   -5.5237  -10.2045 H       1  UNL1        0.0381
     42 H          14.4684   -4.9186  -11.4956 H       1  UNL1        0.0381
     43 H          13.5510    0.0071  -10.0418 H       1  UNL1        0.0839
     44 H          14.5100   -0.8501   -5.6792 H       1  UNL1        0.1492
     45 H          12.3666    0.7083   -5.0685 H       1  UNL1        0.0522
     46 H          13.6202    1.9163   -5.3179 H       1  UNL1        0.0522
     47 H          13.6573   -0.4538   -3.4913 H       1  UNL1        0.0921
     48 H          14.1221    3.2549   -3.5265 H       1  UNL1        0.0660
     49 H          14.3891    6.6885   -0.7228 H       1  UNL1        0.0660
     50 H          13.9549    5.3470    0.3402 H       1  UNL1        0.0660
     51 H          12.6908    6.1923   -0.6346 H       1  UNL1        0.0660
     52 H          12.0164    4.0494    0.0690 H       1  UNL1        0.0655
     53 H          11.2404    1.7454    0.1435 H       1  UNL1        0.0655
     54 H          11.4813   -2.1297   -1.9352 H       1  UNL1        0.0660
     55 H          13.1205   -1.5827   -2.0919 H       1  UNL1        0.0660
     56 H          11.8124   -1.0095   -3.2402 H       1  UNL1        0.0660
     57 H          15.8904    0.5003   -4.2952 H       1  UNL1        0.2040
     58 H          15.5388    1.5933   -1.5563 H       1  UNL1        0.0814
     59 H          15.9091    2.5116   -3.0826 H       1  UNL1        0.0814
     60 H          17.8868    2.2907   -1.7065 H       1  UNL1        0.0317
     61 H          18.0489    1.4815   -3.2705 H       1  UNL1        0.0317
     62 H          17.2239    0.1013   -0.6523 H       1  UNL1        0.0269
     63 H          18.8573    0.0666   -1.3242 H       1  UNL1        0.0269
     64 H          17.6509   -1.9465   -2.0628 H       1  UNL1        0.0317
     65 H          17.8923   -0.9102   -3.4693 H       1  UNL1        0.0317
     66 H          15.3238   -1.0183   -1.7866 H       1  UNL1        0.0814
     67 H          15.5380   -1.7067   -3.4188 H       1  UNL1        0.0814
@<TRIPOS>UNITY_ATOM_ATTR
25 1
charge 1
@<TRIPOS>BOND
     1     1     2    1
     2     2     3    1
     3     3     4    1
     4     4     5    1
     5     5     6    1
     6     6     7   ar
     7     7     8   ar
     8     8     9   ar
     9     9    10    1
    10    10    11    2
    11    10    12   am
    12    12    13    1
    13    15    16   ar
    14    16    17   ar
    15    17    18    1
    16    18    19    1
    17    17    20   ar
    18    20    21   ar
    19    21    22   ar
    20    15    22   ar
    21    22    23    1
    22    23    24    1
    23    14    25    1
    24    25    26    1
    25    26    27    1
    26    27    28    1
    27    28    29    1
    28    29    30    1
    29    25    30    1
    30     9    31   ar
    31    31    32    1
    32    31    33   ar
    33     6    33   ar
    34    14    15    1
    35    14    13    1
    36     1    34    1
    37     1    35    1
    38     1    36    1
    39     2    37    1
    40     2    38    1
    41     3    39    1
    42     3    40    1
    43     4    41    1
    44     4    42    1
    45     8    43    1
    46    12    44    1
    47    13    45    1
    48    13    46    1
    49    14    47    1
    50    16    48    1
    51    19    49    1
    52    19    50    1
    53    19    51    1
    54    20    52    1
    55    21    53    1
    56    24    54    1
    57    24    55    1
    58    24    56    1
    59    25    57    1
    60    26    58    1
    61    26    59    1
    62    27    60    1
    63    27    61    1
    64    28    62    1
    65    28    63    1
    66    29    64    1
    67    29    65    1
    68    30    66    1
    69    30    67    1
