REMARK  8 active torsions:
REMARK  status: ('A' for Active; 'I' for Inactive)
REMARK    1  A    between atoms: O_2  and  C_3 
REMARK    2  A    between atoms: C_6  and  N_7 
REMARK    3  A    between atoms: N_7  and  C_8 
REMARK    4  A    between atoms: C_10  and  N_11 
REMARK    5  A    between atoms: N_11  and  C_12 
REMARK    6  A    between atoms: C_12  and  C_13 
REMARK    7  A    between atoms: C_13  and  O_14 
REMARK    8  A    between atoms: C_13  and  O_16 
ROOT
ATOM      1  C   UNL d   1       5.136   5.983  -0.236  0.00  0.00     0.050 C 
ATOM      2  C   UNL d   1       4.745   7.066  -1.092  0.00  0.00     0.062 C 
ATOM      3  C   UNL d   1       4.488   8.404  -0.619  0.00  0.00     0.062 C 
ATOM      4  C   UNL d   1       4.186   8.458   0.765  0.00  0.00     0.125 A 
ATOM      5  N   UNL d   1       3.842   9.434   1.646  0.00  0.00    -0.125 NA
ATOM      6  O   UNL d   1       3.901   8.864   2.946  0.00  0.00    -0.211 OA
ATOM      7  C   UNL d   1       4.232   7.562   2.812  0.00  0.00     0.126 A 
ATOM      8  C   UNL d   1       4.406   7.300   1.503  0.00  0.00     0.051 A 
ATOM      9  C   UNL d   1       5.111   6.172   1.146  0.00  0.00     0.057 C 
ATOM     10  C   UNL d   1       6.229   6.000   2.131  0.00  0.00     0.196 C 
ATOM     11  O   UNL d   1       7.366   6.402   1.882  0.00  0.00    -0.286 OA
ATOM     12  C   UNL d   1       5.738   5.833   3.532  0.00  0.00     0.028 C 
ATOM     13  C   UNL d   1       6.107   4.717   4.269  0.00  0.00     0.016 C 
ATOM     14  C   UNL d   1       5.191   4.242   5.203  0.00  0.00     0.001 C 
ATOM     15  C   UNL d   1       3.982   4.923   5.427  0.00  0.00     0.001 C 
ATOM     16  C   UNL d   1       3.692   6.130   4.777  0.00  0.00     0.015 C 
ATOM     17  C   UNL d   1       4.592   6.618   3.845  0.00  0.00     0.015 C 
ENDROOT
BRANCH   1  18
ATOM     18  N   UNL d   1       5.391   4.696  -0.772  0.00  0.00    -0.355 N 
ATOM     19  H   UNL d   1       5.940   4.715  -1.625  0.00  0.00     0.166 HD
BRANCH  18  20
ATOM     20  C   UNL d   1       4.581   3.535  -0.659  0.00  0.00     0.032 A 
ATOM     21  C   UNL d   1       4.991   2.339  -1.270  0.00  0.00     0.032 A 
ATOM     22  C   UNL d   1       4.230   1.162  -1.154  0.00  0.00     0.039 A 
ATOM     23  C   UNL d   1       3.068   1.140  -0.383  0.00  0.00     0.068 A 
ATOM     24  C   UNL d   1       2.672   2.306   0.263  0.00  0.00     0.039 A 
ATOM     25  C   UNL d   1       3.418   3.488   0.120  0.00  0.00     0.032 A 
BRANCH  23  26
ATOM     26  O   UNL d   1       2.452  -0.073  -0.244  0.00  0.00    -0.356 OA
ATOM     27  C   UNL d   1       1.031  -0.040  -0.130  0.00  0.00     0.210 C 
ENDBRANCH  23  26
ENDBRANCH  18  20
ENDBRANCH   1  18
BRANCH   3  28
ATOM     28  N   UNL d   1       4.578   9.464  -1.500  0.00  0.00    -0.383 N 
ATOM     29  H   UNL d   1       5.263   9.322  -2.237  0.00  0.00     0.159 HD
BRANCH  28  30
ATOM     30  C   UNL d   1       4.538  10.831  -0.956  0.00  0.00     0.180 C 
BRANCH  30  31
ATOM     31  C   UNL d   1       4.657  11.877  -2.087  0.00  0.00     0.275 C 
BRANCH  31  32
ATOM     32  O   UNL d   1       3.578  11.782  -3.030  0.00  0.00    -0.364 OA
ATOM     33  C   UNL d   1       3.515  10.551  -3.735  0.00  0.00     0.204 C 
ENDBRANCH  31  32
BRANCH  31  34
ATOM     34  O   UNL d   1       4.652  13.175  -1.478  0.00  0.00    -0.364 OA
ATOM     35  C   UNL d   1       4.808  14.198  -2.449  0.00  0.00     0.204 C 
ENDBRANCH  31  34
ENDBRANCH  30  31
ENDBRANCH  28  30
ENDBRANCH   3  28
TORSDOF 8
