REMARK  9 active torsions:
REMARK  status: ('A' for Active; 'I' for Inactive)
REMARK    1  A    between atoms: O_2  and  C_3 
REMARK    2  A    between atoms: C_5  and  C_6 
REMARK       I    between atoms: C_6  and  N_8 
REMARK    3  A    between atoms: N_8  and  N_9 
REMARK       I    between atoms: N_9  and  C_10 
REMARK    4  A    between atoms: C_10  and  C_12 
REMARK    5  A    between atoms: C_12  and  C_13 
REMARK    6  A    between atoms: C_13  and  C_14 
REMARK       I    between atoms: C_14  and  N_16 
REMARK    7  A    between atoms: N_16  and  C_17 
REMARK    8  A    between atoms: C_26  and  O_27 
REMARK    9  A    between atoms: C_29  and  O_30 
ROOT
ATOM      1  N   UNL d   1       8.782   3.192   1.949  0.00  0.00    -0.267 N 
ATOM      2  C   UNL d   1       9.532   3.699   3.007  0.00  0.00     0.236 C 
ATOM      3  O   UNL d   1       9.042   3.876   4.125  0.00  0.00    -0.272 OA
ATOM      4  H   UNL d   1       9.142   3.017   1.011  0.00  0.00     0.190 HD
ENDROOT
BRANCH   1   5
ATOM      5  N   UNL d   1       7.399   2.893   2.172  0.00  0.00    -0.263 N 
ATOM      6  C   UNL d   1       6.588   2.394   1.150  0.00  0.00     0.270 C 
ATOM      7  O   UNL d   1       7.033   2.205   0.007  0.00  0.00    -0.266 OA
ATOM      8  H   UNL d   1       7.101   3.022   3.136  0.00  0.00     0.190 HD
BRANCH   6   9
ATOM      9  C   UNL d   1       5.145   2.024   1.469  0.00  0.00     0.039 A 
ATOM     10  C   UNL d   1       4.320   1.386   0.500  0.00  0.00     0.057 A 
ATOM     11  C   UNL d   1       3.050   0.811   0.817  0.00  0.00     0.105 A 
ATOM     12  C   UNL d   1       2.585   0.948   2.138  0.00  0.00     0.135 A 
ATOM     13  C   UNL d   1       3.377   1.642   3.096  0.00  0.00     0.105 A 
ATOM     14  C   UNL d   1       4.624   2.189   2.752  0.00  0.00     0.057 A 
BRANCH  11  15
ATOM     15  O   UNL d   1       2.581  -0.060  -0.149  0.00  0.00    -0.353 OA
ATOM     16  C   UNL d   1       1.242  -0.046  -0.646  0.00  0.00     0.210 C 
ENDBRANCH  11  15
BRANCH  12  17
ATOM     17  O   UNL d   1       1.469   0.446   2.715  0.00  0.00    -0.351 OA
ATOM     18  C   UNL d   1       0.468  -0.210   2.026  0.00  0.00     0.210 C 
ENDBRANCH  12  17
BRANCH  13  19
ATOM     19  O   UNL d   1       3.074   1.799   4.444  0.00  0.00    -0.353 OA
ATOM     20  C   UNL d   1       1.887   1.182   4.954  0.00  0.00     0.210 C 
ENDBRANCH  13  19
ENDBRANCH   6   9
ENDBRANCH   1   5
BRANCH   2  21
ATOM     21  C   UNL d   1      10.993   4.023   2.702  0.00  0.00     0.114 C 
BRANCH  21  22
ATOM     22  C   UNL d   1      11.772   4.577   3.924  0.00  0.00     0.112 C 
BRANCH  22  23
ATOM     23  C   UNL d   1      13.240   4.800   3.569  0.00  0.00     0.222 C 
ATOM     24  O   UNL d   1      13.685   4.403   2.493  0.00  0.00    -0.273 OA
ATOM     25  N   UNL d   1      14.032   5.401   4.546  0.00  0.00    -0.326 N 
ATOM     26  H   UNL d   1      13.728   5.363   5.512  0.00  0.00     0.169 HD
BRANCH  25  27
ATOM     27  C   UNL d   1      15.383   5.791   4.288  0.00  0.00     0.056 A 
ATOM     28  C   UNL d   1      16.376   5.514   5.248  0.00  0.00     0.033 A 
ATOM     29  C   UNL d   1      17.704   5.935   5.049  0.00  0.00     0.026 A 
ATOM     30  C   UNL d   1      18.057   6.592   3.873  0.00  0.00     0.035 A 
ATOM     31 CL   UNL d   1      19.694   7.034   3.578  0.00  0.00    -0.084 Cl
ATOM     32  C   UNL d   1      17.090   6.889   2.923  0.00  0.00     0.050 A 
ATOM     33  C   UNL d   1      15.760   6.508   3.131  0.00  0.00     0.062 A 
ATOM     34 CL   UNL d   1      14.623   7.135   1.981  0.00  0.00    -0.082 Cl
ENDBRANCH  25  27
ENDBRANCH  22  23
ENDBRANCH  21  22
ENDBRANCH   2  21
TORSDOF 9
