REMARK  7 active torsions:
REMARK  status: ('A' for Active; 'I' for Inactive)
REMARK    1  A    between atoms: C_5  and  C_6 
REMARK    2  A    between atoms: C_9  and  C_10 
REMARK    3  A    between atoms: C_10  and  O_11 
REMARK    4  A    between atoms: O_11  and  N_12 
REMARK    5  A    between atoms: C_13  and  N_14 
REMARK    6  A    between atoms: C_13  and  C_15 
REMARK    7  A    between atoms: C_16  and  N_17 
ROOT
ATOM      1  N   UNL d   1      -7.168   1.982  -3.442  0.00  0.00    -0.115 NA
ATOM      2  C   UNL d   1      -6.806   2.556  -4.568  0.00  0.00     0.166 C 
ENDROOT
BRANCH   2   3
ATOM      3  N   UNL d   1      -5.462   2.608  -4.912  0.00  0.00    -0.381 N 
ATOM      4  H   UNL d   1      -4.803   2.368  -4.178  0.00  0.00     0.157 HD
ATOM      5  H   UNL d   1      -5.143   3.242  -5.634  0.00  0.00     0.157 HD
ENDBRANCH   2   3
BRANCH   2   6
ATOM      6  C   UNL d   1      -7.841   3.071  -5.549  0.00  0.00     0.104 C 
ATOM      7  C   UNL d   1      -7.728   2.860  -6.877  0.00  0.00     0.051 C 
ATOM      8  C   UNL d   1      -8.918   3.427  -7.639  0.00  0.00     0.078 C 
ATOM      9  C   UNL d   1      -9.947   2.312  -7.947  0.00  0.00     0.038 C 
ATOM     10  C   UNL d   1      -8.548   4.073  -8.986  0.00  0.00     0.038 C 
ATOM     11  N   UNL d   1      -9.452   4.345  -6.663  0.00  0.00    -0.337 N 
ATOM     12  C   UNL d   1     -10.534   2.704  -9.291  0.00  0.00     0.003 C 
ATOM     13  C   UNL d   1      -9.353   3.309 -10.034  0.00  0.00     0.003 C 
ATOM     14  C   UNL d   1     -10.412   5.401  -7.016  0.00  0.00     0.154 C 
ATOM     15  C   UNL d   1      -9.068   3.922  -5.382  0.00  0.00     0.260 C 
ATOM     16  O   UNL d   1      -9.600   4.247  -4.327  0.00  0.00    -0.267 OA
BRANCH   7  17
ATOM     17  N   UNL d   1      -6.713   2.231  -7.560  0.00  0.00    -0.399 N 
ATOM     18  H   UNL d   1      -5.979   1.760  -7.037  0.00  0.00     0.156 HD
ATOM     19  H   UNL d   1      -6.802   2.043  -8.553  0.00  0.00     0.156 HD
ENDBRANCH   7  17
ENDBRANCH   2   6
BRANCH   1  20
ATOM     20  O   UNL d   1      -6.035   1.485  -2.709  0.00  0.00    -0.246 OA
BRANCH  20  21
ATOM     21  C   UNL d   1      -6.488   0.800  -1.527  0.00  0.00     0.292 C 
BRANCH  21  22
ATOM     22  C   UNL d   1      -5.337   0.349  -0.674  0.00  0.00     0.195 A 
ATOM     23  N   UNL d   1      -5.410  -0.331   0.457  0.00  0.00    -0.124 NA
ATOM     24  N   UNL d   1      -4.118  -0.567   0.872  0.00  0.00    -0.121 NA
ATOM     25  C   UNL d   1      -3.327   0.005  -0.011  0.00  0.00     0.202 A 
ATOM     26  O   UNL d   1      -4.027   0.614  -1.034  0.00  0.00    -0.271 OA
BRANCH  25  27
ATOM     27  C   UNL d   1      -1.868   0.019  -0.055  0.00  0.00     0.019 A 
ATOM     28  C   UNL d   1      -1.153  -1.189  -0.019  0.00  0.00     0.016 A 
ATOM     29  C   UNL d   1       0.249  -1.200  -0.007  0.00  0.00     0.007 A 
ATOM     30  C   UNL d   1       0.967  -0.001  -0.012  0.00  0.00    -0.062 A 
ATOM     31  C   UNL d   1       2.470   0.004  -0.013  0.00  0.00     0.048 C 
ATOM     32  C   UNL d   1       0.259   1.208  -0.020  0.00  0.00     0.007 A 
ATOM     33  C   UNL d   1      -1.145   1.218  -0.045  0.00  0.00     0.016 A 
ENDBRANCH  25  27
ENDBRANCH  21  22
ENDBRANCH  20  21
ENDBRANCH   1  20
TORSDOF 7
