REMARK  4 active torsions:
REMARK  status: ('A' for Active; 'I' for Inactive)
REMARK    1  A    between atoms: O_2  and  C_3 
REMARK       I    between atoms: C_3  and  N_5 
REMARK    2  A    between atoms: N_5  and  N_6 
REMARK       I    between atoms: N_6  and  C_7 
REMARK       I    between atoms: C_7  and  N_9 
REMARK    3  A    between atoms: C_10  and  N_9 
REMARK    4  A    between atoms: C_10  and  C_12 
ROOT
ATOM      1  N   UNL d   1       8.709  -0.858   0.179  0.00  0.00    -0.247 N 
ATOM      2  C   UNL d   1       9.205  -1.516   1.284  0.00  0.00     0.335 C 
ATOM      3  O   UNL d   1       9.488  -0.946   2.335  0.00  0.00    -0.246 OA
ATOM      4  N   UNL d   1       9.374  -2.878   1.168  0.00  0.00    -0.334 N 
ATOM      5  H   UNL d   1       8.491  -1.331  -0.690  0.00  0.00     0.192 HD
ATOM      6  H   UNL d   1       9.712  -3.324   2.013  0.00  0.00     0.165 HD
ENDROOT
BRANCH   4   7
ATOM      7  C   UNL d   1       8.878  -3.749   0.102  0.00  0.00     0.115 C 
ATOM      8  C   UNL d   1       7.340  -3.709   0.106  0.00  0.00     0.037 C 
BRANCH   7   9
ATOM      9  C   UNL d   1       9.401  -5.189   0.175  0.00  0.00    -0.035 A 
ATOM     10  C   UNL d   1      10.753  -5.490   0.388  0.00  0.00     0.010 A 
ATOM     11  C   UNL d   1      11.197  -6.827   0.419  0.00  0.00     0.008 A 
ATOM     12  C   UNL d   1      10.302  -7.896   0.242  0.00  0.00    -0.052 A 
ATOM     13  C   UNL d   1       8.961  -7.610  -0.021  0.00  0.00    -0.051 A 
ATOM     14  C   UNL d   1      10.778  -9.329   0.300  0.00  0.00     0.039 C 
ATOM     15  C   UNL d   1       8.538  -6.278  -0.050  0.00  0.00     0.017 A 
ATOM     16  C   UNL d   1       7.911  -8.682  -0.173  0.00  0.00     0.039 C 
ATOM     17  C   UNL d   1       8.486 -10.061  -0.454  0.00  0.00     0.005 C 
ATOM     18  C   UNL d   1       9.634 -10.331   0.509  0.00  0.00     0.005 C 
ENDBRANCH   7   9
ENDBRANCH   4   7
BRANCH   1  19
ATOM     19  N   UNL d   1       8.472   0.541   0.180  0.00  0.00    -0.241 N 
ATOM     20  C   UNL d   1       7.982   1.151  -0.961  0.00  0.00     0.379 C 
ATOM     21  O   UNL d   1       7.714   0.537  -1.994  0.00  0.00    -0.237 OA
ATOM     22  H   UNL d   1       8.691   1.061   1.026  0.00  0.00     0.192 HD
BRANCH  20  23
ATOM     23  O   UNL d   1       7.833   2.498  -0.809  0.00  0.00    -0.308 OA
ATOM     24  C   UNL d   1       7.330   3.202  -1.962  0.00  0.00     0.215 C 
ENDBRANCH  20  23
ENDBRANCH   1  19
TORSDOF 4
