@<TRIPOS>MOLECULE
*****
 50 52 0 0 0
SMALL
GASTEIGER

@<TRIPOS>ATOM
      1 C           3.1994    0.7046   -1.3698 C.3     1  UNL1       -0.0190
      2 C           2.5783    0.1530   -0.0727 C.3     1  UNL1        0.1742
      3 O           1.1359    0.0550   -0.0846 O.3     1  UNL1       -0.4770
      4 C           0.4696   -0.5872   -1.0971 C.ar    1  UNL1        0.1566
      5 C           1.0850   -1.2614   -2.1486 C.ar    1  UNL1       -0.0170
      6 C           0.3802   -1.6297   -3.2954 C.ar    1  UNL1       -0.0581
      7 C          -1.0020   -1.5241   -3.3201 C.ar    1  UNL1       -0.0588
      8 C          -1.6642   -1.0222   -2.2016 C.ar    1  UNL1       -0.0228
      9 C          -0.9301   -0.5328   -1.1132 C.ar    1  UNL1        0.1648
     10 F          -1.6083   -0.0296   -0.0700 F       1  UNL1       -0.2017
     11 C           3.0297    1.1353    1.0676 C.2     1  UNL1        0.2695
     12 O           2.2513    1.7823    1.7686 O.2     1  UNL1       -0.2702
     13 N           4.4033    1.2639    1.2428 N.am    1  UNL1       -0.2311
     14 N           4.9102    2.1916    2.1990 N.am    1  UNL1       -0.2302
     15 C           6.2876    2.3095    2.3043 C.2     1  UNL1        0.2634
     16 O           6.9935    1.6242    1.5714 O.2     1  UNL1       -0.2685
     17 C           6.8127    3.2431    3.3076 C.ar    1  UNL1        0.0787
     18 C           6.3184    3.4553    4.5811 C.ar    1  UNL1        0.0348
     19 N           7.1750    4.3142    5.2076 N.ar    1  UNL1       -0.2837
     20 N           8.1689    4.7423    4.4210 N.ar    1  UNL1       -0.1778
     21 C           7.9767    4.0902    3.2636 C.ar    1  UNL1        0.0780
     22 C           8.9224    4.3532    2.1160 C.3     1  UNL1        0.0038
     23 C           9.6743    3.0777    1.7147 C.3     1  UNL1       -0.0447
     24 C          10.4567    3.1994    0.4188 C.3     1  UNL1       -0.0525
     25 C           9.5983    3.7663   -0.7069 C.3     1  UNL1       -0.0530
     26 C           9.0079    5.1137   -0.3135 C.3     1  UNL1       -0.0525
     27 C           8.1590    4.9932    0.9439 C.3     1  UNL1       -0.0447
     28 H           4.2896    0.7354   -1.3044 H       1  UNL1        0.0270
     29 H           2.8087    1.7027   -1.5795 H       1  UNL1        0.0270
     30 H           3.0113    0.1362   -2.2775 H       1  UNL1        0.0270
     31 H           2.9718   -0.8408    0.1793 H       1  UNL1        0.0829
     32 H           2.1355   -1.5136   -2.1271 H       1  UNL1        0.0655
     33 H           0.9259   -2.0092   -4.1559 H       1  UNL1        0.0619
     34 H          -1.5536   -1.8663   -4.1913 H       1  UNL1        0.0618
     35 H          -2.7493   -0.9945   -2.1785 H       1  UNL1        0.0647
     36 H           5.1106    0.7722    0.6950 H       1  UNL1        0.1729
     37 H           4.2420    2.7620    2.7074 H       1  UNL1        0.1731
     38 H           5.4812    3.0289    5.1120 H       1  UNL1        0.0831
     39 H           7.1486    4.6448    6.1683 H       1  UNL1        0.1882
     40 H           9.6861    5.0820    2.4355 H       1  UNL1        0.0365
     41 H           8.9819    2.2607    1.5597 H       1  UNL1        0.0272
     42 H          10.3215    2.7415    2.5331 H       1  UNL1        0.0272
     43 H          10.8179    2.2049    0.1321 H       1  UNL1        0.0265
     44 H          11.3330    3.8345    0.5801 H       1  UNL1        0.0265
     45 H           8.7874    3.0666   -0.9501 H       1  UNL1        0.0265
     46 H          10.2066    3.8770   -1.6102 H       1  UNL1        0.0265
     47 H           8.3907    5.5019   -1.1313 H       1  UNL1        0.0265
     48 H           9.8165    5.8345   -0.1459 H       1  UNL1        0.0265
     49 H           7.2693    4.3990    0.7056 H       1  UNL1        0.0272
     50 H           7.7914    5.9863    1.2351 H       1  UNL1        0.0272
@<TRIPOS>BOND
     1     3     4    1
     2     4     5   ar
     3     5     6   ar
     4     6     7   ar
     5     7     8   ar
     6     8     9   ar
     7     4     9   ar
     8     9    10    1
     9     2    11    1
    10    11    12    2
    11    11    13   am
    12    13    14    1
    13    14    15   am
    14    15    16    2
    15    15    17    1
    16    17    18   ar
    17    18    19   ar
    18    19    20   ar
    19    20    21   ar
    20    17    21   ar
    21    21    22    1
    22    22    23    1
    23    23    24    1
    24    24    25    1
    25    25    26    1
    26    26    27    1
    27    22    27    1
    28     2     3    1
    29     2     1    1
    30     1    28    1
    31     1    29    1
    32     1    30    1
    33     2    31    1
    34     5    32    1
    35     6    33    1
    36     7    34    1
    37     8    35    1
    38    13    36    1
    39    14    37    1
    40    18    38    1
    41    19    39    1
    42    22    40    1
    43    23    41    1
    44    23    42    1
    45    24    43    1
    46    24    44    1
    47    25    45    1
    48    25    46    1
    49    26    47    1
    50    26    48    1
    51    27    49    1
    52    27    50    1
