REMARK  4 active torsions:
REMARK  status: ('A' for Active; 'I' for Inactive)
REMARK       I    between atoms: N_1  and  C_2 
REMARK    1  A    between atoms: C_2  and  C_4 
REMARK    2  A    between atoms: C_7  and  N_8 
REMARK       I    between atoms: N_8  and  C_9 
REMARK       I    between atoms: C_9  and  N_11 
REMARK    3  A    between atoms: N_11  and  C_12 
REMARK    4  A    between atoms: C_16  and  C_17 
ROOT
ATOM      1  N   UNL d   1       5.407   1.599   4.825  0.00  0.00    -0.309 N 
ATOM      2  C   UNL d   1       4.783   1.565   6.086  0.00  0.00     0.325 C 
ATOM      3  O   UNL d   1       3.632   1.158   6.219  0.00  0.00    -0.247 OA
ATOM      4  N   UNL d   1       5.484   2.039   7.207  0.00  0.00    -0.309 N 
ATOM      5  H   UNL d   1       6.275   2.103   4.697  0.00  0.00     0.170 HD
ATOM      6  H   UNL d   1       6.412   2.425   7.102  0.00  0.00     0.170 HD
ENDROOT
BRANCH   1   7
ATOM      7  C   UNL d   1       4.710   1.202   3.597  0.00  0.00     0.036 A 
ATOM      8  C   UNL d   1       5.169   1.561   2.314  0.00  0.00     0.030 A 
ATOM      9  C   UNL d   1       4.385   1.295   1.151  0.00  0.00     0.019 A 
ATOM     10  C   UNL d   1       3.172   0.598   1.241  0.00  0.00     0.032 A 
ATOM     11  C   UNL d   1       2.740   0.191   2.492  0.00  0.00     0.019 A 
ATOM     12  C   UNL d   1       3.510   0.473   3.629  0.00  0.00     0.030 A 
BRANCH  10  13
ATOM     13  C   UNL d   1       2.433   0.136   0.038  0.00  0.00     0.249 C 
ATOM     14  N   UNL d   1       1.070   0.088   0.098  0.00  0.00    -0.366 N 
ATOM     15  H   UNL d   1       0.569  -0.267  -0.709  0.00  0.00     0.159 HD
ATOM     16  H   UNL d   1       0.525   0.447   0.871  0.00  0.00     0.159 HD
ATOM     17  O   UNL d   1       3.038  -0.237  -0.975  0.00  0.00    -0.268 OA
ENDBRANCH  10  13
ENDBRANCH   1   7
BRANCH   4  18
ATOM     18  C   UNL d   1       5.013   1.838   8.599  0.00  0.00     0.036 C 
ATOM     19  C   UNL d   1       5.467   2.529   9.698  0.00  0.00     0.029 C 
ATOM     20  C   UNL d   1       5.231   2.020  11.009  0.00  0.00     0.003 C 
ATOM     21  C   UNL d   1       4.673   0.746  11.235  0.00  0.00     0.009 C 
ATOM     22  C   UNL d   1       4.245   0.017  10.139  0.00  0.00    -0.033 C 
ATOM     23  C   UNL d   1       4.220   0.735   8.922  0.00  0.00     0.038 C 
BRANCH  22  24
ATOM     24  C   UNL d   1       4.294  -1.533  10.137  0.00  0.00     0.141 C 
ATOM     25  S   UNL d   1       3.025  -2.522   9.277  0.00  0.00    -0.149 SA
ATOM     26  C   UNL d   1       3.123  -1.812   7.626  0.00  0.00     0.076 C 
ATOM     27  C   UNL d   1       4.547  -1.792   6.997  0.00  0.00     0.020 C 
ATOM     28  C   UNL d   1       5.807  -1.357   7.778  0.00  0.00     0.076 C 
ATOM     29  S   UNL d   1       5.949  -2.068   9.449  0.00  0.00    -0.149 SA
ENDBRANCH  22  24
ENDBRANCH   4  18
TORSDOF 4
