@<TRIPOS>MOLECULE
*****
 69 73 0 0 0
SMALL
GASTEIGER

@<TRIPOS>ATOM
      1 C           3.8670   -1.2050   -0.2029 C.3     1  UNL1       -0.0548
      2 C           2.6466    0.3070   -0.0962 C.3     1  UNL1        0.0206
      3 C           0.8408    0.3760   -0.0785 C.3     1  UNL1        0.0522
      4 O           0.1794    0.4073    1.1794 O.3     1  UNL1       -0.3944
      5 C           3.0696    0.6937   -1.4497 C.3     1  UNL1       -0.0207
      6 C           4.8537    0.8883   -1.1775 C.3     1  UNL1       -0.0156
      7 C           5.4165   -0.2077   -1.9939 C.ar    1  UNL1        0.0148
      8 S           6.8855   -0.9803   -1.5652 S.2     1  UNL1       -0.0568
      9 C           6.3749   -2.3127   -2.5230 C.ar    1  UNL1        0.1628
     10 N           7.1329   -3.4200   -2.6239 N.pl3   1  UNL1       -0.2936
     11 C           6.9014   -4.4005   -3.5992 C.ar    1  UNL1        0.0362
     12 C           6.5385   -4.0749   -4.9159 C.ar    1  UNL1       -0.0403
     13 C           6.3204   -5.0731   -5.8664 C.ar    1  UNL1       -0.0566
     14 C           6.4449   -6.4149   -5.5085 C.ar    1  UNL1       -0.0201
     15 C           6.7812   -6.7383   -4.1975 C.ar    1  UNL1        0.1186
     16 O           6.9187   -8.0307   -3.7822 O.3     1  UNL1       -0.5067
     17 C           7.0025   -5.7457   -3.2486 C.ar    1  UNL1        0.0010
     18 N           5.2029   -2.1903   -3.1135 N.ar    1  UNL1       -0.2290
     19 C           4.6038   -1.0145   -2.7952 C.ar    1  UNL1        0.0578
     20 C           3.0092   -0.8713   -2.9783 C.3     1  UNL1        0.0161
     21 C           1.8431   -1.8744   -1.9635 C.3     1  UNL1        0.0327
     22 C           1.6158   -2.0734   -0.2015 C.2     1  UNL1        0.2140
     23 O           2.1898   -1.4662    0.6982 O.2     1  UNL1       -0.2758
     24 N           0.7350   -2.6568    0.6030 N.am    1  UNL1       -0.3082
     25 C           1.0114   -2.2203    2.1341 C.3     1  UNL1        0.0697
     26 C          -0.0097   -2.8258    2.8210 C.ar    1  UNL1        0.1218
     27 C          -0.2312   -4.1761    2.7686 C.ar    1  UNL1       -0.0192
     28 C          -1.4676   -4.2838    3.3679 C.ar    1  UNL1       -0.0236
     29 C          -1.8909   -3.0126    3.7157 C.ar    1  UNL1        0.0921
     30 O          -0.9759   -2.0919    3.3544 O.2     1  UNL1       -0.4662
     31 C           2.6624    0.5919   -2.7995 C.3     1  UNL1       -0.0195
     32 C           1.1661    0.9238   -3.1170 C.3     1  UNL1       -0.0587
     33 C           3.5046    1.8675   -3.0618 C.3     1  UNL1       -0.0444
     34 C           3.2854    2.8877   -1.5091 C.3     1  UNL1       -0.0257
     35 C           3.1325    1.9001    0.1736 C.3     1  UNL1        0.0630
     36 O           2.4085    2.5165    1.2247 O.3     1  UNL1       -0.3912
     37 H           4.8334   -1.0556    0.2272 H       1  UNL1        0.0237
     38 H           3.7897   -1.8035   -1.1238 H       1  UNL1        0.0237
     39 H           3.7550   -2.2187    0.2920 H       1  UNL1        0.0237
     40 H           0.4744    1.3035   -0.5323 H       1  UNL1        0.0563
     41 H           0.2921   -0.3804   -0.6619 H       1  UNL1        0.0563
     42 H           0.7825    0.8007    1.8236 H       1  UNL1        0.2094
     43 H           2.2279    1.4095   -1.3569 H       1  UNL1        0.0316
     44 H           5.1892    0.7314   -0.1326 H       1  UNL1        0.0322
     45 H           5.2781    1.8867   -1.3497 H       1  UNL1        0.0322
     46 H           8.0175   -3.4778   -2.1411 H       1  UNL1        0.1541
     47 H           6.4349   -3.0315   -5.2125 H       1  UNL1        0.0636
     48 H           6.0597   -4.7946   -6.8838 H       1  UNL1        0.0619
     49 H           6.2742   -7.1807   -6.2578 H       1  UNL1        0.0654
     50 H           6.7768   -8.6251   -4.5357 H       1  UNL1        0.2921
     51 H           7.2241   -6.0272   -2.2245 H       1  UNL1        0.0673
     52 H           2.8406   -1.1102   -4.0302 H       1  UNL1        0.0374
     53 H           0.8509   -1.5860   -2.3327 H       1  UNL1        0.0365
     54 H           2.0355   -2.8816   -2.3163 H       1  UNL1        0.0365
     55 H          -0.2165   -2.6408    0.2923 H       1  UNL1        0.1491
     56 H           1.0784   -1.1354    2.3660 H       1  UNL1        0.0542
     57 H           2.0046   -2.6033    2.4573 H       1  UNL1        0.0542
     58 H           0.4539   -4.8320    2.2521 H       1  UNL1        0.0652
     59 H          -1.9837   -5.2090    3.4993 H       1  UNL1        0.0649
     60 H          -2.7591   -2.5965    4.1851 H       1  UNL1        0.1029
     61 H           0.4650    0.3465   -2.5221 H       1  UNL1        0.0235
     62 H           0.9320    0.7358   -4.1581 H       1  UNL1        0.0235
     63 H           0.9003    1.9669   -2.8806 H       1  UNL1        0.0235
     64 H           3.2129    2.2856   -4.0291 H       1  UNL1        0.0272
     65 H           4.5769    1.6757   -3.2273 H       1  UNL1        0.0272
     66 H           2.2989    3.3174   -1.7472 H       1  UNL1        0.0290
     67 H           4.0305    3.6842   -1.5450 H       1  UNL1        0.0290
     68 H           4.0176    1.6281    0.7386 H       1  UNL1        0.0599
     69 H           1.4802    2.6428    1.0036 H       1  UNL1        0.2098
@<TRIPOS>BOND
     1     3     4    1
     2     2     5    1
     3     5     6    1
     4     6     7    1
     5     7     8   ar
     6     8     9   ar
     7     9    10    1
     8    10    11    1
     9    11    12   ar
    10    12    13   ar
    11    13    14   ar
    12    14    15   ar
    13    15    16    1
    14    15    17   ar
    15    11    17   ar
    16     9    18   ar
    17    18    19   ar
    18     7    19   ar
    19    19    20    1
    20    21    22    1
    21    22    23    2
    22    22    24   am
    23    24    25    1
    24    25    26    1
    25    26    27   ar
    26    27    28   ar
    27    28    29   ar
    28    29    30   ar
    29    26    30   ar
    30    20    31    1
    31     5    31    1
    32    31    32    1
    33    31    33    1
    34    33    34    1
    35    34    35    1
    36     2    35    1
    37    35    36    1
    38     2     3    1
    39     2     1    1
    40    20    21    1
    41     1    37    1
    42     1    38    1
    43     1    39    1
    44     3    40    1
    45     3    41    1
    46     4    42    1
    47     5    43    1
    48     6    44    1
    49     6    45    1
    50    10    46    1
    51    12    47    1
    52    13    48    1
    53    14    49    1
    54    16    50    1
    55    17    51    1
    56    20    52    1
    57    21    53    1
    58    21    54    1
    59    24    55    1
    60    25    56    1
    61    25    57    1
    62    27    58    1
    63    28    59    1
    64    29    60    1
    65    32    61    1
    66    32    62    1
    67    32    63    1
    68    33    64    1
    69    33    65    1
    70    34    66    1
    71    34    67    1
    72    35    68    1
    73    36    69    1
