REMARK  10 active torsions:
REMARK  status: ('A' for Active; 'I' for Inactive)
REMARK    1  A    between atoms: N_2  and  C_3 
REMARK    2  A    between atoms: N_2  and  C_8 
REMARK    3  A    between atoms: C_3  and  C_4 
REMARK    4  A    between atoms: C_4  and  N_5 
REMARK    5  A    between atoms: C_8  and  C_9 
REMARK    6  A    between atoms: C_12  and  C_13 
REMARK    7  A    between atoms: C_17  and  N_18 
REMARK    8  A    between atoms: N_18  and  C_19 
REMARK    9  A    between atoms: C_22  and  O_23 
REMARK   10  A    between atoms: O_23  and  C_24 
ROOT
ATOM      1  C   UNL d   1       7.556   1.614  -0.839  0.00  0.00    -0.000 C 
ATOM      2  C   UNL d   1       8.517   1.764  -1.818  0.00  0.00     0.015 C 
ATOM      3  C   UNL d   1       9.718   2.370  -1.509  0.00  0.00     0.017 C 
ATOM      4  C   UNL d   1       9.976   3.039  -0.296  0.00  0.00     0.017 A 
ATOM      5  C   UNL d   1      11.158   3.799  -0.011  0.00  0.00     0.046 A 
ATOM      6  C   UNL d   1      11.301   4.320   1.281  0.00  0.00     0.047 A 
ATOM      7  C   UNL d   1      10.310   4.100   2.227  0.00  0.00     0.090 A 
ATOM      8  N   UNL d   1       9.202   3.413   1.913  0.00  0.00    -0.365 N 
ATOM      9  C   UNL d   1       8.977   2.890   0.687  0.00  0.00     0.045 A 
ATOM     10  C   UNL d   1       7.789   2.166   0.428  0.00  0.00     0.044 C 
ATOM     11  H   UNL d   1       8.500   3.274   2.635  0.00  0.00     0.165 HD
ENDROOT
BRANCH   5  12
ATOM     12  N   UNL d   1      12.196   4.037  -0.950  0.00  0.00    -0.355 N 
ATOM     13  H   UNL d   1      13.016   4.554  -0.646  0.00  0.00     0.166 HD
BRANCH  12  14
ATOM     14  C   UNL d   1      12.172   3.832  -2.347  0.00  0.00     0.032 C 
ATOM     15  C   UNL d   1      13.049   2.917  -2.948  0.00  0.00     0.032 C 
ATOM     16  C   UNL d   1      12.836   2.499  -4.275  0.00  0.00     0.039 C 
ATOM     17  C   UNL d   1      11.711   2.937  -4.987  0.00  0.00     0.078 C 
ATOM     18  C   UNL d   1      10.866   3.873  -4.386  0.00  0.00     0.039 C 
ATOM     19  C   UNL d   1      11.139   4.379  -3.115  0.00  0.00     0.032 C 
BRANCH  17  20
ATOM     20  O   UNL d   1      11.484   2.345  -6.217  0.00  0.00    -0.292 OA
BRANCH  20  21
ATOM     21  C   UNL d   1      10.360   2.715  -6.938  0.00  0.00     0.169 A 
ATOM     22  C   UNL d   1      10.165   4.038  -7.322  0.00  0.00     0.058 A 
ATOM     23  C   UNL d   1       8.975   4.384  -7.953  0.00  0.00     0.006 A 
ATOM     24  C   UNL d   1       8.062   3.387  -8.267  0.00  0.00     0.019 A 
ATOM     25  C   UNL d   1       8.374   2.081  -7.919  0.00  0.00     0.119 A 
ATOM     26  N   UNL d   1       9.491   1.724  -7.239  0.00  0.00    -0.237 NA
ENDBRANCH  20  21
ENDBRANCH  17  20
ENDBRANCH  12  14
ENDBRANCH   5  12
BRANCH   1  27
ATOM     27  C   UNL d   1       6.483   0.694  -1.142  0.00  0.00     0.086 A 
ATOM     28  C   UNL d   1       6.541  -0.592  -1.638  0.00  0.00     0.040 A 
ATOM     29  C   UNL d   1       5.215  -0.992  -1.848  0.00  0.00     0.037 A 
ATOM     30  C   UNL d   1       4.420   0.074  -1.474  0.00  0.00     0.082 A 
ATOM     31  O   UNL d   1       5.193   1.111  -1.016  0.00  0.00    -0.312 OA
BRANCH  30  32
ATOM     32  C   UNL d   1       2.930   0.189  -1.426  0.00  0.00     0.336 C 
BRANCH  32  33
ATOM     33  N   UNL d   1       2.384  -0.043  -0.065  0.00  0.00     0.091 N 
ATOM     34  C   UNL d   1       0.917   0.003  -0.126  0.00  0.00     0.310 C 
BRANCH  33  35
ATOM     35  C   UNL d   1       2.842  -1.329   0.474  0.00  0.00     0.300 C 
BRANCH  35  36
ATOM     36  C   UNL d   1       2.403  -1.558   1.925  0.00  0.00     0.264 C 
BRANCH  36  37
ATOM     37  N   UNL d   1       2.954  -2.852   2.478  0.00  0.00    -0.077 N 
ATOM     38  C   UNL d   1       4.455  -2.915   2.479  0.00  0.00     0.269 C 
ATOM     39  C   UNL d   1       2.400  -3.078   3.859  0.00  0.00     0.269 C 
ATOM     40  H   UNL d   1       2.604  -3.618   1.885  0.00  0.00     0.279 HD
ENDBRANCH  36  37
ENDBRANCH  35  36
ENDBRANCH  33  35
ENDBRANCH  32  33
ENDBRANCH  30  32
ENDBRANCH   1  27
TORSDOF 10
