@<TRIPOS>MOLECULE
*****
 90 90 0 0 0
SMALL
GASTEIGER

@<TRIPOS>ATOM
      1 C           0.8419    0.2645    0.5878 C.3     1  UNL1       -0.0612
      2 C           2.2310   -0.1096    0.1902 C.3     1  UNL1       -0.0299
      3 C           2.7997   -1.4801   -0.0175 C.ar    1  UNL1       -0.0377
      4 C           2.0405   -2.6049   -0.3619 C.ar    1  UNL1       -0.0233
      5 C           0.6290   -2.4784   -0.9764 C.3     1  UNL1        0.0405
      6 N           0.3237   -1.2304   -1.6903 N.am    1  UNL1       -0.2770
      7 C          -0.9700   -0.7372   -1.7737 C.2     1  UNL1        0.4010
      8 O          -1.9395   -1.4780   -1.7029 O.2     1  UNL1       -0.2265
      9 O          -1.0386    0.6528   -1.8821 O.3     1  UNL1       -0.4447
     10 C          -2.3323    1.3045   -2.1414 C.3     1  UNL1        0.1068
     11 C          -2.6729    0.8682   -3.5591 C.3     1  UNL1       -0.0253
     12 C          -3.4389    0.9497   -1.1340 C.3     1  UNL1       -0.0253
     13 C          -2.2567    2.8620   -2.1480 C.3     1  UNL1       -0.0253
     14 C           2.6255   -3.9076   -0.1524 C.ar    1  UNL1       -0.0377
     15 C           1.6126   -5.0571   -0.0001 C.3     1  UNL1       -0.0299
     16 C           2.1128   -6.4384    0.3665 C.3     1  UNL1       -0.0612
     17 C           4.0522   -4.0557    0.0336 C.ar    1  UNL1       -0.0233
     18 C           4.7052   -5.4559   -0.0559 C.3     1  UNL1        0.0405
     19 N           6.1279   -5.6799   -0.0476 N.am    1  UNL1       -0.2770
     20 C           6.6433   -6.9247    0.0015 C.2     1  UNL1        0.4010
     21 O           5.9953   -7.9490   -0.1150 O.2     1  UNL1       -0.2265
     22 O           7.9799   -6.8022    0.2387 O.3     1  UNL1       -0.4447
     23 C           8.7781   -8.0041    0.2210 C.3     1  UNL1        0.1068
     24 C           8.3616   -8.9168    1.3740 C.3     1  UNL1       -0.0253
     25 C           8.6491   -8.6802   -1.1460 C.3     1  UNL1       -0.0253
     26 C          10.2614   -7.6332    0.4219 C.3     1  UNL1       -0.0253
     27 C           4.8246   -2.8729    0.2196 C.ar    1  UNL1       -0.0377
     28 C           6.2942   -3.0504    0.5466 C.3     1  UNL1       -0.0299
     29 C           7.2630   -1.9495    0.8608 C.3     1  UNL1       -0.0612
     30 C           4.2054   -1.5888    0.1470 C.ar    1  UNL1       -0.0233
     31 C           5.1003   -0.3546    0.2077 C.3     1  UNL1        0.0405
     32 N           4.6518    0.9795   -0.0123 N.am    1  UNL1       -0.2770
     33 C           5.4394    2.0441    0.2013 C.2     1  UNL1        0.4010
     34 O           6.6162    1.9940    0.4406 O.2     1  UNL1       -0.2265
     35 O           4.6231    3.1306    0.0784 O.3     1  UNL1       -0.4447
     36 C           5.2470    4.4196    0.1595 C.3     1  UNL1        0.1068
     37 C           5.8742    4.5968    1.5410 C.3     1  UNL1       -0.0253
     38 C           6.2532    4.5481   -0.9836 C.3     1  UNL1       -0.0253
     39 C           4.1771    5.5127   -0.0225 C.3     1  UNL1       -0.0253
     40 H           0.8019    1.2853    0.9704 H       1  UNL1        0.0233
     41 H           0.3669   -0.4758    1.2222 H       1  UNL1        0.0233
     42 H           0.2723    0.4139   -0.2929 H       1  UNL1        0.0233
     43 H           2.7680    0.2833    1.0595 H       1  UNL1        0.0311
     44 H           2.4308    0.4023   -0.7613 H       1  UNL1        0.0311
     45 H          -0.1207   -2.6698   -0.2006 H       1  UNL1        0.0513
     46 H           0.5431   -3.2300   -1.7646 H       1  UNL1        0.0513
     47 H           1.0818   -0.5922   -1.8637 H       1  UNL1        0.1523
     48 H          -2.7155   -0.2204   -3.6264 H       1  UNL1        0.0268
     49 H          -1.8702    1.1870   -4.2359 H       1  UNL1        0.0268
     50 H          -3.6244    1.2734   -3.9012 H       1  UNL1        0.0268
     51 H          -3.5739   -0.1220   -1.0073 H       1  UNL1        0.0268
     52 H          -4.4052    1.3534   -1.4621 H       1  UNL1        0.0268
     53 H          -3.2280    1.3599   -0.1384 H       1  UNL1        0.0268
     54 H          -1.4815    3.2472   -2.8166 H       1  UNL1        0.0268
     55 H          -2.0708    3.2891   -1.1541 H       1  UNL1        0.0268
     56 H          -3.2169    3.2873   -2.4875 H       1  UNL1        0.0268
     57 H           1.0242   -5.1471   -0.9161 H       1  UNL1        0.0311
     58 H           0.9298   -4.7675    0.8142 H       1  UNL1        0.0311
     59 H           2.7562   -6.8198   -0.4277 H       1  UNL1        0.0233
     60 H           1.3261   -7.1827    0.4727 H       1  UNL1        0.0233
     61 H           2.6235   -6.3955    1.3342 H       1  UNL1        0.0233
     62 H           4.3938   -5.8824   -1.0175 H       1  UNL1        0.0513
     63 H           4.3872   -6.0554    0.7908 H       1  UNL1        0.0513
     64 H           6.7723   -5.1146    0.4626 H       1  UNL1        0.1523
     65 H           7.3086   -9.1985    1.3185 H       1  UNL1        0.0268
     66 H           8.4904   -8.4057    2.3356 H       1  UNL1        0.0268
     67 H           8.9488   -9.8376    1.3747 H       1  UNL1        0.0268
     68 H           7.6174   -8.9494   -1.3799 H       1  UNL1        0.0268
     69 H           9.2417   -9.5955   -1.1887 H       1  UNL1        0.0268
     70 H           8.9727   -7.9999   -1.9431 H       1  UNL1        0.0268
     71 H          10.4330   -7.1258    1.3779 H       1  UNL1        0.0268
     72 H          10.6267   -6.9613   -0.3633 H       1  UNL1        0.0268
     73 H          10.8847   -8.5366    0.4053 H       1  UNL1        0.0268
     74 H           6.7386   -3.5049   -0.3445 H       1  UNL1        0.0311
     75 H           6.3229   -3.6836    1.4476 H       1  UNL1        0.0311
     76 H           7.3765   -1.3227   -0.0214 H       1  UNL1        0.0233
     77 H           8.2604   -2.3298    1.0743 H       1  UNL1        0.0233
     78 H           6.9307   -1.4169    1.7499 H       1  UNL1        0.0233
     79 H           5.8211   -0.4675   -0.6032 H       1  UNL1        0.0513
     80 H           5.5244   -0.3143    1.2079 H       1  UNL1        0.0513
     81 H           3.7256    1.3073   -0.1508 H       1  UNL1        0.1523
     82 H           6.6177    3.8294    1.7631 H       1  UNL1        0.0268
     83 H           5.1110    4.5101    2.3240 H       1  UNL1        0.0268
     84 H           6.3703    5.5646    1.6206 H       1  UNL1        0.0268
     85 H           7.0229    3.7744   -0.9473 H       1  UNL1        0.0268
     86 H           6.7566    5.5144   -0.9534 H       1  UNL1        0.0268
     87 H           5.7512    4.4247   -1.9514 H       1  UNL1        0.0268
     88 H           3.4032    5.4657    0.7523 H       1  UNL1        0.0268
     89 H           3.6629    5.4302   -0.9871 H       1  UNL1        0.0268
     90 H           4.6424    6.5048    0.0268 H       1  UNL1        0.0268
@<TRIPOS>BOND
     1     1     2    1
     2     2     3    1
     3     3     4   ar
     4     4     5    1
     5     5     6    1
     6     6     7   am
     7     7     8    2
     8     7     9    1
     9     9    10    1
    10    10    11    1
    11    10    12    1
    12    10    13    1
    13     4    14   ar
    14    14    15    1
    15    15    16    1
    16    14    17   ar
    17    17    18    1
    18    18    19    1
    19    19    20   am
    20    20    21    2
    21    20    22    1
    22    22    23    1
    23    23    24    1
    24    23    25    1
    25    23    26    1
    26    17    27   ar
    27    27    28    1
    28    28    29    1
    29    27    30   ar
    30     3    30   ar
    31    30    31    1
    32    31    32    1
    33    32    33   am
    34    33    34    2
    35    33    35    1
    36    35    36    1
    37    36    37    1
    38    36    38    1
    39    36    39    1
    40     1    40    1
    41     1    41    1
    42     1    42    1
    43     2    43    1
    44     2    44    1
    45     5    45    1
    46     5    46    1
    47     6    47    1
    48    11    48    1
    49    11    49    1
    50    11    50    1
    51    12    51    1
    52    12    52    1
    53    12    53    1
    54    13    54    1
    55    13    55    1
    56    13    56    1
    57    15    57    1
    58    15    58    1
    59    16    59    1
    60    16    60    1
    61    16    61    1
    62    18    62    1
    63    18    63    1
    64    19    64    1
    65    24    65    1
    66    24    66    1
    67    24    67    1
    68    25    68    1
    69    25    69    1
    70    25    70    1
    71    26    71    1
    72    26    72    1
    73    26    73    1
    74    28    74    1
    75    28    75    1
    76    29    76    1
    77    29    77    1
    78    29    78    1
    79    31    79    1
    80    31    80    1
    81    32    81    1
    82    37    82    1
    83    37    83    1
    84    37    84    1
    85    38    85    1
    86    38    86    1
    87    38    87    1
    88    39    88    1
    89    39    89    1
    90    39    90    1
