REMARK  2 active torsions:
REMARK  status: ('A' for Active; 'I' for Inactive)
REMARK    1  A    between atoms: C_6  and  C_7 
REMARK    2  A    between atoms: C_11  and  C_10 
ROOT
ATOM      1  C   UNL d   1      -5.451   7.495   0.340  0.00  0.00     0.189 A 
ATOM      2  N   UNL d   1      -5.068   8.475  -0.489  0.00  0.00    -0.105 NA
ATOM      3  O   UNL d   1      -3.908   7.967  -1.057  0.00  0.00    -0.193 OA
ATOM      4  C   UNL d   1      -3.769   6.701  -0.571  0.00  0.00     0.207 A 
ATOM      5  N   UNL d   1      -4.654   6.382   0.340  0.00  0.00    -0.202 NA
ENDROOT
BRANCH   4   6
ATOM      6  C   UNL d   1      -2.815   5.820  -1.300  0.00  0.00     0.307 C 
ATOM      7  C   UNL d   1      -1.405   6.430  -1.045  0.00  0.00     0.103 C 
ATOM      8  C   UNL d   1      -0.758   6.782  -2.302  0.00  0.00     0.037 A 
ATOM      9  N   UNL d   1       0.412   7.491  -2.462  0.00  0.00    -0.354 N 
ATOM     10  C   UNL d   1      -1.236   6.529  -3.555  0.00  0.00     0.061 A 
ATOM     11  C   UNL d   1       0.673   7.666  -3.760  0.00  0.00     0.180 A 
ATOM     12  H   UNL d   1       0.990   7.847  -1.702  0.00  0.00     0.166 HD
ATOM     13  N   UNL d   1      -0.329   7.090  -4.431  0.00  0.00    -0.353 N 
ATOM     14  H   UNL d   1      -0.413   7.082  -5.446  0.00  0.00     0.166 HD
ATOM     15  C   UNL d   1      -2.509   5.865  -3.864  0.00  0.00     0.332 C 
ATOM     16  N   UNL d   1      -3.304   5.480  -2.692  0.00  0.00     0.102 N 
ATOM     17  C   UNL d   1      -4.713   5.861  -2.929  0.00  0.00     0.311 C 
ENDBRANCH   4   6
BRANCH   1  18
ATOM     18  C   UNL d   1      -6.519   7.617   1.286  0.00  0.00     0.015 A 
ATOM     19  C   UNL d   1      -7.841   7.793   0.883  0.00  0.00     0.015 A 
ATOM     20  C   UNL d   1      -8.830   7.902   1.855  0.00  0.00     0.002 A 
ATOM     21  C   UNL d   1      -8.491   7.836   3.211  0.00  0.00     0.007 A 
ATOM     22  C   UNL d   1      -7.164   7.648   3.613  0.00  0.00    -0.061 A 
ATOM     23  C   UNL d   1      -6.772   7.562   5.053  0.00  0.00     0.048 C 
ATOM     24  C   UNL d   1      -6.180   7.533   2.638  0.00  0.00     0.022 A 
ENDBRANCH   1  18
TORSDOF 2
