REMARK  6 active torsions:
REMARK  status: ('A' for Active; 'I' for Inactive)
REMARK    1  A    between atoms: C_2  and  N_3 
REMARK    2  A    between atoms: C_14  and  C_2 
REMARK    3  A    between atoms: N_3  and  C_4 
REMARK    4  A    between atoms: C_7  and  C_8 
REMARK       I    between atoms: C_8  and  N_9 
REMARK    5  A    between atoms: C_14  and  C_16 
REMARK    6  A    between atoms: C_14  and  O_15 
ROOT
ATOM      1  N   UNL d   1       1.140   1.446   2.089  0.00  0.00    -0.269 NA
ATOM      2  H   UNL d   1       0.332   1.804   1.581  0.00  0.00     0.129 HD
ENDROOT
BRANCH   1   3
ATOM      3  C   UNL d   1       2.433   1.994   1.542  0.00  0.00     0.091 C 
ATOM      4  C   UNL d   1       3.494   1.860   2.628  0.00  0.00     0.029 C 
BRANCH   3   5
ATOM      5  C   UNL d   1       2.956   1.431   0.150  0.00  0.00     0.168 C 
BRANCH   5   6
ATOM      6  C   UNL d   1       4.489   1.461   0.018  0.00  0.00    -0.028 A 
ATOM      7  C   UNL d   1       5.209   0.306  -0.336  0.00  0.00     0.011 A 
ATOM      8  C   UNL d   1       6.604   0.288  -0.306  0.00  0.00     0.019 A 
ATOM      9  C   UNL d   1       7.303   1.421   0.098  0.00  0.00     0.011 A 
ATOM     10 BR   UNL d   1       9.191   1.404   0.114  0.00  0.00    -0.051 Br
ATOM     11  C   UNL d   1       6.620   2.574   0.467  0.00  0.00     0.019 A 
ATOM     12  C   UNL d   1       5.227   2.610   0.370  0.00  0.00     0.011 A 
ENDBRANCH   5   6
BRANCH   5  13
ATOM     13  O   UNL d   1       2.517   0.090  -0.083  0.00  0.00    -0.389 OA
ATOM     14  H   UNL d   1       2.833  -0.432   0.672  0.00  0.00     0.210 HD
ENDBRANCH   5  13
ENDBRANCH   3   5
ENDBRANCH   1   3
BRANCH   1  15
ATOM     15  C   UNL d   1       0.982   0.065   2.279  0.00  0.00     0.125 C 
ATOM     16  N   UNL d   1       0.000  -0.535   1.559  0.00  0.00    -0.246 NA
ATOM     17  C   UNL d   1      -0.091  -1.905   1.599  0.00  0.00     0.135 C 
ATOM     18  C   UNL d   1       0.804  -2.731   2.262  0.00  0.00     0.051 C 
ATOM     19  C   UNL d   1       1.802  -2.110   2.987  0.00  0.00     0.045 C 
ATOM     20  C   UNL d   1       1.805  -0.728   3.106  0.00  0.00     0.075 C 
ATOM     21 CL   UNL d   1       2.643  -0.194   4.526  0.00  0.00    -0.081 Cl
BRANCH  18  22
ATOM     22  C   UNL d   1       0.730  -4.208   2.382  0.00  0.00     0.250 C 
ATOM     23  N   UNL d   1      -0.303  -4.865   1.778  0.00  0.00    -0.366 N 
ATOM     24  H   UNL d   1      -1.040  -4.440   1.243  0.00  0.00     0.159 HD
ATOM     25  H   UNL d   1      -0.324  -5.870   1.904  0.00  0.00     0.159 HD
ATOM     26  O   UNL d   1       1.557  -4.829   3.024  0.00  0.00    -0.268 OA
ENDBRANCH  18  22
ENDBRANCH   1  15
TORSDOF 6
