REMARK  3 active torsions:
REMARK  status: ('A' for Active; 'I' for Inactive)
REMARK       I    between atoms: C_2  and  N_3 
REMARK    1  A    between atoms: C_15  and  C_2 
REMARK    2  A    between atoms: N_3  and  N_4 
REMARK    3  A    between atoms: C_5  and  C_6 
ROOT
ATOM      1  N   UNL d   1       0.448   0.103  -3.114  0.00  0.00    -0.184 NA
ATOM      2  C   UNL d   1      -0.114   1.264  -3.322  0.00  0.00     0.152 C 
ENDROOT
BRANCH   1   3
ATOM      3  N   UNL d   1       1.308  -0.054  -2.042  0.00  0.00    -0.247 N 
ATOM      4  C   UNL d   1       1.971  -1.245  -1.776  0.00  0.00     0.242 C 
ATOM      5  O   UNL d   1       1.827  -2.276  -2.427  0.00  0.00    -0.271 OA
ATOM      6  H   UNL d   1       1.454   0.730  -1.419  0.00  0.00     0.192 HD
BRANCH   4   7
ATOM      7  C   UNL d   1       2.865  -1.163  -0.558  0.00  0.00     0.088 A 
ATOM      8  C   UNL d   1       4.367  -1.436  -0.540  0.00  0.00     0.004 A 
ATOM      9  C   UNL d   1       5.199  -2.009  -1.644  0.00  0.00     0.006 C 
ATOM     10  C   UNL d   1       3.438  -2.338   0.235  0.00  0.00     0.004 A 
ATOM     11  C   UNL d   1       4.704  -3.345  -2.176  0.00  0.00     0.000 C 
ATOM     12  C   UNL d   1       4.359  -4.310  -1.049  0.00  0.00     0.000 C 
ATOM     13  C   UNL d   1       3.247  -3.771  -0.155  0.00  0.00     0.006 C 
ENDBRANCH   4   7
ENDBRANCH   1   3
BRANCH   2  14
ATOM     14  C   UNL d   1       0.165   2.470  -2.562  0.00  0.00     0.011 A 
ATOM     15  C   UNL d   1      -0.746   3.369  -2.040  0.00  0.00     0.102 A 
ATOM     16  N   UNL d   1      -0.048   4.287  -1.283  0.00  0.00    -0.364 N 
ATOM     17  C   UNL d   1       1.307   4.065  -1.401  0.00  0.00     0.043 A 
ATOM     18  H   UNL d   1      -0.466   5.023  -0.728  0.00  0.00     0.165 HD
ATOM     19  C   UNL d   1       2.410   4.730  -0.852  0.00  0.00     0.030 A 
ATOM     20  C   UNL d   1       1.460   2.967  -2.241  0.00  0.00     0.004 A 
ATOM     21  C   UNL d   1       3.688   4.257  -1.192  0.00  0.00     0.002 A 
ATOM     22  C   UNL d   1       3.861   3.164  -2.034  0.00  0.00     0.001 A 
ATOM     23  C   UNL d   1       2.755   2.526  -2.575  0.00  0.00     0.014 A 
ENDBRANCH   2  14
TORSDOF 3
