@<TRIPOS>MOLECULE
*****
 45 46 0 0 0
SMALL
GASTEIGER

@<TRIPOS>ATOM
      1 C           0.9143    0.0003   -0.0222 C.3     1  UNL1       -0.0281
      2 C           2.4434    0.0030    0.0210 C.3     1  UNL1        0.0946
      3 C           2.7923   -0.7113    1.3300 C.3     1  UNL1       -0.0281
      4 O           2.9099   -0.5717   -1.2322 O.3     1  UNL1       -0.4894
      5 C           4.2598   -0.6818   -1.4487 C.ar    1  UNL1        0.1211
      6 C           4.8170   -0.4297   -2.6891 C.ar    1  UNL1       -0.0199
      7 C           6.1757   -0.7345   -2.9102 C.ar    1  UNL1       -0.0580
      8 C           7.0058   -1.2049   -1.8656 C.ar    1  UNL1       -0.0579
      9 C           6.4592   -1.4773   -0.6089 C.ar    1  UNL1       -0.0351
     10 C           7.2488   -2.0608    0.5755 C.3     1  UNL1        0.0506
     11 C           6.4849   -2.3101    1.9176 C.2     1  UNL1        0.2334
     12 O           5.2810   -2.1278    2.1188 O.2     1  UNL1       -0.2739
     13 N           7.1791   -2.7862    3.0039 N.am    1  UNL1       -0.2329
     14 N           6.4016   -3.0019    4.1838 N.am    1  UNL1       -0.2182
     15 C           6.9881   -3.5266    5.3034 C.2     1  UNL1        0.3160
     16 O           8.1804   -3.8358    5.3291 O.2     1  UNL1       -0.2513
     17 N           6.1428   -3.6639    6.3714 N.am    1  UNL1       -0.2980
     18 C           6.6132   -4.1901    7.6368 C.3     1  UNL1        0.0159
     19 C           5.5663   -4.2577    8.7135 C.3     1  UNL1       -0.0254
     20 C           4.1928   -3.6342    8.6056 C.3     1  UNL1       -0.0485
     21 C           4.3441   -5.1307    8.5492 C.3     1  UNL1       -0.0485
     22 C           5.0848   -1.2696   -0.5057 C.ar    1  UNL1       -0.0163
     23 H           0.5004    0.4533    0.8870 H       1  UNL1        0.0265
     24 H           0.5323   -1.0265   -0.0872 H       1  UNL1        0.0265
     25 H           0.5387    0.5465   -0.8887 H       1  UNL1        0.0265
     26 H           2.7979    1.0385    0.0732 H       1  UNL1        0.0727
     27 H           2.6441   -1.7963    1.2503 H       1  UNL1        0.0265
     28 H           2.2178   -0.3477    2.1868 H       1  UNL1        0.0265
     29 H           3.8199   -0.4800    1.6066 H       1  UNL1        0.0265
     30 H           4.2022   -0.0428   -3.4967 H       1  UNL1        0.0654
     31 H           6.5825   -0.6316   -3.9156 H       1  UNL1        0.0619
     32 H           8.0564   -1.3956   -2.0766 H       1  UNL1        0.0620
     33 H           8.0821   -1.3792    0.7911 H       1  UNL1        0.0407
     34 H           7.6624   -3.0219    0.2502 H       1  UNL1        0.0407
     35 H           8.1496   -3.0819    3.0294 H       1  UNL1        0.1728
     36 H           5.4183   -2.7345    4.1161 H       1  UNL1        0.1744
     37 H           5.1712   -3.4282    6.2578 H       1  UNL1        0.1503
     38 H           7.4388   -3.5531    7.9756 H       1  UNL1        0.0465
     39 H           7.0282   -5.1899    7.4623 H       1  UNL1        0.0465
     40 H           6.0340   -4.2782    9.6959 H       1  UNL1        0.0316
     41 H           3.8876   -3.1179    7.7066 H       1  UNL1        0.0269
     42 H           3.7703   -3.1844    9.4979 H       1  UNL1        0.0269
     43 H           4.2130   -5.6434    7.6031 H       1  UNL1        0.0269
     44 H           3.9935   -5.7041    9.4021 H       1  UNL1        0.0269
     45 H           4.5800   -1.7041    0.3209 H       1  UNL1        0.0657
@<TRIPOS>BOND
     1     1     2    1
     2     2     3    1
     3     2     4    1
     4     4     5    1
     5     5     6   ar
     6     6     7   ar
     7     7     8   ar
     8     8     9   ar
     9     9    10    1
    10    10    11    1
    11    11    12    2
    12    11    13   am
    13    13    14    1
    14    14    15   am
    15    15    16    2
    16    15    17   am
    17    17    18    1
    18    18    19    1
    19    19    20    1
    20    20    21    1
    21    19    21    1
    22     9    22   ar
    23     5    22   ar
    24     1    23    1
    25     1    24    1
    26     1    25    1
    27     2    26    1
    28     3    27    1
    29     3    28    1
    30     3    29    1
    31     6    30    1
    32     7    31    1
    33     8    32    1
    34    10    33    1
    35    10    34    1
    36    13    35    1
    37    14    36    1
    38    17    37    1
    39    18    38    1
    40    18    39    1
    41    19    40    1
    42    20    41    1
    43    20    42    1
    44    21    43    1
    45    21    44    1
    46    22    45    1
