REMARK  6 active torsions:
REMARK  status: ('A' for Active; 'I' for Inactive)
REMARK    1  A    between atoms: C_2  and  C_3 
REMARK       I    between atoms: C_2  and  N_21 
REMARK    2  A    between atoms: C_3  and  N_4 
REMARK    3  A    between atoms: C_8  and  C_9 
REMARK    4  A    between atoms: C_9  and  C_10 
REMARK    5  A    between atoms: N_21  and  C_22 
REMARK    6  A    between atoms: C_25  and  N_26 
ROOT
ATOM      1  N   UNL d   1       2.129   0.362  -2.375  0.00  0.00    -0.260 N 
ATOM      2  C   UNL d   1       1.560  -0.647  -3.066  0.00  0.00     0.326 C 
ATOM      3  O   UNL d   1       1.683  -1.851  -2.876  0.00  0.00    -0.247 OA
ATOM      4  N   UNL d   1       0.846  -0.096  -4.090  0.00  0.00    -0.329 N 
ATOM      5  C   UNL d   1       0.792   1.347  -4.040  0.00  0.00     0.183 C 
ATOM      6  C   UNL d   1       1.791   1.575  -2.910  0.00  0.00     0.251 C 
ATOM      7  O   UNL d   1       2.219   2.667  -2.559  0.00  0.00    -0.271 OA
ATOM      8  H   UNL d   1       0.415  -0.673  -4.797  0.00  0.00     0.165 HD
ENDROOT
BRANCH   1   9
ATOM      9  C   UNL d   1       3.068   0.161  -1.314  0.00  0.00     0.240 C 
BRANCH   9  10
ATOM     10  C   UNL d   1       2.364  -0.032   0.030  0.00  0.00     0.240 C 
ATOM     11  O   UNL d   1       1.136  -0.025   0.146  0.00  0.00    -0.271 OA
ATOM     12  N   UNL d   1       3.147  -0.314   1.131  0.00  0.00    -0.326 N 
ATOM     13  H   UNL d   1       2.620  -0.632   1.938  0.00  0.00     0.169 HD
BRANCH  12  14
ATOM     14  C   UNL d   1       4.550  -0.263   1.225  0.00  0.00     0.034 A 
ATOM     15  C   UNL d   1       5.235  -1.197   1.996  0.00  0.00     0.032 A 
ATOM     16  C   UNL d   1       6.636  -1.119   2.104  0.00  0.00     0.031 A 
ATOM     17  C   UNL d   1       7.387  -0.146   1.426  0.00  0.00     0.030 A 
ATOM     18  C   UNL d   1       6.677   0.805   0.700  0.00  0.00     0.031 A 
ATOM     19  C   UNL d   1       5.282   0.758   0.623  0.00  0.00     0.032 A 
BRANCH  17  20
ATOM     20  N   UNL d   1       8.759  -0.144   1.493  0.00  0.00    -0.377 N 
ATOM     21  C   UNL d   1       9.547   1.041   1.843  0.00  0.00     0.149 C 
ATOM     22  C   UNL d   1      10.496   1.426   0.699  0.00  0.00     0.187 C 
ATOM     23  O   UNL d   1      11.312   0.314   0.289  0.00  0.00    -0.388 OA
ATOM     24  C   UNL d   1      10.477  -0.768  -0.160  0.00  0.00     0.187 C 
ATOM     25  C   UNL d   1       9.546  -1.267   0.963  0.00  0.00     0.149 C 
ENDBRANCH  17  20
ENDBRANCH  12  14
ENDBRANCH   9  10
ENDBRANCH   1   9
BRANCH   5  26
ATOM     26  C   UNL d   1      -0.581   1.932  -3.685  0.00  0.00     0.076 C 
BRANCH  26  27
ATOM     27  C   UNL d   1      -1.607   1.667  -4.750  0.00  0.00    -0.028 A 
ATOM     28  C   UNL d   1      -2.247   2.604  -5.538  0.00  0.00     0.096 A 
ATOM     29  N   UNL d   1      -3.055   1.940  -6.426  0.00  0.00    -0.365 N 
ATOM     30  C   UNL d   1      -2.988   0.582  -6.210  0.00  0.00     0.042 A 
ATOM     31  H   UNL d   1      -3.638   2.383  -7.124  0.00  0.00     0.165 HD
ATOM     32  C   UNL d   1      -3.643  -0.486  -6.841  0.00  0.00     0.030 A 
ATOM     33  C   UNL d   1      -2.121   0.387  -5.137  0.00  0.00    -0.002 A 
ATOM     34  C   UNL d   1      -3.372  -1.785  -6.387  0.00  0.00     0.002 A 
ATOM     35  C   UNL d   1      -2.502  -2.010  -5.331  0.00  0.00     0.001 A 
ATOM     36  C   UNL d   1      -1.927  -0.930  -4.671  0.00  0.00     0.014 A 
ENDBRANCH  26  27
ENDBRANCH   5  26
TORSDOF 6
