@<TRIPOS>MOLECULE
*****
 48 49 0 0 0
SMALL
GASTEIGER

@<TRIPOS>ATOM
      1 C           0.9780   -0.0065   -0.0432 C.2     1  UNL1       -0.1012
      2 C           2.3217   -0.0320   -0.0622 C.2     1  UNL1       -0.0742
      3 C           3.0926   -1.0646   -0.8317 C.3     1  UNL1        0.0297
      4 N           4.5310   -0.8932   -0.7028 N.am    1  UNL1       -0.3118
      5 C           5.3817   -1.7706   -1.3567 C.2     1  UNL1        0.2141
      6 O           4.9477   -2.6955   -2.0478 O.2     1  UNL1       -0.2758
      7 C           6.8799   -1.5290   -1.1750 C.3     1  UNL1        0.0334
      8 C           7.7175   -2.5749   -1.9493 C.3     1  UNL1        0.0094
      9 S           9.5104   -2.2877   -1.7404 S.3     1  UNL1       -0.0839
     10 C          10.2526   -3.5260   -2.7404 C.ar    1  UNL1        0.2101
     11 N           9.9768   -4.8296   -2.6211 N.ar    1  UNL1       -0.1443
     12 N          10.8435   -5.3622   -3.5092 N.ar    1  UNL1       -0.2446
     13 C          11.6101   -4.4032   -4.1259 C.ar    1  UNL1        0.2317
     14 N          12.5335   -4.7314   -5.0767 N.pl3   1  UNL1       -0.2052
     15 N          13.2914   -3.7874   -5.7254 N.2     1  UNL1       -0.1850
     16 C          14.1423   -4.1212   -6.6619 C.2     1  UNL1        0.0563
     17 C          14.4157   -5.5301   -7.1409 C.3     1  UNL1       -0.0209
     18 C          14.9302   -3.0146   -7.3208 C.2     1  UNL1       -0.0386
     19 C          15.8341   -3.1911   -8.3034 C.2     1  UNL1       -0.0529
     20 C          16.6422   -2.0914   -8.8627 C.ar    1  UNL1       -0.0250
     21 C          16.9064   -2.0030  -10.2381 C.ar    1  UNL1       -0.0546
     22 C          17.7609   -1.0085  -10.7343 C.ar    1  UNL1       -0.0612
     23 C          18.3133   -0.0644   -9.8702 C.ar    1  UNL1       -0.0617
     24 C          18.0581   -0.1452   -8.5047 C.ar    1  UNL1       -0.0612
     25 C          17.2444   -1.1625   -8.0050 C.ar    1  UNL1       -0.0546
     26 N          11.2605   -3.2361   -3.6276 N.ar    1  UNL1       -0.1865
     27 H           0.4301    0.7464    0.5175 H       1  UNL1        0.0532
     28 H           0.3841   -0.7372   -0.5877 H       1  UNL1        0.0532
     29 H           2.8527    0.7273    0.5033 H       1  UNL1        0.0582
     30 H           2.8396   -1.0027   -1.8963 H       1  UNL1        0.0506
     31 H           2.8390   -2.0670   -0.4682 H       1  UNL1        0.0506
     32 H           4.9037   -0.1383   -0.1423 H       1  UNL1        0.1490
     33 H           7.1084   -1.5780   -0.1033 H       1  UNL1        0.0366
     34 H           7.1096   -0.5175   -1.5323 H       1  UNL1        0.0366
     35 H           7.4735   -2.5252   -3.0164 H       1  UNL1        0.0385
     36 H           7.4719   -3.5815   -1.5944 H       1  UNL1        0.0385
     37 H          10.8537   -6.3652   -3.6457 H       1  UNL1        0.1919
     38 H          12.6276   -5.7043   -5.3431 H       1  UNL1        0.1774
     39 H          13.8161   -6.2898   -6.6468 H       1  UNL1        0.0293
     40 H          15.4684   -5.7731   -6.9639 H       1  UNL1        0.0293
     41 H          14.2043   -5.5897   -8.2129 H       1  UNL1        0.0293
     42 H          14.7200   -2.0227   -6.9272 H       1  UNL1        0.0636
     43 H          16.0595   -4.1704   -8.7154 H       1  UNL1        0.0624
     44 H          16.4478   -2.6937  -10.9426 H       1  UNL1        0.0623
     45 H          18.0007   -0.9684  -11.7947 H       1  UNL1        0.0618
     46 H          18.9426    0.7330  -10.2574 H       1  UNL1        0.0618
     47 H          18.4997    0.5737   -7.8202 H       1  UNL1        0.0618
     48 H          17.0896   -1.2274   -6.9310 H       1  UNL1        0.0623
@<TRIPOS>BOND
     1     1     2    2
     2     2     3    1
     3     3     4    1
     4     4     5   am
     5     5     6    2
     6     5     7    1
     7     7     8    1
     8     8     9    1
     9     9    10    1
    10    10    11   ar
    11    11    12   ar
    12    12    13   ar
    13    13    14    1
    14    14    15    1
    15    15    16    2
    16    16    17    1
    17    16    18    1
    18    18    19    2
    19    19    20    1
    20    20    21   ar
    21    21    22   ar
    22    22    23   ar
    23    23    24   ar
    24    24    25   ar
    25    20    25   ar
    26    13    26   ar
    27    10    26   ar
    28     1    27    1
    29     1    28    1
    30     2    29    1
    31     3    30    1
    32     3    31    1
    33     4    32    1
    34     7    33    1
    35     7    34    1
    36     8    35    1
    37     8    36    1
    38    12    37    1
    39    14    38    1
    40    17    39    1
    41    17    40    1
    42    17    41    1
    43    18    42    1
    44    19    43    1
    45    21    44    1
    46    22    45    1
    47    23    46    1
    48    24    47    1
    49    25    48    1
