REMARK  7 active torsions:
REMARK  status: ('A' for Active; 'I' for Inactive)
REMARK    1  A    between atoms: C_2  and  N_17 
REMARK    2  A    between atoms: C_3  and  C_4 
REMARK       I    between atoms: C_4  and  N_6 
REMARK    3  A    between atoms: N_6  and  C_7 
REMARK    4  A    between atoms: C_12  and  N_13 
REMARK    5  A    between atoms: N_17  and  N_18 
REMARK       I    between atoms: N_18  and  C_19 
REMARK    6  A    between atoms: C_19  and  C_21 
REMARK    7  A    between atoms: C_25  and  O_26 
ROOT
ATOM      1  C   UNL d   1       1.030  -0.041  -0.172  0.00  0.00     0.070 C 
ATOM      2  C   UNL d   1       2.548   0.103  -0.011  0.00  0.00     0.027 C 
ATOM      3  C   UNL d   1       3.110   0.931   0.912  0.00  0.00     0.100 C 
ENDROOT
BRANCH   2   4
ATOM      4  N   UNL d   1       3.284  -0.689  -0.908  0.00  0.00    -0.302 N 
ATOM      5  H   UNL d   1       2.763  -1.290  -1.561  0.00  0.00     0.186 HD
BRANCH   4   6
ATOM      6  N   UNL d   1       4.683  -0.832  -0.955  0.00  0.00    -0.266 N 
ATOM      7  C   UNL d   1       5.288  -1.617  -1.932  0.00  0.00     0.270 C 
ATOM      8  O   UNL d   1       4.674  -2.284  -2.768  0.00  0.00    -0.266 OA
ATOM      9  H   UNL d   1       5.229  -0.193  -0.397  0.00  0.00     0.190 HD
BRANCH   7  10
ATOM     10  C   UNL d   1       6.790  -1.605  -1.934  0.00  0.00     0.036 A 
ATOM     11  C   UNL d   1       7.517  -1.667  -0.736  0.00  0.00     0.017 A 
ATOM     12  C   UNL d   1       8.920  -1.670  -0.755  0.00  0.00     0.004 A 
ATOM     13  C   UNL d   1       9.611  -1.615  -1.968  0.00  0.00     0.036 A 
ATOM     14  C   UNL d   1       8.889  -1.570  -3.156  0.00  0.00     0.066 A 
ATOM     15  C   UNL d   1       7.491  -1.570  -3.149  0.00  0.00     0.053 A 
BRANCH  14  16
ATOM     16  O   UNL d   1       9.516  -1.526  -4.368  0.00  0.00    -0.361 OA
ATOM     17  H   UNL d   1      10.479  -1.569  -4.244  0.00  0.00     0.217 HD
ENDBRANCH  14  16
ENDBRANCH   7  10
ENDBRANCH   4   6
ENDBRANCH   2   4
BRANCH   3  18
ATOM     18  C   UNL d   1       2.359   1.792   1.885  0.00  0.00     0.247 C 
ATOM     19  O   UNL d   1       1.132   1.842   1.880  0.00  0.00    -0.268 OA
ATOM     20  N   UNL d   1       3.101   2.590   2.755  0.00  0.00    -0.324 N 
ATOM     21  H   UNL d   1       4.079   2.772   2.568  0.00  0.00     0.169 HD
BRANCH  20  22
ATOM     22  C   UNL d   1       2.396   3.413   3.685  0.00  0.00     0.037 A 
ATOM     23  C   UNL d   1       1.316   2.865   4.385  0.00  0.00     0.031 A 
ATOM     24  C   UNL d   1       0.488   3.649   5.182  0.00  0.00     0.029 A 
ATOM     25  C   UNL d   1       0.723   5.016   5.323  0.00  0.00     0.067 A 
ATOM     26 CL   UNL d   1      -0.439   5.841   6.302  0.00  0.00    -0.082 Cl
ATOM     27  C   UNL d   1       1.837   5.581   4.676  0.00  0.00     0.126 A 
ATOM     28  C   UNL d   1       2.690   4.769   3.868  0.00  0.00     0.067 A 
BRANCH  27  29
ATOM     29  N   UNL d   1       2.153   7.018   4.788  0.00  0.00    -0.114 N 
ATOM     30  O   UNL d   1       3.149   7.426   4.173  0.00  0.00    -0.532 OA
ATOM     31  O   UNL d   1       1.442   7.750   5.485  0.00  0.00    -0.532 OA
ENDBRANCH  27  29
ENDBRANCH  20  22
ENDBRANCH   3  18
TORSDOF 7
