@<TRIPOS>MOLECULE
*****
 33 35 0 0 0
SMALL
GASTEIGER

@<TRIPOS>ATOM
      1 N           1.0862   -0.0875   -0.0125 N.am    1  UNL1       -0.3518
      2 C           2.4552   -0.1099    0.0537 C.2     1  UNL1        0.0768
      3 S           3.1993    0.5322    1.4060 S.2     1  UNL1       -0.0352
      4 C           3.1795   -0.6846   -1.1096 C.ar    1  UNL1        0.0030
      5 C           4.2782   -1.5272   -0.9162 C.ar    1  UNL1       -0.0516
      6 C           5.0282   -1.9666   -2.0131 C.ar    1  UNL1       -0.0490
      7 C           4.6461   -1.6399   -3.3261 C.ar    1  UNL1        0.0371
      8 C           5.4216   -2.2709   -4.4475 C.2     1  UNL1        0.2483
      9 O           6.3075   -3.0533   -4.1725 O.2     1  UNL1       -0.2699
     10 N           5.0816   -1.9075   -5.7574 N.am    1  UNL1       -0.2814
     11 C           5.5768   -2.6064   -6.8676 C.ar    1  UNL1        0.0374
     12 C           6.0650   -1.9849   -8.0141 C.ar    1  UNL1       -0.0368
     13 C           6.7980   -2.7933   -8.9142 C.ar    1  UNL1       -0.0142
     14 C           6.7017   -4.1711   -8.7500 C.ar    1  UNL1        0.1728
     15 C           5.6062   -4.6195   -8.1018 C.ar    1  UNL1        0.1744
     16 C           5.4170   -3.9775   -6.9007 C.ar    1  UNL1        0.0053
     17 O           5.4677   -5.9689   -8.3012 O.3     1  UNL1       -0.3954
     18 C           6.7996   -6.2272   -7.9247 C.3     1  UNL1        0.5891
     19 F           6.7600   -6.2352   -6.5578 F       1  UNL1       -0.1252
     20 F           7.1780   -7.4723   -8.2929 F       1  UNL1       -0.1252
     21 O           7.6747   -5.1673   -8.5044 O.3     1  UNL1       -0.3955
     22 C           3.5436   -0.7998   -3.5141 C.ar    1  UNL1       -0.0490
     23 C           2.8165   -0.3217   -2.4128 C.ar    1  UNL1       -0.0516
     24 H           0.5750    0.2722    0.7875 H       1  UNL1        0.1428
     25 H           0.5467   -0.5042   -0.7596 H       1  UNL1        0.1428
     26 H           4.5651   -1.8502    0.0827 H       1  UNL1        0.0624
     27 H           5.9202   -2.5658   -1.8306 H       1  UNL1        0.0625
     28 H           4.3861   -1.2127   -5.9579 H       1  UNL1        0.1551
     29 H           5.9667   -0.9128   -8.1564 H       1  UNL1        0.0637
     30 H           7.1424   -2.3525   -9.8515 H       1  UNL1        0.0656
     31 H           5.2374   -4.5400   -5.9912 H       1  UNL1        0.0674
     32 H           3.2274   -0.4841   -4.5014 H       1  UNL1        0.0625
     33 H           1.9856    0.3581   -2.5836 H       1  UNL1        0.0624
@<TRIPOS>BOND
     1     1     2    1
     2     2     3    2
     3     2     4    1
     4     4     5   ar
     5     5     6   ar
     6     6     7   ar
     7     7     8    1
     8     8     9    2
     9     8    10   am
    10    10    11    1
    11    11    12   ar
    12    12    13   ar
    13    13    14   ar
    14    14    15   ar
    15    15    16   ar
    16    11    16   ar
    17    15    17    1
    18    17    18    1
    19    18    19    1
    20    18    20    1
    21    18    21    1
    22    14    21    1
    23     7    22   ar
    24    22    23   ar
    25     4    23   ar
    26     1    24    1
    27     1    25    1
    28     5    26    1
    29     6    27    1
    30    10    28    1
    31    12    29    1
    32    13    30    1
    33    16    31    1
    34    22    32    1
    35    23    33    1
