@<TRIPOS>MOLECULE
*****
 43 44 0 0 0
SMALL
GASTEIGER

@<TRIPOS>ATOM
      1 C           2.6989    1.0455    2.4133 C.3     1  UNL1       -0.0397
      2 C           3.3541    0.3291    1.2713 C.ar    1  UNL1       -0.0495
      3 C           3.9609    1.0279    0.2195 C.ar    1  UNL1       -0.0559
      4 C           4.5578    0.3420   -0.8439 C.ar    1  UNL1       -0.0495
      5 C           5.2086    1.0663   -1.9840 C.3     1  UNL1       -0.0397
      6 C           4.5481   -1.0555   -0.8385 C.ar    1  UNL1       -0.0467
      7 C           3.9493   -1.7688    0.2092 C.ar    1  UNL1        0.0372
      8 C           4.0019   -3.2494    0.1446 C.2     1  UNL1        0.2444
      9 O           4.5430   -3.7864   -0.8223 O.2     1  UNL1       -0.2702
     10 N           3.4565   -3.9695    1.1850 N.am    1  UNL1       -0.3060
     11 C           3.4508   -5.4281    1.1750 C.3     1  UNL1        0.0506
     12 C           4.8827   -5.9705    1.2392 C.3     1  UNL1       -0.0439
     13 C           2.6460   -6.0158   -0.0248 C.3     1  UNL1        0.0982
     14 O           1.3033   -5.5099   -0.0084 O.3     1  UNL1       -0.3853
     15 C           2.5819   -7.5306   -0.0155 C.ar    1  UNL1       -0.0172
     16 C           2.6334   -8.2373   -1.2269 C.ar    1  UNL1       -0.0526
     17 C           2.6453   -9.6353   -1.2316 C.ar    1  UNL1       -0.0198
     18 C           2.6124  -10.3242   -0.0224 C.ar    1  UNL1        0.1169
     19 O           2.6402  -11.6847    0.0422 O.3     1  UNL1       -0.5068
     20 C           2.5490   -9.6439    1.1826 C.ar    1  UNL1       -0.0198
     21 C           2.5132   -8.2555    1.1859 C.ar    1  UNL1       -0.0526
     22 C           3.3510   -1.0702    1.2599 C.ar    1  UNL1       -0.0467
     23 H           2.7806    2.1306    2.3068 H       1  UNL1        0.0278
     24 H           3.1742    0.7580    3.3570 H       1  UNL1        0.0278
     25 H           1.6362    0.7845    2.4542 H       1  UNL1        0.0278
     26 H           3.9666    2.1156    0.2287 H       1  UNL1        0.0623
     27 H           5.1279    2.1515   -1.8708 H       1  UNL1        0.0278
     28 H           4.7285    0.7890   -2.9286 H       1  UNL1        0.0278
     29 H           6.2715    0.8081   -2.0347 H       1  UNL1        0.0278
     30 H           5.0160   -1.5972   -1.6607 H       1  UNL1        0.0628
     31 H           2.9503   -3.5177    1.9300 H       1  UNL1        0.1494
     32 H           2.9351   -5.6840    2.1097 H       1  UNL1        0.0524
     33 H           5.4660   -5.6673    0.3661 H       1  UNL1        0.0248
     34 H           4.9169   -7.0617    1.2773 H       1  UNL1        0.0248
     35 H           5.3934   -5.5952    2.1310 H       1  UNL1        0.0248
     36 H           3.0953   -5.6852   -0.9667 H       1  UNL1        0.0662
     37 H           0.8561   -5.8980    0.7594 H       1  UNL1        0.2103
     38 H           2.6827   -7.6956   -2.1712 H       1  UNL1        0.0622
     39 H           2.6883  -10.1591   -2.1809 H       1  UNL1        0.0654
     40 H           2.6846  -12.0393   -0.8594 H       1  UNL1        0.2921
     41 H           2.5372  -10.1887    2.1212 H       1  UNL1        0.0654
     42 H           2.4818   -7.7573    2.1497 H       1  UNL1        0.0622
     43 H           2.8736   -1.5832    2.0859 H       1  UNL1        0.0628
@<TRIPOS>BOND
     1     1     2    1
     2     2     3   ar
     3     3     4   ar
     4     4     5    1
     5     4     6   ar
     6     6     7   ar
     7     7     8    1
     8     8     9    2
     9     8    10   am
    10    10    11    1
    11    11    12    1
    12    13    15    1
    13    15    16   ar
    14    16    17   ar
    15    17    18   ar
    16    18    19    1
    17    18    20   ar
    18    20    21   ar
    19    15    21   ar
    20     7    22   ar
    21     2    22   ar
    22    13    14    1
    23    13    11    1
    24     1    23    1
    25     1    24    1
    26     1    25    1
    27     3    26    1
    28     5    27    1
    29     5    28    1
    30     5    29    1
    31     6    30    1
    32    10    31    1
    33    11    32    1
    34    12    33    1
    35    12    34    1
    36    12    35    1
    37    13    36    1
    38    14    37    1
    39    16    38    1
    40    17    39    1
    41    19    40    1
    42    20    41    1
    43    21    42    1
    44    22    43    1
