@<TRIPOS>MOLECULE
*****
 65 67 0 0 0
SMALL
GASTEIGER

@<TRIPOS>ATOM
      1 C          -2.0570    7.6232    4.7964 C.3     1  UNL1       -0.0612
      2 C          -2.3076    6.1527    5.1271 C.3     1  UNL1       -0.0284
      3 C          -2.6681    5.3340    3.9047 C.ar    1  UNL1       -0.0121
      4 C          -3.8452    4.6541    3.6130 C.ar    1  UNL1        0.1020
      5 C          -5.0824    4.5126    4.3780 C.2     1  UNL1        0.3460
      6 O          -6.1044    3.9724    4.0040 O.2     1  UNL1       -0.2444
      7 O          -4.9353    5.0984    5.6017 O.3     1  UNL1       -0.4641
      8 C          -6.0710    5.0633    6.4636 C.3     1  UNL1        0.0820
      9 S          -3.7774    3.9043    2.0420 S.2     1  UNL1       -0.0617
     10 C          -2.2067    4.4655    1.7391 C.ar    1  UNL1        0.1166
     11 N          -1.4581    4.1834    0.6243 N.ar    1  UNL1       -0.2211
     12 C          -0.4219    4.9622    0.4730 C.ar    1  UNL1        0.1564
     13 C           0.6316    4.6584   -0.6262 C.3     1  UNL1        0.0278
     14 N           2.0947    5.2330   -0.4761 N.4     1  UNL1        0.2443
     15 C           2.8963    4.5951    0.6943 C.3     1  UNL1       -0.0013
     16 C           2.2330    4.9498    1.9664 C.3     1  UNL1        0.1286
     17 O           2.1344    6.3889    1.9115 O.3     1  UNL1       -0.3831
     18 C           2.8215    4.4323    3.2249 C.3     1  UNL1        0.1204
     19 O           2.9182    3.0256    3.0754 O.3     1  UNL1       -0.4889
     20 C           3.4770    2.4576    4.1815 C.ar    1  UNL1        0.1235
     21 C           4.5734    1.6329    3.9139 C.ar    1  UNL1       -0.0197
     22 C           5.2694    1.0554    4.9668 C.ar    1  UNL1       -0.0583
     23 C           4.8575    1.2928    6.2752 C.ar    1  UNL1       -0.0613
     24 C           3.7333    2.0768    6.5332 C.ar    1  UNL1       -0.0554
     25 C           3.0066    2.6537    5.4914 C.ar    1  UNL1       -0.0088
     26 C           1.7659    3.4268    5.8502 C.3     1  UNL1       -0.0362
     27 C           2.9482    5.0597   -1.7288 C.3     1  UNL1       -0.0261
     28 C           2.2582    5.6539   -2.9451 C.3     1  UNL1       -0.0218
     29 C           4.3021    5.7614   -1.5389 C.3     1  UNL1       -0.0218
     30 N          -0.1988    6.0468    1.2980 N.ar    1  UNL1       -0.3061
     31 C          -0.5519    5.9148    2.6203 C.ar    1  UNL1        0.2602
     32 O           0.1830    6.2227    3.5514 O.2     1  UNL1       -0.2671
     33 C          -1.7932    5.2465    2.7874 C.ar    1  UNL1        0.0759
     34 H          -1.8731    8.1898    5.7107 H       1  UNL1        0.0233
     35 H          -2.9110    8.0448    4.2604 H       1  UNL1        0.0233
     36 H          -1.1912    7.8016    4.1596 H       1  UNL1        0.0233
     37 H          -3.0927    6.1442    5.8765 H       1  UNL1        0.0311
     38 H          -1.4361    5.7034    5.6239 H       1  UNL1        0.0311
     39 H          -5.8027    5.5801    7.3916 H       1  UNL1        0.0661
     40 H          -6.3273    4.0299    6.7071 H       1  UNL1        0.0661
     41 H          -6.9134    5.5910    6.0094 H       1  UNL1        0.0661
     42 H           0.2108    5.0775   -1.5387 H       1  UNL1        0.0897
     43 H           0.7646    3.5771   -0.7400 H       1  UNL1        0.0897
     44 H           2.0038    6.2446   -0.2924 H       1  UNL1        0.2041
     45 H           3.8480    5.1187    0.7654 H       1  UNL1        0.0841
     46 H           3.0173    3.5321    0.5003 H       1  UNL1        0.0841
     47 H           1.2748    4.4270    1.9439 H       1  UNL1        0.0681
     48 H           2.9037    6.7954    2.3581 H       1  UNL1        0.2102
     49 H           2.0492    4.6954    3.9325 H       1  UNL1        0.0725
     50 H           3.7571    4.9262    3.4917 H       1  UNL1        0.0725
     51 H           4.8972    1.4545    2.8912 H       1  UNL1        0.0654
     52 H           6.1335    0.4265    4.7724 H       1  UNL1        0.0619
     53 H           5.4025    0.8546    7.1058 H       1  UNL1        0.0618
     54 H           3.4149    2.2298    7.5615 H       1  UNL1        0.0621
     55 H           1.5147    3.3389    6.9088 H       1  UNL1        0.0279
     56 H           0.9108    3.0677    5.2656 H       1  UNL1        0.0279
     57 H           1.9099    4.5011    5.7147 H       1  UNL1        0.0279
     58 H           3.0893    3.9801   -1.8500 H       1  UNL1        0.0846
     59 H           2.0610    6.7217   -2.8051 H       1  UNL1        0.0284
     60 H           1.3181    5.1513   -3.1794 H       1  UNL1        0.0284
     61 H           2.8943    5.5293   -3.8260 H       1  UNL1        0.0284
     62 H           4.1679    6.8302   -1.3369 H       1  UNL1        0.0284
     63 H           4.9224    5.6421   -2.4292 H       1  UNL1        0.0284
     64 H           4.9050    5.3423   -0.7294 H       1  UNL1        0.0284
     65 H           0.7018    6.5132    1.2763 H       1  UNL1        0.1702
@<TRIPOS>UNITY_ATOM_ATTR
14 1
charge 1
@<TRIPOS>BOND
     1     1     2    1
     2     2     3    1
     3     3     4   ar
     4     4     5    1
     5     5     6    2
     6     5     7    1
     7     7     8    1
     8     4     9   ar
     9     9    10   ar
    10    10    11   ar
    11    11    12   ar
    12    12    13    1
    13    13    14    1
    14    14    15    1
    15    16    18    1
    16    18    19    1
    17    19    20    1
    18    20    21   ar
    19    21    22   ar
    20    22    23   ar
    21    23    24   ar
    22    24    25   ar
    23    20    25   ar
    24    25    26    1
    25    14    27    1
    26    27    28    1
    27    27    29    1
    28    12    30   ar
    29    30    31   ar
    30    31    32    2
    31    31    33   ar
    32     3    33   ar
    33    10    33   ar
    34    16    17    1
    35    16    15    1
    36     1    34    1
    37     1    35    1
    38     1    36    1
    39     2    37    1
    40     2    38    1
    41     8    39    1
    42     8    40    1
    43     8    41    1
    44    13    42    1
    45    13    43    1
    46    14    44    1
    47    15    45    1
    48    15    46    1
    49    16    47    1
    50    17    48    1
    51    18    49    1
    52    18    50    1
    53    21    51    1
    54    22    52    1
    55    23    53    1
    56    24    54    1
    57    26    55    1
    58    26    56    1
    59    26    57    1
    60    27    58    1
    61    28    59    1
    62    28    60    1
    63    28    61    1
    64    29    62    1
    65    29    63    1
    66    29    64    1
    67    30    65    1
