REMARK  6 active torsions:
REMARK  status: ('A' for Active; 'I' for Inactive)
REMARK    1  A    between atoms: C_5  and  C_6 
REMARK    2  A    between atoms: C_9  and  N_10 
REMARK    3  A    between atoms: N_10  and  C_11 
REMARK    4  A    between atoms: C_11  and  C_12 
REMARK    5  A    between atoms: C_12  and  N_13 
REMARK    6  A    between atoms: C_19  and  N_20 
ROOT
ATOM      1  C   UNL d   1      -0.315  -3.333  -0.156  0.00  0.00    -0.002 A 
ATOM      2  C   UNL d   1       0.512  -4.017   0.718  0.00  0.00     0.016 A 
ATOM      3  C   UNL d   1       0.926  -5.314   0.392  0.00  0.00     0.032 A 
ATOM      4  C   UNL d   1       0.436  -6.026  -0.743  0.00  0.00     0.061 A 
ATOM      5  C   UNL d   1      -0.430  -5.295  -1.623  0.00  0.00     0.130 A 
ATOM      6  C   UNL d   1      -0.794  -3.967  -1.296  0.00  0.00     0.052 A 
ENDROOT
BRANCH   1   7
ATOM      7  C   UNL d   1      -0.623  -1.891  -0.003  0.00  0.00     0.098 A 
ATOM      8  N   UNL d   1      -1.878  -1.552   0.046  0.00  0.00    -0.170 NA
ATOM      9  N   UNL d   1      -2.182  -0.225   0.104  0.00  0.00    -0.242 N 
ATOM     10  C   UNL d   1      -1.288   0.815   0.022  0.00  0.00     0.272 A 
ATOM     11  H   UNL d   1      -3.166   0.018   0.173  0.00  0.00     0.192 HD
ATOM     12  O   UNL d   1      -1.642   1.990   0.002  0.00  0.00    -0.266 OA
ATOM     13  C   UNL d   1       0.135   0.445  -0.014  0.00  0.00     0.046 A 
ATOM     14  C   UNL d   1       1.127   1.433  -0.028  0.00  0.00     0.018 A 
ATOM     15  C   UNL d   1       0.484  -0.901   0.002  0.00  0.00     0.011 A 
ATOM     16  C   UNL d   1       2.473   1.069   0.013  0.00  0.00     0.001 A 
ATOM     17  C   UNL d   1       2.828  -0.276   0.039  0.00  0.00     0.001 A 
ATOM     18  C   UNL d   1       1.840  -1.257   0.004  0.00  0.00     0.015 A 
ENDBRANCH   1   7
BRANCH   5  19
ATOM     19  N   UNL d   1      -1.018  -5.720  -2.937  0.00  0.00    -0.113 N 
ATOM     20  O   UNL d   1      -0.786  -6.834  -3.420  0.00  0.00    -0.532 OA
ATOM     21  O   UNL d   1      -1.748  -4.919  -3.529  0.00  0.00    -0.532 OA
ENDBRANCH   5  19
BRANCH   4  22
ATOM     22  N   UNL d   1       0.916  -7.348  -0.817  0.00  0.00    -0.386 N 
ATOM     23  H   UNL d   1       1.434  -7.701  -0.014  0.00  0.00     0.159 HD
BRANCH  22  24
ATOM     24  C   UNL d   1       0.378  -8.277  -1.777  0.00  0.00     0.147 C 
BRANCH  24  25
ATOM     25  C   UNL d   1       0.721  -9.752  -1.683  0.00  0.00     0.254 C 
BRANCH  25  26
ATOM     26  N   UNL d   1       0.050 -10.541  -2.834  0.00  0.00    -0.066 N 
ATOM     27  C   UNL d   1       0.429 -12.015  -2.711  0.00  0.00     0.261 C 
ATOM     28  C   UNL d   1      -0.247 -12.848  -3.801  0.00  0.00     0.195 C 
ATOM     29  O   UNL d   1      -1.666 -12.690  -3.749  0.00  0.00    -0.388 OA
ATOM     30  C   UNL d   1      -2.032 -11.339  -4.040  0.00  0.00     0.195 C 
ATOM     31  C   UNL d   1      -1.486 -10.388  -2.961  0.00  0.00     0.261 C 
ATOM     32  H   UNL d   1       0.439 -10.179  -3.718  0.00  0.00     0.280 HD
ENDBRANCH  25  26
ENDBRANCH  24  25
ENDBRANCH  22  24
ENDBRANCH   4  22
TORSDOF 6
