@<TRIPOS>MOLECULE
*****
 61 63 0 0 0
SMALL
GASTEIGER

@<TRIPOS>ATOM
      1 C           1.2243   -0.1268   -0.6302 C.3     1  UNL1        0.0790
      2 O           2.5489   -0.1622   -0.1096 O.3     1  UNL1       -0.4915
      3 C           3.0241    0.8129    0.7259 C.ar    1  UNL1        0.1615
      4 C           4.2796    1.2861    0.3259 C.ar    1  UNL1       -0.0159
      5 C           5.1148    2.0079    1.1922 C.ar    1  UNL1       -0.0495
      6 C           4.6383    2.5045    2.3983 C.ar    1  UNL1        0.0054
      7 C           5.4612    3.4504    3.2691 C.3     1  UNL1        0.0204
      8 C           5.6509    4.8269    2.5249 C.3     1  UNL1        0.0591
      9 N           6.4238    4.7658    1.2833 N.am    1  UNL1       -0.3055
     10 C           6.6176    5.8522    0.4642 C.2     1  UNL1        0.2487
     11 O           6.2583    6.9904    0.7774 O.2     1  UNL1       -0.2700
     12 C           7.3412    5.6173   -0.7972 C.ar    1  UNL1        0.0916
     13 C           8.3577    6.4489   -1.2073 C.ar    1  UNL1        0.0455
     14 N           9.0502    6.2920   -2.3686 N.ar    1  UNL1       -0.2295
     15 C           8.6886    5.2623   -3.1471 C.ar    1  UNL1        0.1899
     16 S           9.3731    4.9706   -4.7345 S.3     1  UNL1       -0.0813
     17 C          10.6810    6.2240   -4.9009 C.3     1  UNL1        0.0262
     18 C          11.4446    6.0571   -6.2068 C.ar    1  UNL1       -0.0371
     19 C          11.7016    4.7877   -6.7604 C.ar    1  UNL1       -0.0578
     20 C          12.4970    4.6360   -7.8934 C.ar    1  UNL1       -0.0615
     21 C          13.0056    5.7577   -8.5340 C.ar    1  UNL1       -0.0617
     22 C          12.7596    7.0261   -8.0106 C.ar    1  UNL1       -0.0615
     23 C          11.9959    7.1764   -6.8475 C.ar    1  UNL1       -0.0578
     24 N           7.7249    4.3968   -2.8323 N.ar    1  UNL1       -0.2095
     25 C           7.0594    4.6184   -1.6941 C.ar    1  UNL1        0.1456
     26 CL          5.7322    3.5546   -1.5764 Cl      1  UNL1       -0.0611
     27 N           4.8334    3.6514    4.6696 N.4     1  UNL1        0.2375
     28 C           4.7428    2.3539    5.4673 C.3     1  UNL1       -0.0427
     29 C           5.5326    4.6635    5.5311 C.3     1  UNL1       -0.0427
     30 C           3.3514    2.0961    2.7477 C.ar    1  UNL1       -0.0078
     31 C           2.5911    1.1896    1.9995 C.ar    1  UNL1        0.1619
     32 O           1.5470    0.7877    2.7928 O.3     1  UNL1       -0.4914
     33 C           0.5861    0.0371    2.1189 C.3     1  UNL1        0.0790
     34 H           1.1645   -0.7986   -1.4876 H       1  UNL1        0.0660
     35 H           0.8834    0.8813   -0.8778 H       1  UNL1        0.0660
     36 H           0.5037   -0.6210    0.0153 H       1  UNL1        0.0660
     37 H           4.6416    1.0625   -0.6780 H       1  UNL1        0.0655
     38 H           6.1361    2.1718    0.8677 H       1  UNL1        0.0623
     39 H           6.4479    3.0110    3.4669 H       1  UNL1        0.0920
     40 H           6.1983    5.5389    3.1476 H       1  UNL1        0.0522
     41 H           4.6723    5.2733    2.3043 H       1  UNL1        0.0522
     42 H           6.8661    3.8999    1.0093 H       1  UNL1        0.1492
     43 H           8.6604    7.3024   -0.6057 H       1  UNL1        0.0839
     44 H          11.3997    6.1497   -4.0764 H       1  UNL1        0.0429
     45 H          10.2157    7.2156   -4.8665 H       1  UNL1        0.0429
     46 H          11.2767    3.8857   -6.3259 H       1  UNL1        0.0621
     47 H          12.7189    3.6391   -8.2644 H       1  UNL1        0.0618
     48 H          13.5925    5.6399   -9.4405 H       1  UNL1        0.0618
     49 H          13.1779    7.8995   -8.5044 H       1  UNL1        0.0618
     50 H          11.8360    8.1769   -6.4514 H       1  UNL1        0.0621
     51 H           3.8824    4.0121    4.5062 H       1  UNL1        0.2035
     52 H           5.7575    2.0253    5.6922 H       1  UNL1        0.0778
     53 H           4.2446    1.5606    4.9126 H       1  UNL1        0.0778
     54 H           4.1563    2.5607    6.3657 H       1  UNL1        0.0778
     55 H           6.5457    4.2999    5.7147 H       1  UNL1        0.0778
     56 H           4.9666    4.7549    6.4618 H       1  UNL1        0.0778
     57 H           5.5329    5.6326    5.0345 H       1  UNL1        0.0778
     58 H           2.8844    2.3895    3.6826 H       1  UNL1        0.0660
     59 H          -0.2636   -0.2563    2.7313 H       1  UNL1        0.0660
     60 H           1.0689   -0.8919    1.7995 H       1  UNL1        0.0660
     61 H           0.1738    0.7007    1.3530 H       1  UNL1        0.0660
@<TRIPOS>UNITY_ATOM_ATTR
27 1
charge 1
@<TRIPOS>BOND
     1     1     2    1
     2     2     3    1
     3     3     4   ar
     4     4     5   ar
     5     5     6   ar
     6     6     7    1
     7     7     8    1
     8     8     9    1
     9     9    10   am
    10    10    11    2
    11    10    12    1
    12    12    13   ar
    13    13    14   ar
    14    14    15   ar
    15    15    16    1
    16    16    17    1
    17    17    18    1
    18    18    19   ar
    19    19    20   ar
    20    20    21   ar
    21    21    22   ar
    22    22    23   ar
    23    18    23   ar
    24    15    24   ar
    25    24    25   ar
    26    12    25   ar
    27    25    26    1
    28     7    27    1
    29    27    28    1
    30    27    29    1
    31     6    30   ar
    32    30    31   ar
    33     3    31   ar
    34    31    32    1
    35    32    33    1
    36     1    34    1
    37     1    35    1
    38     1    36    1
    39     4    37    1
    40     5    38    1
    41     7    39    1
    42     8    40    1
    43     8    41    1
    44     9    42    1
    45    13    43    1
    46    17    44    1
    47    17    45    1
    48    19    46    1
    49    20    47    1
    50    21    48    1
    51    22    49    1
    52    23    50    1
    53    27    51    1
    54    28    52    1
    55    28    53    1
    56    28    54    1
    57    29    55    1
    58    29    56    1
    59    29    57    1
    60    30    58    1
    61    33    59    1
    62    33    60    1
    63    33    61    1
