@<TRIPOS>MOLECULE
*****
 59 63 0 0 0
SMALL
GASTEIGER

@<TRIPOS>ATOM
      1 C          -3.5186    0.0939   -0.0042 C.3     1  UNL1       -0.0237
      2 C          -2.0469   -0.0892    0.0022 C.ar    1  UNL1        0.0261
      3 N          -1.2071    1.0042   -0.0109 N.ar    1  UNL1       -0.3575
      4 C           0.1097    0.6148    0.0024 C.ar    1  UNL1        0.0474
      5 C           1.2884    1.3817    0.0027 C.ar    1  UNL1       -0.0378
      6 C           2.5107    0.7013   -0.0136 C.ar    1  UNL1       -0.0598
      7 C           2.5497   -0.6885   -0.0225 C.ar    1  UNL1       -0.0611
      8 C           1.3642   -1.4328   -0.0002 C.ar    1  UNL1       -0.0519
      9 C           0.1106   -0.7805    0.0101 C.ar    1  UNL1        0.0120
     10 C          -1.2633   -1.2443    0.0282 C.ar    1  UNL1        0.0646
     11 C          -1.6913   -2.6615    0.0670 C.2     1  UNL1        0.2464
     12 O          -0.8699   -3.5834    0.1063 O.2     1  UNL1       -0.2701
     13 N          -3.0507   -2.9294    0.0636 N.am    1  UNL1       -0.3095
     14 C          -3.5823   -4.2855    0.1042 C.3     1  UNL1        0.0315
     15 C          -5.1341   -4.3617    0.0914 C.3     1  UNL1        0.0593
     16 N          -5.6424   -5.7231    0.1303 N.ar    1  UNL1       -0.2448
     17 N          -4.7331   -6.7078    0.0257 N.ar    1  UNL1       -0.1770
     18 C          -5.4623   -7.8092    0.0375 C.ar    1  UNL1        0.0620
     19 C          -6.8461   -7.5774    0.1657 C.ar    1  UNL1        0.0784
     20 C          -8.0169   -8.3736    0.2540 C.ar    1  UNL1        0.1354
     21 N          -7.9998   -9.7660    0.3950 N.pl3   1  UNL1       -0.3096
     22 C          -6.6965  -10.3434    0.7276 C.3     1  UNL1        0.0396
     23 C          -6.8152  -11.7433    1.3001 C.3     1  UNL1        0.0719
     24 C          -5.4113  -12.2436    1.6133 C.3     1  UNL1       -0.0372
     25 O          -7.4813  -12.5954    0.3589 O.3     1  UNL1       -0.3708
     26 C          -8.7947  -12.0737    0.0148 C.3     1  UNL1        0.0719
     27 C          -9.7221  -12.1294    1.2290 C.3     1  UNL1       -0.0372
     28 C          -8.7285  -10.6210   -0.5651 C.3     1  UNL1        0.0396
     29 N          -9.1897   -7.6924    0.3636 N.ar    1  UNL1       -0.2200
     30 C          -9.1557   -6.3345    0.4268 C.ar    1  UNL1        0.1204
     31 N          -8.0879   -5.4978    0.3644 N.ar    1  UNL1       -0.2162
     32 C          -6.9421   -6.1923    0.2272 C.ar    1  UNL1        0.1633
     33 H          -3.8235    1.1406   -0.0568 H       1  UNL1        0.0292
     34 H          -3.9409   -0.3340    0.9118 H       1  UNL1        0.0292
     35 H          -3.9498   -0.4169   -0.8725 H       1  UNL1        0.0292
     36 H          -1.5072    1.9700   -0.0331 H       1  UNL1        0.1656
     37 H           1.2684    2.4678    0.0085 H       1  UNL1        0.0638
     38 H           3.4438    1.2615   -0.0236 H       1  UNL1        0.0618
     39 H           3.5044   -1.2079   -0.0474 H       1  UNL1        0.0618
     40 H           1.4107   -2.5182    0.0008 H       1  UNL1        0.0624
     41 H          -3.7081   -2.1768    0.0274 H       1  UNL1        0.1491
     42 H          -3.1800   -4.7629    1.0072 H       1  UNL1        0.0480
     43 H          -3.1582   -4.8181   -0.7576 H       1  UNL1        0.0480
     44 H          -5.5230   -3.9079   -0.8262 H       1  UNL1        0.0525
     45 H          -5.5479   -3.8337    0.9555 H       1  UNL1        0.0525
     46 H          -4.9229   -8.7383   -0.0386 H       1  UNL1        0.0856
     47 H          -6.1974   -9.7430    1.4936 H       1  UNL1        0.0489
     48 H          -6.1009  -10.4048   -0.1935 H       1  UNL1        0.0489
     49 H          -7.3703  -11.7235    2.2411 H       1  UNL1        0.0609
     50 H          -4.7899  -12.2925    0.7128 H       1  UNL1        0.0255
     51 H          -5.4462  -13.2419    2.0528 H       1  UNL1        0.0255
     52 H          -4.9221  -11.5666    2.3257 H       1  UNL1        0.0255
     53 H          -9.1896  -12.7514   -0.7523 H       1  UNL1        0.0609
     54 H          -9.3996  -11.4422    2.0180 H       1  UNL1        0.0255
     55 H          -9.7238  -13.1318    1.6677 H       1  UNL1        0.0255
     56 H         -10.7397  -11.8440    0.9547 H       1  UNL1        0.0255
     57 H          -9.7400  -10.2579   -0.7787 H       1  UNL1        0.0489
     58 H          -8.1727  -10.6559   -1.5138 H       1  UNL1        0.0489
     59 H         -10.1236   -5.8506    0.5551 H       1  UNL1        0.1048
@<TRIPOS>BOND
     1     1     2    1
     2     2     3   ar
     3     3     4   ar
     4     4     5   ar
     5     5     6   ar
     6     6     7   ar
     7     7     8   ar
     8     8     9   ar
     9     4     9   ar
    10     9    10   ar
    11     2    10   ar
    12    10    11    1
    13    11    12    2
    14    11    13   am
    15    13    14    1
    16    14    15    1
    17    15    16    1
    18    16    17   ar
    19    17    18   ar
    20    18    19   ar
    21    19    20   ar
    22    20    21    1
    23    21    22    1
    24    22    23    1
    25    23    24    1
    26    23    25    1
    27    25    26    1
    28    26    28    1
    29    21    28    1
    30    20    29   ar
    31    29    30   ar
    32    30    31   ar
    33    31    32   ar
    34    19    32   ar
    35    16    32   ar
    36    26    27    1
    37     1    33    1
    38     1    34    1
    39     1    35    1
    40     3    36    1
    41     5    37    1
    42     6    38    1
    43     7    39    1
    44     8    40    1
    45    13    41    1
    46    14    42    1
    47    14    43    1
    48    15    44    1
    49    15    45    1
    50    18    46    1
    51    22    47    1
    52    22    48    1
    53    23    49    1
    54    24    50    1
    55    24    51    1
    56    24    52    1
    57    26    53    1
    58    27    54    1
    59    27    55    1
    60    27    56    1
    61    28    57    1
    62    28    58    1
    63    30    59    1
