@<TRIPOS>MOLECULE
*****
 52 55 0 0 0
SMALL
GASTEIGER

@<TRIPOS>ATOM
      1 C          -2.2588    0.0388   -0.0961 C.3     1  UNL1        0.0040
      2 N          -0.8583   -0.0038    0.1616 N.pl3   1  UNL1       -0.2948
      3 C          -0.0482    1.1919    0.0549 C.3     1  UNL1        0.0931
      4 N           1.2855    0.6796   -0.1023 N.pl3   1  UNL1       -0.2492
      5 N           1.3024   -0.6794   -0.0472 N.2     1  UNL1       -0.1630
      6 C           0.0343   -1.0483    0.0650 C.2     1  UNL1        0.1748
      7 S          -0.3169   -2.7393    0.1110 S.3     1  UNL1       -0.0842
      8 C          -2.1169   -2.9716    0.1622 C.3     1  UNL1        0.0260
      9 C          -2.5561   -4.4310    0.2041 C.ar    1  UNL1       -0.0371
     10 C          -3.7994   -4.8124    0.7284 C.ar    1  UNL1       -0.0571
     11 C          -4.1248   -6.1920    0.8731 C.ar    1  UNL1       -0.0493
     12 C          -3.2689   -7.2289    0.4001 C.ar    1  UNL1        0.0382
     13 C          -3.6823   -8.7283    0.4282 C.2     1  UNL1        0.2601
     14 O          -4.7802   -9.0055    0.9124 O.2     1  UNL1       -0.2687
     15 N          -2.8122   -9.7329   -0.1314 N.am    1  UNL1       -0.2304
     16 N          -3.2348  -11.2536   -0.2874 N.am    1  UNL1       -0.2339
     17 C          -2.3773  -12.2851   -0.9531 C.2     1  UNL1        0.2335
     18 O          -1.2469  -11.9364   -1.3117 O.2     1  UNL1       -0.2739
     19 C          -3.0372  -13.9398   -1.1699 C.3     1  UNL1        0.0525
     20 C          -2.2286  -15.5004   -1.7191 C.ar    1  UNL1       -0.0136
     21 C          -1.5864  -15.9057   -0.5807 C.ar    1  UNL1        0.0064
     22 N          -0.5131  -16.2652   -1.3227 N.ar    1  UNL1       -0.3604
     23 C          -0.9476  -17.4559   -1.8205 C.ar    1  UNL1        0.0467
     24 C          -0.0306  -18.5888   -1.7537 C.ar    1  UNL1       -0.0378
     25 C          -0.3227  -19.8771   -2.0719 C.ar    1  UNL1       -0.0598
     26 C          -1.6061  -19.9807   -2.4823 C.ar    1  UNL1       -0.0611
     27 C          -2.4734  -18.7221   -2.5959 C.ar    1  UNL1       -0.0523
     28 C          -2.4153  -17.1955   -2.2169 C.ar    1  UNL1        0.0033
     29 C          -2.0606   -6.8142   -0.1546 C.ar    1  UNL1       -0.0493
     30 C          -1.7285   -5.4535   -0.2721 C.ar    1  UNL1       -0.0571
     31 H          -2.6551    1.0540   -0.0314 H       1  UNL1        0.0429
     32 H          -2.7908   -0.5332    0.6645 H       1  UNL1        0.0429
     33 H          -2.4894   -0.3568   -1.0901 H       1  UNL1        0.0429
     34 H          -0.1536    1.7854    0.9683 H       1  UNL1        0.0684
     35 H          -0.3261    1.8005   -0.8113 H       1  UNL1        0.0684
     36 H           2.1248    1.2428   -0.0657 H       1  UNL1        0.1699
     37 H          -2.5904   -2.5075   -0.7088 H       1  UNL1        0.0429
     38 H          -2.4791   -2.5036    1.0830 H       1  UNL1        0.0429
     39 H          -4.5209   -4.0497    1.0358 H       1  UNL1        0.0621
     40 H          -5.0609   -6.4329    1.3792 H       1  UNL1        0.0625
     41 H          -1.9202   -9.4978   -0.5526 H       1  UNL1        0.1731
     42 H          -4.1205  -11.4265    0.1851 H       1  UNL1        0.1728
     43 H          -4.0565  -13.8611   -1.5249 H       1  UNL1        0.0408
     44 H          -3.0619  -14.1671   -0.0819 H       1  UNL1        0.0408
     45 H          -2.1585  -16.5708    0.0797 H       1  UNL1        0.0810
     46 H           0.0198  -15.6885   -1.9575 H       1  UNL1        0.1653
     47 H           0.9470  -18.3999   -1.3077 H       1  UNL1        0.0638
     48 H           0.4064  -20.6849   -1.9685 H       1  UNL1        0.0618
     49 H          -1.9485  -21.0065   -2.6939 H       1  UNL1        0.0618
     50 H          -3.4439  -19.0790   -3.0083 H       1  UNL1        0.0624
     51 H          -1.3189   -7.5174   -0.5041 H       1  UNL1        0.0625
     52 H          -0.7758   -5.2086   -0.7375 H       1  UNL1        0.0621
@<TRIPOS>BOND
     1     1     2    1
     2     2     3    1
     3     3     4    1
     4     4     5    1
     5     5     6    2
     6     2     6    1
     7     6     7    1
     8     7     8    1
     9     8     9    1
    10     9    10   ar
    11    10    11   ar
    12    11    12   ar
    13    12    13    1
    14    13    14    2
    15    13    15   am
    16    15    16    1
    17    16    17   am
    18    17    18    2
    19    17    19    1
    20    19    20    1
    21    20    21   ar
    22    21    22   ar
    23    22    23   ar
    24    23    24   ar
    25    24    25   ar
    26    25    26   ar
    27    26    27   ar
    28    27    28   ar
    29    20    28   ar
    30    23    28   ar
    31    12    29   ar
    32    29    30   ar
    33     9    30   ar
    34     1    31    1
    35     1    32    1
    36     1    33    1
    37     3    34    1
    38     3    35    1
    39     4    36    1
    40     8    37    1
    41     8    38    1
    42    10    39    1
    43    11    40    1
    44    15    41    1
    45    16    42    1
    46    19    43    1
    47    19    44    1
    48    21    45    1
    49    22    46    1
    50    24    47    1
    51    25    48    1
    52    26    49    1
    53    27    50    1
    54    29    51    1
    55    30    52    1
