@<TRIPOS>MOLECULE
*****
 34 35 0 0 0
SMALL
GASTEIGER

@<TRIPOS>ATOM
      1 C           2.4910    1.1853   -0.0007 C.3     1  UNL1       -0.0396
      2 C           1.2490    0.3411    0.0043 C.ar    1  UNL1       -0.0470
      3 C           1.3019   -1.0546    0.0185 C.ar    1  UNL1       -0.0579
      4 C           0.1224   -1.8198    0.0004 C.ar    1  UNL1       -0.0458
      5 C          -1.1423   -1.2091   -0.0213 C.ar    1  UNL1        0.0795
      6 C          -2.4161   -2.0153   -0.0593 C.2     1  UNL1        0.2637
      7 O          -3.5021   -1.4249   -0.0711 O.2     1  UNL1       -0.2685
      8 N          -2.3257   -3.4017   -0.0838 N.am    1  UNL1       -0.2303
      9 N          -3.4927   -4.1988   -0.1302 N.am    1  UNL1       -0.2339
     10 C          -3.3576   -5.5883   -0.1387 C.2     1  UNL1        0.2322
     11 O          -2.2364   -6.1094   -0.1265 O.2     1  UNL1       -0.2740
     12 C          -4.7111   -6.3749   -0.1525 C.3     1  UNL1        0.0370
     13 C          -4.7388   -7.8602    0.3383 C.3     1  UNL1       -0.0419
     14 C          -6.1018   -7.5612    0.9966 C.3     1  UNL1       -0.0517
     15 C          -5.6764   -6.0847    1.0319 C.3     1  UNL1       -0.0419
     16 C          -1.1803    0.1996   -0.0122 C.ar    1  UNL1        0.1292
     17 O          -2.3376    0.9360   -0.0048 O.3     1  UNL1       -0.5060
     18 C          -0.0036    0.9603   -0.0069 C.ar    1  UNL1       -0.0165
     19 H           3.4013    0.5770    0.0031 H       1  UNL1        0.0278
     20 H           2.5124    1.8298    0.8846 H       1  UNL1        0.0278
     21 H           2.5131    1.8152   -0.8968 H       1  UNL1        0.0278
     22 H           2.2626   -1.5667    0.0407 H       1  UNL1        0.0620
     23 H           0.2382   -2.8973    0.0035 H       1  UNL1        0.0626
     24 H          -1.4579   -3.9313   -0.0747 H       1  UNL1        0.1731
     25 H          -4.3873   -3.7131   -0.1388 H       1  UNL1        0.1728
     26 H          -5.1985   -6.2945   -1.1367 H       1  UNL1        0.0395
     27 H          -3.9591   -8.1202    1.0631 H       1  UNL1        0.0272
     28 H          -4.7671   -8.6350   -0.4348 H       1  UNL1        0.0272
     29 H          -6.2668   -8.0233    1.9745 H       1  UNL1        0.0266
     30 H          -6.9728   -7.7643    0.3624 H       1  UNL1        0.0266
     31 H          -5.1547   -5.8144    1.9574 H       1  UNL1        0.0272
     32 H          -6.4608   -5.3497    0.8389 H       1  UNL1        0.0272
     33 H          -3.0975    0.3160   -0.0005 H       1  UNL1        0.2922
     34 H          -0.0683    2.0473   -0.0121 H       1  UNL1        0.0657
@<TRIPOS>BOND
     1     1     2    1
     2     2     3   ar
     3     3     4   ar
     4     4     5   ar
     5     5     6    1
     6     6     7    2
     7     6     8   am
     8     8     9    1
     9     9    10   am
    10    10    11    2
    11    10    12    1
    12    12    13    1
    13    13    14    1
    14    14    15    1
    15    12    15    1
    16     5    16   ar
    17    16    17    1
    18    16    18   ar
    19     2    18   ar
    20     1    19    1
    21     1    20    1
    22     1    21    1
    23     3    22    1
    24     4    23    1
    25     8    24    1
    26     9    25    1
    27    12    26    1
    28    13    27    1
    29    13    28    1
    30    14    29    1
    31    14    30    1
    32    15    31    1
    33    15    32    1
    34    17    33    1
    35    18    34    1
