@<TRIPOS>MOLECULE
*****
 38 39 0 0 0
SMALL
GASTEIGER

@<TRIPOS>ATOM
      1 C           2.5093    1.2133   -0.0002 C.3     1  UNL1       -0.0396
      2 C           1.2723    0.3715    0.0043 C.ar    1  UNL1       -0.0470
      3 C           1.3596   -1.0179    0.0185 C.ar    1  UNL1       -0.0579
      4 C           0.2053   -1.7897   -0.0042 C.ar    1  UNL1       -0.0458
      5 C          -1.0628   -1.1974   -0.0353 C.ar    1  UNL1        0.0795
      6 C          -2.2592   -2.0732   -0.0641 C.2     1  UNL1        0.2637
      7 O          -3.3874   -1.5577   -0.0285 O.2     1  UNL1       -0.2685
      8 N          -2.0558   -3.4570   -0.0999 N.am    1  UNL1       -0.2303
      9 N          -3.1612   -4.2488    0.1183 N.am    1  UNL1       -0.2339
     10 C          -3.2235   -5.6244   -0.1051 C.2     1  UNL1        0.2325
     11 O          -2.2153   -6.3155   -0.2474 O.2     1  UNL1       -0.2740
     12 C          -4.6799   -6.2242   -0.1752 C.3     1  UNL1        0.0407
     13 C          -5.6889   -5.1434    0.2582 C.3     1  UNL1       -0.0236
     14 C          -5.7570   -4.0700   -0.8310 C.2     1  UNL1       -0.0872
     15 C          -5.2783   -4.2719   -2.0780 C.2     1  UNL1       -0.0879
     16 C          -4.8579   -5.6185   -2.6083 C.3     1  UNL1       -0.0341
     17 C          -5.1289   -6.7040   -1.5746 C.3     1  UNL1       -0.0382
     18 C          -1.1514    0.2055   -0.0191 C.ar    1  UNL1        0.1292
     19 O          -2.3251    0.9132   -0.0094 O.3     1  UNL1       -0.5060
     20 C           0.0110    0.9798   -0.0082 C.ar    1  UNL1       -0.0165
     21 H           3.4145    0.5969    0.0034 H       1  UNL1        0.0278
     22 H           2.5279    1.8509    0.8880 H       1  UNL1        0.0278
     23 H           2.5284    1.8360   -0.8995 H       1  UNL1        0.0278
     24 H           2.3200   -1.5263    0.0430 H       1  UNL1        0.0620
     25 H           0.3446   -2.8616    0.0061 H       1  UNL1        0.0626
     26 H          -1.1699   -3.9453   -0.0930 H       1  UNL1        0.1731
     27 H          -3.9786   -3.6680    0.2577 H       1  UNL1        0.1728
     28 H          -4.7261   -7.0765    0.5152 H       1  UNL1        0.0398
     29 H          -5.3285   -4.7188    1.2075 H       1  UNL1        0.0315
     30 H          -6.6821   -5.5390    0.4814 H       1  UNL1        0.0315
     31 H          -5.9328   -3.0445   -0.5063 H       1  UNL1        0.0569
     32 H          -5.0850   -3.4197   -2.7264 H       1  UNL1        0.0569
     33 H          -3.7884   -5.6222   -2.8527 H       1  UNL1        0.0308
     34 H          -5.3981   -5.8275   -3.5384 H       1  UNL1        0.0308
     35 H          -4.6651   -7.6503   -1.8712 H       1  UNL1        0.0276
     36 H          -6.2154   -6.8991   -1.5600 H       1  UNL1        0.0276
     37 H          -3.0746    0.2822   -0.0003 H       1  UNL1        0.2922
     38 H          -0.0655    2.0655   -0.0106 H       1  UNL1        0.0657
@<TRIPOS>BOND
     1     1     2    1
     2     2     3   ar
     3     3     4   ar
     4     4     5   ar
     5     5     6    1
     6     6     7    2
     7     6     8   am
     8     8     9    1
     9     9    10   am
    10    10    11    2
    11    10    12    1
    12    12    13    1
    13    13    14    1
    14    14    15    2
    15    15    16    1
    16    16    17    1
    17    12    17    1
    18     5    18   ar
    19    18    19    1
    20    18    20   ar
    21     2    20   ar
    22     1    21    1
    23     1    22    1
    24     1    23    1
    25     3    24    1
    26     4    25    1
    27     8    26    1
    28     9    27    1
    29    12    28    1
    30    13    29    1
    31    13    30    1
    32    14    31    1
    33    15    32    1
    34    16    33    1
    35    16    34    1
    36    17    35    1
    37    17    36    1
    38    19    37    1
    39    20    38    1
