REMARK  6 active torsions:
REMARK  status: ('A' for Active; 'I' for Inactive)
REMARK    1  A    between atoms: C_2  and  C_17 
REMARK    2  A    between atoms: C_2  and  N_3 
REMARK    3  A    between atoms: C_4  and  N_3 
REMARK    4  A    between atoms: C_4  and  C_6 
REMARK       I    between atoms: C_6  and  N_8 
REMARK    5  A    between atoms: N_8  and  C_9 
REMARK    6  A    between atoms: C_14  and  C_15 
ROOT
ATOM      1  N   UNL d   1       1.104  -3.784   1.026  0.00  0.00     0.105 N 
ATOM      2  H   UNL d   1       0.522  -3.705   0.192  0.00  0.00     0.317 HD
ENDROOT
BRANCH   1   3
ATOM      3  C   UNL d   1       1.232  -5.245   1.381  0.00  0.00     0.308 C 
ATOM      4  C   UNL d   1       1.926  -6.110   0.377  0.00  0.00     0.053 C 
BRANCH   3   5
ATOM      5  C   UNL d   1      -0.142  -5.968   1.361  0.00  0.00     0.255 C 
ATOM      6  O   UNL d   1      -0.520  -6.912   0.696  0.00  0.00    -0.271 OA
ATOM      7  N   UNL d   1      -0.863  -5.337   2.258  0.00  0.00    -0.324 N 
ATOM      8  H   UNL d   1      -0.295  -4.557   2.464  0.00  0.00     0.169 HD
BRANCH   7   9
ATOM      9  C   UNL d   1      -2.080  -5.541   2.951  0.00  0.00     0.052 C 
ATOM     10  C   UNL d   1      -3.267  -4.295   4.056  0.00  0.00     0.014 C 
ATOM     11  C   UNL d   1      -5.000  -4.814   4.291  0.00  0.00     0.044 C 
ATOM     12  C   UNL d   1      -5.415  -6.471   3.818  0.00  0.00    -0.016 C 
ATOM     13  C   UNL d   1      -4.273  -7.596   3.046  0.00  0.00     0.021 C 
ATOM     14  C   UNL d   1      -2.648  -7.178   2.583  0.00  0.00     0.070 C 
BRANCH  14  15
ATOM     15  C   UNL d   1      -1.575  -8.139   2.776  0.00  0.00     0.101 C 
ATOM     16  N   UNL d   1      -0.614  -8.726   3.070  0.00  0.00    -0.191 NA
ENDBRANCH  14  15
ENDBRANCH   7   9
ENDBRANCH   3   5
ENDBRANCH   1   3
BRANCH   1  17
ATOM     17  C   UNL d   1       0.680  -2.774   2.061  0.00  0.00     0.251 C 
ATOM     18  C   UNL d   1       1.278  -1.422   1.768  0.00  0.00     0.048 C 
BRANCH  17  19
ATOM     19  C   UNL d   1      -0.838  -2.528   2.162  0.00  0.00    -0.018 C 
ATOM     20  C   UNL d   1      -1.569  -1.696   1.302  0.00  0.00     0.010 C 
ATOM     21  C   UNL d   1      -2.976  -1.714   1.156  0.00  0.00     0.002 C 
ATOM     22  C   UNL d   1      -3.728  -2.813   1.474  0.00  0.00     0.012 C 
ATOM     23  C   UNL d   1      -3.068  -3.825   2.079  0.00  0.00    -0.029 C 
ATOM     24  C   UNL d   1      -3.905  -5.340   2.604  0.00  0.00     0.008 C 
ATOM     25  C   UNL d   1      -1.595  -3.338   2.966  0.00  0.00    -0.034 C 
ATOM     26  C   UNL d   1      -3.258  -6.158   4.341  0.00  0.00    -0.020 C 
ATOM     27  C   UNL d   1      -1.750  -5.664   5.074  0.00  0.00     0.026 C 
ATOM     28  C   UNL d   1      -0.970  -4.286   4.396  0.00  0.00     0.037 C 
ENDBRANCH  17  19
ENDBRANCH   1  17
TORSDOF 6
