REMARK  12 active torsions:
REMARK  status: ('A' for Active; 'I' for Inactive)
REMARK    1  A    between atoms: C_2  and  C_3 
REMARK    2  A    between atoms: C_3  and  C_4 
REMARK    3  A    between atoms: C_4  and  C_5 
REMARK    4  A    between atoms: C_5  and  C_6 
REMARK       I    between atoms: C_6  and  N_8 
REMARK    5  A    between atoms: N_8  and  C_9 
REMARK    6  A    between atoms: C_13  and  N_14 
REMARK    7  A    between atoms: N_14  and  C_15 
REMARK    8  A    between atoms: C_15  and  C_16 
REMARK       I    between atoms: C_16  and  N_18 
REMARK    9  A    between atoms: N_18  and  C_19 
REMARK   10  A    between atoms: C_23  and  C_24 
REMARK       I    between atoms: C_24  and  N_26 
REMARK   11  A    between atoms: N_26  and  C_27 
REMARK   12  A    between atoms: N_26  and  C_29 
ROOT
ATOM      1  C   UNL d   1      11.552  -3.360   2.429  0.00  0.00     0.239 C 
ATOM      2  O   UNL d   1      12.735  -3.670   2.205  0.00  0.00    -0.271 OA
ATOM      3  N   UNL d   1      10.976  -3.293   3.731  0.00  0.00    -0.326 N 
ATOM      4  H   UNL d   1       9.981  -3.099   3.800  0.00  0.00     0.169 HD
ENDROOT
BRANCH   1   5
ATOM      5  C   UNL d   1      10.634  -3.119   1.206  0.00  0.00     0.223 C 
BRANCH   5   6
ATOM      6  N   UNL d   1      11.384  -3.190  -0.082  0.00  0.00    -0.381 N 
ATOM      7  H   UNL d   1      12.368  -3.442  -0.012  0.00  0.00     0.160 HD
BRANCH   6   8
ATOM      8  C   UNL d   1      10.743  -3.321  -1.308  0.00  0.00     0.030 A 
ATOM      9  C   UNL d   1      11.442  -3.553  -2.499  0.00  0.00     0.029 A 
ATOM     10  C   UNL d   1      10.764  -3.689  -3.727  0.00  0.00     0.004 A 
ATOM     11  C   UNL d   1       9.372  -3.550  -3.792  0.00  0.00     0.029 A 
ATOM     12  C   UNL d   1       8.663  -3.286  -2.624  0.00  0.00     0.036 A 
ATOM     13  C   UNL d   1       9.360  -3.171  -1.416  0.00  0.00     0.058 A 
BRANCH  12  14
ATOM     14  N   UNL d   1       7.252  -3.181  -2.627  0.00  0.00    -0.327 N 
ATOM     15  C   UNL d   1       6.595  -2.268  -1.803  0.00  0.00     0.222 C 
ATOM     16  O   UNL d   1       7.158  -1.448  -1.101  0.00  0.00    -0.273 OA
ATOM     17  H   UNL d   1       6.739  -3.696  -3.328  0.00  0.00     0.169 HD
BRANCH  15  18
ATOM     18  C   UNL d   1       5.074  -2.336  -1.855  0.00  0.00     0.103 C 
BRANCH  18  19
ATOM     19  C   UNL d   1       4.502  -1.231  -0.956  0.00  0.00     0.009 C 
BRANCH  19  20
ATOM     20  C   UNL d   1       2.981  -1.212  -0.941  0.00  0.00     0.000 C 
BRANCH  20  21
ATOM     21  C   UNL d   1       2.462  -0.094  -0.036  0.00  0.00    -0.005 C 
ATOM     22  C   UNL d   1       0.944  -0.078  -0.023  0.00  0.00     0.005 C 
ENDBRANCH  20  21
ENDBRANCH  19  20
ENDBRANCH  18  19
ENDBRANCH  15  18
ENDBRANCH  12  14
ENDBRANCH   6   8
ENDBRANCH   5   6
ENDBRANCH   1   5
BRANCH   3  23
ATOM     23  C   UNL d   1      11.726  -3.252   4.983  0.00  0.00     0.035 C 
ATOM     24  C   UNL d   1      11.365  -3.692   6.228  0.00  0.00     0.029 C 
ATOM     25  C   UNL d   1      12.271  -3.466   7.311  0.00  0.00     0.003 C 
ATOM     26  C   UNL d   1      13.485  -2.711   7.175  0.00  0.00     0.017 C 
ATOM     27  C   UNL d   1      13.851  -2.193   5.939  0.00  0.00     0.034 C 
ATOM     28  C   UNL d   1      12.981  -2.662   4.961  0.00  0.00     0.046 C 
BRANCH  27  29
ATOM     29  C   UNL d   1      15.101  -1.254   5.738  0.00  0.00     0.258 C 
ATOM     30  O   UNL d   1      15.789  -1.174   6.770  0.00  0.00    -0.267 OA
ATOM     31  N   UNL d   1      15.446  -0.411   4.586  0.00  0.00    -0.314 N 
BRANCH  31  32
ATOM     32  C   UNL d   1      14.883  -0.281   3.198  0.00  0.00     0.128 C 
ATOM     33  C   UNL d   1      13.657  -1.008   2.988  0.00  0.00     0.027 C 
ENDBRANCH  31  32
BRANCH  31  34
ATOM     34  C   UNL d   1      16.660   0.388   4.592  0.00  0.00     0.037 A 
ATOM     35  C   UNL d   1      16.676   1.616   3.886  0.00  0.00     0.029 A 
ATOM     36  C   UNL d   1      17.850   2.302   3.615  0.00  0.00     0.002 A 
ATOM     37  C   UNL d   1      19.037   1.821   4.139  0.00  0.00     0.000 A 
ATOM     38  C   UNL d   1      19.047   0.627   4.865  0.00  0.00     0.002 A 
ATOM     39  C   UNL d   1      17.868  -0.098   5.081  0.00  0.00     0.029 A 
ENDBRANCH  31  34
ENDBRANCH  27  29
ENDBRANCH   3  23
TORSDOF 12
