REMARK  7 active torsions:
REMARK  status: ('A' for Active; 'I' for Inactive)
REMARK    1  A    between atoms: C_2  and  C_3 
REMARK       I    between atoms: C_2  and  N_14 
REMARK    2  A    between atoms: C_3  and  N_4 
REMARK       I    between atoms: N_4  and  C_5 
REMARK       I    between atoms: C_5  and  N_7 
REMARK    3  A    between atoms: N_7  and  C_8 
REMARK    4  A    between atoms: C_8  and  C_9 
REMARK    5  A    between atoms: N_14  and  N_15 
REMARK    6  A    between atoms: C_16  and  C_17 
REMARK    7  A    between atoms: C_22  and  O_23 
ROOT
ATOM      1  O   UNL d   1       1.045  -0.073  -0.041  0.00  0.00    -0.270 OA
ATOM      2  C   UNL d   1       2.279  -0.027  -0.100  0.00  0.00     0.255 C 
ATOM      3  N   UNL d   1       3.045  -0.887   0.678  0.00  0.00    -0.246 N 
ATOM      4  H   UNL d   1       2.546  -1.515   1.301  0.00  0.00     0.192 HD
ENDROOT
BRANCH   2   5
ATOM      5  C   UNL d   1       3.011   0.968  -1.029  0.00  0.00     0.228 C 
BRANCH   5   6
ATOM      6  N   UNL d   1       2.119   1.832  -1.839  0.00  0.00    -0.334 N 
ATOM      7  C   UNL d   1       2.623   2.771  -2.706  0.00  0.00     0.316 C 
ATOM      8  O   UNL d   1       3.831   2.939  -2.871  0.00  0.00    -0.247 OA
ATOM      9  N   UNL d   1       1.683   3.506  -3.385  0.00  0.00    -0.337 N 
ATOM     10  H   UNL d   1       0.701   3.363  -3.209  0.00  0.00     0.164 HD
ATOM     11  H   UNL d   1       1.123   1.711  -1.711  0.00  0.00     0.164 HD
BRANCH   9  12
ATOM     12  C   UNL d   1       2.082   4.550  -4.336  0.00  0.00     0.189 C 
BRANCH  12  13
ATOM     13  C   UNL d   1       0.897   5.154  -5.020  0.00  0.00     0.070 A 
ATOM     14  C   UNL d   1      -0.202   4.596  -5.642  0.00  0.00     0.036 A 
ATOM     15  C   UNL d   1      -0.973   5.661  -6.162  0.00  0.00     0.027 A 
ATOM     16  C   UNL d   1      -0.290   6.813  -5.851  0.00  0.00     0.142 A 
ATOM     17  O   UNL d   1       0.848   6.519  -5.160  0.00  0.00    -0.325 OA
ENDBRANCH  12  13
ENDBRANCH   9  12
ENDBRANCH   5   6
ENDBRANCH   2   5
BRANCH   3  18
ATOM     18  N   UNL d   1       4.409  -0.877   0.665  0.00  0.00    -0.184 NA
ATOM     19  C   UNL d   1       5.030  -1.717   1.441  0.00  0.00     0.152 C 
BRANCH  19  20
ATOM     20  C   UNL d   1       6.517  -1.739   1.516  0.00  0.00     0.016 A 
ATOM     21  C   UNL d   1       7.208  -2.961   1.518  0.00  0.00     0.016 A 
ATOM     22  C   UNL d   1       8.611  -2.973   1.546  0.00  0.00     0.001 A 
ATOM     23  C   UNL d   1       9.322  -1.772   1.600  0.00  0.00     0.003 A 
ATOM     24  C   UNL d   1       8.636  -0.556   1.630  0.00  0.00     0.037 A 
ATOM     25  C   UNL d   1       7.240  -0.543   1.591  0.00  0.00     0.077 A 
BRANCH  25  26
ATOM     26  O   UNL d   1       6.568   0.643   1.682  0.00  0.00    -0.360 OA
ATOM     27  H   UNL d   1       7.184   1.386   1.592  0.00  0.00     0.217 HD
ENDBRANCH  25  26
ENDBRANCH  19  20
ENDBRANCH   3  18
TORSDOF 7
