REMARK  6 active torsions:
REMARK  status: ('A' for Active; 'I' for Inactive)
REMARK    1  A    between atoms: C_3  and  C_20 
REMARK    2  A    between atoms: C_4  and  C_5 
REMARK    3  A    between atoms: C_8  and  C_9 
REMARK    4  A    between atoms: C_11  and  N_12 
REMARK       I    between atoms: C_20  and  N_22 
REMARK    5  A    between atoms: N_22  and  C_23 
REMARK    6  A    between atoms: C_25  and  C_26 
ROOT
ATOM      1  N   UNL d   1       0.928  -0.065  -0.024  0.00  0.00    -0.096 N 
ATOM      2  C   UNL d   1       2.189  -0.065  -0.024  0.00  0.00     0.025 C 
ATOM      3  C   UNL d   1       3.709  -0.065  -0.024  0.00  0.00     0.101 C 
ATOM      4  C   UNL d   1       4.342   0.449  -1.109  0.00  0.00     0.064 C 
ENDROOT
BRANCH   3   5
ATOM      5  C   UNL d   1       4.419  -0.652   1.170  0.00  0.00     0.265 C 
ATOM      6  O   UNL d   1       3.735  -0.977   2.143  0.00  0.00    -0.267 OA
ATOM      7  N   UNL d   1       5.815  -0.710   1.170  0.00  0.00    -0.321 N 
ATOM      8  H   UNL d   1       6.343  -0.141   0.522  0.00  0.00     0.169 HD
BRANCH   7   9
ATOM      9  C   UNL d   1       6.580  -1.323   2.218  0.00  0.00     0.057 A 
ATOM     10  C   UNL d   1       7.766  -0.685   2.649  0.00  0.00     0.047 A 
ATOM     11  C   UNL d   1       8.561  -1.227   3.691  0.00  0.00     0.050 A 
ATOM     12  C   UNL d   1       8.173  -2.435   4.281  0.00  0.00     0.018 A 
ATOM     13  C   UNL d   1       7.030  -3.095   3.837  0.00  0.00     0.027 A 
ATOM     14  C   UNL d   1       6.245  -2.559   2.808  0.00  0.00     0.060 A 
ATOM     15 CL   UNL d   1       5.009  -3.607   2.196  0.00  0.00    -0.082 Cl
BRANCH  11  16
ATOM     16  C   UNL d   1       9.811  -0.526   4.182  0.00  0.00     0.417 C 
ATOM     17  F   UNL d   1      10.728  -0.346   3.193  0.00  0.00    -0.166 F 
ATOM     18  F   UNL d   1       9.553   0.711   4.686  0.00  0.00    -0.166 F 
ATOM     19  F   UNL d   1      10.462  -1.202   5.172  0.00  0.00    -0.166 F 
ENDBRANCH  11  16
ENDBRANCH   7   9
ENDBRANCH   3   5
BRANCH   4  20
ATOM     20  C   UNL d   1       3.614   1.040  -2.199  0.00  0.00     0.077 A 
ATOM     21  C   UNL d   1       2.575   1.965  -2.133  0.00  0.00     0.040 A 
ATOM     22  C   UNL d   1       2.074   2.159  -3.429  0.00  0.00     0.041 A 
ATOM     23  C   UNL d   1       2.882   1.435  -4.273  0.00  0.00     0.088 A 
ATOM     24  O   UNL d   1       3.827   0.759  -3.546  0.00  0.00    -0.310 OA
BRANCH  23  25
ATOM     25  C   UNL d   1       2.872   1.334  -5.732  0.00  0.00     0.022 A 
ATOM     26  C   UNL d   1       2.643   0.099  -6.368  0.00  0.00     0.052 A 
ATOM     27  C   UNL d   1       2.459   0.049  -7.766  0.00  0.00     0.103 A 
ATOM     28  C   UNL d   1       2.490   1.217  -8.538  0.00  0.00     0.038 A 
ATOM     29  C   UNL d   1       2.724   2.440  -7.914  0.00  0.00     0.027 A 
ATOM     30  C   UNL d   1       2.921   2.500  -6.529  0.00  0.00     0.047 A 
ATOM     31 CL   UNL d   1       3.215   4.073  -5.862  0.00  0.00    -0.083 Cl
BRANCH  27  32
ATOM     32  N   UNL d   1       2.211  -1.239  -8.435  0.00  0.00    -0.116 N 
ATOM     33  O   UNL d   1       2.169  -2.255  -7.734  0.00  0.00    -0.532 OA
ATOM     34  O   UNL d   1       2.065  -1.226  -9.668  0.00  0.00    -0.532 OA
ENDBRANCH  27  32
ENDBRANCH  23  25
ENDBRANCH   4  20
TORSDOF 6
