@<TRIPOS>MOLECULE
*****
 29 30 0 0 0
SMALL
GASTEIGER

@<TRIPOS>ATOM
      1 N           1.1855   -0.1430    0.0146 N.am    1  UNL1       -0.3131
      2 C           2.5328   -0.0611   -0.0724 C.2     1  UNL1        0.3013
      3 O           3.0202    0.6697   -0.9373 O.2     1  UNL1       -0.2527
      4 N           3.2210   -0.8482    0.8166 N.am    1  UNL1       -0.2696
      5 C           4.6308   -0.8423    0.9051 C.ar    1  UNL1        0.0350
      6 C           5.3582   -2.0062    1.1753 C.ar    1  UNL1       -0.0370
      7 C           6.7632   -1.9511    1.2919 C.ar    1  UNL1       -0.0176
      8 C           7.4467   -0.7429    1.0958 C.ar    1  UNL1        0.1288
      9 O           8.8290   -0.7897    1.0970 O.3     1  UNL1       -0.4500
     10 C           9.5409    0.3850    0.9669 C.ar    1  UNL1        0.2043
     11 C          10.4663    0.5143   -0.0725 C.ar    1  UNL1        0.2063
     12 F          10.5738   -0.4393   -1.0094 F       1  UNL1       -0.1984
     13 C          11.2722    1.6500   -0.1628 C.ar    1  UNL1        0.2001
     14 F          12.2379    1.7196   -1.0905 F       1  UNL1       -0.1992
     15 C          11.0969    2.7025    0.7256 C.ar    1  UNL1        0.1993
     16 F          11.8119    3.8280    0.5886 F       1  UNL1       -0.1993
     17 C          10.1758    2.5882    1.7548 C.ar    1  UNL1        0.2001
     18 F          10.0059    3.5961    2.6212 F       1  UNL1       -0.1992
     19 C           9.4329    1.4221    1.8986 C.ar    1  UNL1        0.2063
     20 F           8.5652    1.3288    2.9164 F       1  UNL1       -0.1984
     21 C           6.7037    0.4090    0.8510 C.ar    1  UNL1       -0.0176
     22 C           5.3176    0.3596    0.7650 C.ar    1  UNL1       -0.0370
     23 H           0.6723    0.4242   -0.6492 H       1  UNL1        0.1465
     24 H           0.6729   -0.6705    0.7008 H       1  UNL1        0.1465
     25 H           2.7142   -1.5595    1.3210 H       1  UNL1        0.1564
     26 H           4.8657   -2.9750    1.2193 H       1  UNL1        0.0637
     27 H           7.3197   -2.8600    1.5159 H       1  UNL1        0.0655
     28 H           7.1564    1.3835    0.7284 H       1  UNL1        0.0655
     29 H           4.7837    1.2914    0.6027 H       1  UNL1        0.0637
@<TRIPOS>BOND
     1     1     2   am
     2     2     3    2
     3     2     4   am
     4     4     5    1
     5     5     6   ar
     6     6     7   ar
     7     7     8   ar
     8     8     9    1
     9     9    10    1
    10    10    11   ar
    11    11    12    1
    12    11    13   ar
    13    13    14    1
    14    13    15   ar
    15    15    16    1
    16    15    17   ar
    17    17    18    1
    18    17    19   ar
    19    10    19   ar
    20    19    20    1
    21     8    21   ar
    22    21    22   ar
    23     5    22   ar
    24     1    23    1
    25     1    24    1
    26     4    25    1
    27     6    26    1
    28     7    27    1
    29    21    28    1
    30    22    29    1
