REMARK  7 active torsions:
REMARK  status: ('A' for Active; 'I' for Inactive)
REMARK    1  A    between atoms: O_2  and  C_3 
REMARK    2  A    between atoms: C_6  and  N_7 
REMARK       I    between atoms: N_7  and  C_8 
REMARK       I    between atoms: C_8  and  N_19 
REMARK       I    between atoms: N_9  and  C_10 
REMARK    3  A    between atoms: C_10  and  C_12 
REMARK    4  A    between atoms: N_19  and  C_20 
REMARK    5  A    between atoms: C_20  and  C_21 
REMARK    6  A    between atoms: C_21  and  C_22 
REMARK    7  A    between atoms: C_32  and  O_33 
ROOT
ATOM      1  N   UNL d   1       5.508  -4.279   1.427  0.00  0.00    -0.190 N 
ATOM      2  C   UNL d   1       5.085  -5.611   1.201  0.00  0.00     0.704 C 
ATOM      3  N   UNL d   1       4.037  -6.064   0.571  0.00  0.00    -0.023 NA
ATOM      4  C   UNL d   1       2.911  -5.276   0.596  0.00  0.00     0.294 C 
ATOM      5  O   UNL d   1       2.561  -4.676   1.586  0.00  0.00    -0.265 OA
ATOM      6  N   UNL d   1       5.897  -6.638   1.720  0.00  0.00    -0.224 N 
ATOM      7  H   UNL d   1       6.190  -4.141   2.159  0.00  0.00     0.184 HD
ATOM      8  H   UNL d   1       6.577  -6.433   2.443  0.00  0.00     0.177 HD
ENDROOT
BRANCH   1   9
ATOM      9  C   UNL d   1       4.877  -3.044   1.015  0.00  0.00     0.052 C 
ATOM     10  C   UNL d   1       5.106  -1.800   1.579  0.00  0.00     0.033 C 
ATOM     11  C   UNL d   1       4.226  -0.691   1.306  0.00  0.00     0.042 C 
ATOM     12  C   UNL d   1       3.030  -0.803   0.562  0.00  0.00     0.101 C 
ATOM     13  C   UNL d   1       2.819  -2.041   0.018  0.00  0.00     0.103 C 
ATOM     14  C   UNL d   1       3.901  -2.973   0.030  0.00  0.00     0.069 C 
BRANCH  12  15
ATOM     15  O   UNL d   1       2.442   0.371   0.167  0.00  0.00    -0.353 OA
ATOM     16  C   UNL d   1       1.042   0.615   0.245  0.00  0.00     0.210 C 
ENDBRANCH  12  15
BRANCH  13  17
ATOM     17  O   UNL d   1       1.674  -2.614  -0.436  0.00  0.00    -0.353 OA
ATOM     18  C   UNL d   1       0.561  -1.886  -0.859  0.00  0.00     0.210 C 
ENDBRANCH  13  17
ENDBRANCH   1   9
BRANCH   6  19
ATOM     19  C   UNL d   1       5.418  -8.050   1.639  0.00  0.00     0.142 C 
BRANCH  19  20
ATOM     20  C   UNL d   1       6.349  -9.077   2.275  0.00  0.00     0.057 C 
BRANCH  20  21
ATOM     21  C   UNL d   1       6.019 -10.546   2.114  0.00  0.00    -0.048 A 
ATOM     22  C   UNL d   1       6.866 -11.471   2.571  0.00  0.00    -0.006 A 
ATOM     23  C   UNL d   1       8.116 -11.325   3.226  0.00  0.00     0.014 A 
ATOM     24  C   UNL d   1       6.315 -12.785   2.219  0.00  0.00     0.038 A 
ATOM     25  C   UNL d   1       8.867 -12.414   3.407  0.00  0.00     0.001 A 
ATOM     26  C   UNL d   1       8.359 -13.739   3.094  0.00  0.00     0.002 A 
ATOM     27  C   UNL d   1       7.148 -13.969   2.539  0.00  0.00     0.030 A 
ATOM     28  N   UNL d   1       5.171 -12.670   1.658  0.00  0.00    -0.385 N 
ATOM     29  C   UNL d   1       4.844 -11.216   1.446  0.00  0.00     0.155 A 
ATOM     30  H   UNL d   1       4.600 -13.480   1.410  0.00  0.00     0.160 HD
ENDBRANCH  20  21
ENDBRANCH  19  20
ENDBRANCH   6  19
BRANCH   4  31
ATOM     31  C   UNL d   1       1.896  -5.508  -0.498  0.00  0.00     0.040 C 
ATOM     32  C   UNL d   1       1.704  -4.786  -1.701  0.00  0.00     0.017 C 
ATOM     33  C   UNL d   1       0.437  -4.764  -2.305  0.00  0.00     0.001 C 
ATOM     34  C   UNL d   1      -0.571  -5.576  -1.807  0.00  0.00     0.001 C 
ATOM     35  C   UNL d   1      -0.333  -6.379  -0.691  0.00  0.00     0.007 C 
ATOM     36  C   UNL d   1       0.889  -6.343  -0.027  0.00  0.00    -0.046 C 
ATOM     37  C   UNL d   1       1.172  -7.147   1.207  0.00  0.00     0.049 C 
ENDBRANCH   4  31
TORSDOF 7
