REMARK  8 active torsions:
REMARK  status: ('A' for Active; 'I' for Inactive)
REMARK    1  A    between atoms: O_2  and  C_3 
REMARK    2  A    between atoms: C_7  and  C_8 
REMARK    3  A    between atoms: C_8  and  C_9 
REMARK    4  A    between atoms: C_9  and  N_10 
REMARK       I    between atoms: N_10  and  C_11 
REMARK    5  A    between atoms: C_11  and  C_13 
REMARK    6  A    between atoms: C_13  and  S_14 
REMARK    7  A    between atoms: S_14  and  C_15 
REMARK    8  A    between atoms: N_19  and  C_20 
ROOT
ATOM      1  N   UNL d   1       4.560  -7.046   3.264  0.00  0.00    -0.360 N 
ATOM      2  C   UNL d   1       3.555  -7.819   2.708  0.00  0.00     0.227 C 
ATOM      3  O   UNL d   1       2.721  -7.318   1.945  0.00  0.00    -0.273 OA
ATOM      4  H   UNL d   1       5.234  -7.410   3.920  0.00  0.00     0.162 HD
ENDROOT
BRANCH   2   5
ATOM      5  C   UNL d   1       3.556  -9.307   3.093  0.00  0.00     0.180 C 
BRANCH   5   6
ATOM      6  S   UNL d   1       2.269 -10.156   2.098  0.00  0.00    -0.116 SA
BRANCH   6   7
ATOM      7  C   UNL d   1       2.191 -11.833   2.723  0.00  0.00     0.267 C 
ATOM      8  N   UNL d   1       3.286 -12.645   2.146  0.00  0.00    -0.105 NA
ATOM      9  N   UNL d   1       2.741 -13.990   2.097  0.00  0.00     0.072 N 
ATOM     10  H   UNL d   1       4.154 -12.519   2.663  0.00  0.00     0.158 HD
ATOM     11  N   UNL d   1       1.310 -13.865   1.952  0.00  0.00    -0.042 NA
ATOM     12  H   UNL d   1       2.966 -14.522   2.959  0.00  0.00     0.325 HD
ATOM     13  H   UNL d   1       3.137 -14.526   1.298  0.00  0.00     0.325 HD
ATOM     14  N   UNL d   1       0.956 -12.598   2.465  0.00  0.00    -0.259 N 
ATOM     15  H   UNL d   1       0.769 -14.622   2.392  0.00  0.00     0.181 HD
BRANCH  14  16
ATOM     16  C   UNL d   1      -0.357 -12.134   2.355  0.00  0.00     0.050 A 
ATOM     17  C   UNL d   1      -0.732 -11.020   1.584  0.00  0.00     0.031 A 
ATOM     18  C   UNL d   1      -2.038 -10.511   1.577  0.00  0.00     0.003 A 
ATOM     19  C   UNL d   1      -3.029 -11.129   2.320  0.00  0.00     0.007 A 
ATOM     20  C   UNL d   1      -2.722 -12.269   3.063  0.00  0.00    -0.060 A 
ATOM     21  C   UNL d   1      -3.796 -12.925   3.883  0.00  0.00     0.048 C 
ATOM     22  C   UNL d   1      -1.399 -12.769   3.061  0.00  0.00     0.037 A 
ENDBRANCH  14  16
ENDBRANCH   6   7
ENDBRANCH   5   6
ENDBRANCH   2   5
BRANCH   1  23
ATOM     23  C   UNL d   1       4.590  -5.639   2.917  0.00  0.00     0.127 C 
BRANCH  23  24
ATOM     24  C   UNL d   1       5.692  -4.787   3.537  0.00  0.00     0.060 C 
BRANCH  24  25
ATOM     25  C   UNL d   1       5.654  -3.339   3.108  0.00  0.00    -0.029 A 
ATOM     26  C   UNL d   1       4.703  -2.685   2.245  0.00  0.00    -0.002 A 
ATOM     27  C   UNL d   1       3.554  -3.098   1.535  0.00  0.00     0.017 A 
ATOM     28  C   UNL d   1       5.070  -1.343   2.141  0.00  0.00     0.045 A 
ATOM     29  C   UNL d   1       2.797  -2.197   0.793  0.00  0.00     0.038 A 
ATOM     30  C   UNL d   1       3.178  -0.869   0.714  0.00  0.00     0.070 A 
ATOM     31  C   UNL d   1       4.337  -0.423   1.369  0.00  0.00     0.067 A 
ATOM     32  N   UNL d   1       6.205  -1.177   2.901  0.00  0.00    -0.365 N 
ATOM     33  C   UNL d   1       6.545  -2.359   3.511  0.00  0.00     0.096 A 
ATOM     34  H   UNL d   1       6.701  -0.302   3.010  0.00  0.00     0.165 HD
BRANCH  30  35
ATOM     35  O   UNL d   1       2.519   0.053  -0.053  0.00  0.00    -0.356 OA
ATOM     36  C   UNL d   1       1.097  -0.057  -0.042  0.00  0.00     0.210 C 
ENDBRANCH  30  35
ENDBRANCH  24  25
ENDBRANCH  23  24
ENDBRANCH   1  23
TORSDOF 8
