REMARK  5 active torsions:
REMARK  status: ('A' for Active; 'I' for Inactive)
REMARK    1  A    between atoms: C_2  and  C_3 
REMARK    2  A    between atoms: C_12  and  C_13 
REMARK       I    between atoms: C_13  and  N_15 
REMARK    3  A    between atoms: N_15  and  C_16 
REMARK    4  A    between atoms: C_19  and  S_20 
REMARK    5  A    between atoms: S_20  and  N_23 
ROOT
ATOM      1  C   UNL d   1       3.008   0.760   1.154  0.00  0.00    -0.031 A 
ATOM      2  C   UNL d   1       3.623   0.209   2.272  0.00  0.00     0.009 A 
ATOM      3  C   UNL d   1       3.915   1.028   3.363  0.00  0.00     0.002 A 
ATOM      4  C   UNL d   1       3.611   2.406   3.345  0.00  0.00     0.014 A 
ATOM      5  C   UNL d   1       3.051   3.020   2.202  0.00  0.00    -0.008 A 
ATOM      6  C   UNL d   1       2.783   4.430   2.037  0.00  0.00     0.030 C 
ATOM      7  C   UNL d   1       2.417   4.939   0.751  0.00  0.00     0.026 A 
ATOM      8  C   UNL d   1       2.245   6.239   0.107  0.00  0.00     0.061 A 
ATOM      9  N   UNL d   1       2.438   7.402   0.764  0.00  0.00    -0.397 N 
ATOM     10  C   UNL d   1       1.921   6.132  -1.248  0.00  0.00     0.102 A 
ATOM     11  S   UNL d   1       1.766   4.483  -1.714  0.00  0.00    -0.064 SA
ATOM     12  C   UNL d   1       2.171   3.974  -0.191  0.00  0.00     0.088 A 
ATOM     13  N   UNL d   1       2.267   2.662   0.011  0.00  0.00    -0.349 N 
ATOM     14  C   UNL d   1       2.767   2.152   1.126  0.00  0.00     0.049 A 
ATOM     15  H   UNL d   1       2.638   7.459   1.760  0.00  0.00     0.156 HD
ATOM     16  H   UNL d   1       2.259   8.327   0.394  0.00  0.00     0.156 HD
ATOM     17  H   UNL d   1       2.012   2.092  -0.786  0.00  0.00     0.166 HD
ENDROOT
BRANCH  10  18
ATOM     18  C   UNL d   1       1.669   7.035  -2.363  0.00  0.00     0.265 C 
ATOM     19  O   UNL d   1       1.453   6.595  -3.494  0.00  0.00    -0.267 OA
ATOM     20  N   UNL d   1       1.728   8.393  -2.115  0.00  0.00    -0.322 N 
ATOM     21  H   UNL d   1       2.254   8.714  -1.325  0.00  0.00     0.169 HD
BRANCH  20  22
ATOM     22  C   UNL d   1       1.459   9.320  -3.135  0.00  0.00     0.035 C 
ATOM     23  C   UNL d   1       0.442   9.097  -4.065  0.00  0.00     0.031 C 
ATOM     24  C   UNL d   1       0.372   9.849  -5.237  0.00  0.00     0.027 C 
ATOM     25  C   UNL d   1       1.153  10.990  -5.348  0.00  0.00     0.079 C 
ATOM     26  C   UNL d   1       1.896  11.385  -4.242  0.00  0.00     0.027 C 
ATOM     27  C   UNL d   1       2.198  10.482  -3.218  0.00  0.00     0.031 C 
BRANCH  25  28
ATOM     28  S   UNL d   1       1.284  11.827  -6.933  0.00  0.00     0.260 S 
ATOM     29  O   UNL d   1       1.481  10.758  -7.912  0.00  0.00    -0.200 OA
ATOM     30  O   UNL d   1       0.170  12.722  -7.029  0.00  0.00    -0.200 OA
BRANCH  28  31
ATOM     31  N   UNL d   1       2.762  12.679  -6.920  0.00  0.00    -0.307 N 
ATOM     32  C   UNL d   1       3.969  11.842  -6.783  0.00  0.00     0.135 C 
ATOM     33  C   UNL d   1       4.551  12.230  -5.441  0.00  0.00     0.022 C 
ATOM     34  C   UNL d   1       4.239  13.714  -5.326  0.00  0.00     0.022 C 
ATOM     35  C   UNL d   1       3.023  13.973  -6.243  0.00  0.00     0.135 C 
ENDBRANCH  28  31
ENDBRANCH  25  28
ENDBRANCH  20  22
ENDBRANCH  10  18
BRANCH   1  36
ATOM     36  C   UNL d   1       2.558  -0.120   0.007  0.00  0.00     0.036 C 
ATOM     37  C   UNL d   1       1.030  -0.170  -0.034  0.00  0.00     0.010 C 
ENDBRANCH   1  36
TORSDOF 5
