REMARK  3 active torsions:
REMARK  status: ('A' for Active; 'I' for Inactive)
REMARK       I    between atoms: C_2  and  N_3 
REMARK    1  A    between atoms: C_2  and  C_12 
REMARK    2  A    between atoms: N_3  and  N_4 
REMARK    3  A    between atoms: N_4  and  C_5 
ROOT
ATOM      1  O   UNL d   1       1.046  -0.005  -0.010  0.00  0.00    -0.264 OA
ATOM      2  C   UNL d   1       2.276  -0.060  -0.002  0.00  0.00     0.286 C 
ATOM      3  N   UNL d   1       3.021  -0.434   1.110  0.00  0.00    -0.264 N 
ATOM      4  H   UNL d   1       4.032  -0.501   1.105  0.00  0.00     0.190 HD
ENDROOT
BRANCH   2   5
ATOM      5  C   UNL d   1       3.063   0.350  -1.234  0.00  0.00     0.106 A 
ATOM      6  C   UNL d   1       4.068  -0.400  -1.716  0.00  0.00     0.048 A 
ATOM      7  C   UNL d   1       4.750  -0.001  -2.961  0.00  0.00    -0.018 A 
ATOM      8  C   UNL d   1       5.798  -0.762  -3.492  0.00  0.00     0.012 A 
ATOM      9  C   UNL d   1       4.347   1.158  -3.642  0.00  0.00     0.042 A 
ATOM     10  C   UNL d   1       6.437  -0.366  -4.674  0.00  0.00     0.001 A 
ATOM     11  C   UNL d   1       6.035   0.793  -5.339  0.00  0.00     0.001 A 
ATOM     12  C   UNL d   1       4.988   1.558  -4.825  0.00  0.00     0.018 A 
ATOM     13  C   UNL d   1       3.218   1.945  -3.088  0.00  0.00     0.257 A 
ATOM     14  O   UNL d   1       2.815   2.962  -3.649  0.00  0.00    -0.267 OA
ATOM     15  N   UNL d   1       2.650   1.476  -1.922  0.00  0.00    -0.318 N 
ATOM     16  H   UNL d   1       1.845   1.990  -1.578  0.00  0.00     0.169 HD
ENDBRANCH   2   5
BRANCH   3  17
ATOM     17  N   UNL d   1       2.345  -0.946   2.229  0.00  0.00    -0.298 N 
ATOM     18  H   UNL d   1       1.325  -0.993   2.199  0.00  0.00     0.187 HD
BRANCH  17  19
ATOM     19  C   UNL d   1       3.051  -1.296   3.390  0.00  0.00     0.049 A 
ATOM     20  C   UNL d   1       4.149  -0.558   3.854  0.00  0.00     0.031 A 
ATOM     21  C   UNL d   1       4.877  -0.960   4.984  0.00  0.00     0.004 A 
ATOM     22  C   UNL d   1       4.541  -2.133   5.654  0.00  0.00     0.024 A 
ATOM     23  C   UNL d   1       3.458  -2.882   5.204  0.00  0.00     0.036 A 
ATOM     24 CL   UNL d   1       3.064  -4.354   6.010  0.00  0.00    -0.084 Cl
ATOM     25  C   UNL d   1       2.707  -2.462   4.097  0.00  0.00     0.054 A 
ENDBRANCH  17  19
ENDBRANCH   3  17
TORSDOF 3
