@<TRIPOS>MOLECULE
*****
 73 76 0 0 0
SMALL
GASTEIGER

@<TRIPOS>ATOM
      1 C           1.5392   -0.8990   -4.7124 C.3     1  UNL1        0.0790
      2 O           2.1157   -2.1115   -5.0933 O.3     1  UNL1       -0.4914
      3 C           2.9687   -2.6343   -4.1629 C.ar    1  UNL1        0.1622
      4 C           4.3006   -2.4023   -4.6449 C.ar    1  UNL1       -0.0163
      5 C           5.4301   -2.8479   -3.9851 C.ar    1  UNL1       -0.0581
      6 C           5.2520   -3.4492   -2.7465 C.ar    1  UNL1       -0.0581
      7 C           3.9257   -3.6408   -2.1897 C.ar    1  UNL1       -0.0156
      8 C           2.6974   -3.2459   -2.8869 C.ar    1  UNL1        0.1717
      9 O           1.4523   -3.1297   -2.0086 O.3     1  UNL1       -0.4338
     10 C           0.2158   -2.3861   -2.1889 C.ar    1  UNL1        0.2324
     11 C          -0.4604   -1.1559   -1.5459 C.ar    1  UNL1        0.0813
     12 C          -0.0126   -0.0831   -0.2512 C.3     1  UNL1        0.0014
     13 N           1.3272   -0.2773    0.6549 N.4     1  UNL1        0.2427
     14 C           2.5721   -0.7223   -0.0472 C.3     1  UNL1       -0.0025
     15 C           2.3224   -0.5064   -1.4876 C.3     1  UNL1        0.1180
     16 O           3.2909   -1.0918   -2.1900 O.3     1  UNL1       -0.3842
     17 C           1.8738    0.7261   -2.1906 C.3     1  UNL1        0.0793
     18 O           0.7258    1.4458   -1.9150 O.3     1  UNL1       -0.3714
     19 C           0.4735    2.6368   -2.6276 C.3     1  UNL1        0.0613
     20 C           1.8213    3.2810   -2.8415 C.3     1  UNL1       -0.0363
     21 C          -0.2026    2.3421   -3.9585 C.3     1  UNL1       -0.0363
     22 C          -0.4315    3.3721   -1.6367 C.3     1  UNL1       -0.0363
     23 C           0.9242   -1.0816    1.7969 C.3     1  UNL1       -0.0201
     24 C           0.1860   -0.2726    2.8161 C.3     1  UNL1       -0.0046
     25 C          -0.5491   -1.3192    2.0192 C.3     1  UNL1       -0.0046
     26 C          -1.4965   -0.8312   -2.5634 C.ar    1  UNL1        0.0723
     27 C          -2.5072    0.2915   -2.7321 C.3     1  UNL1       -0.0200
     28 N          -1.4255   -1.6491   -3.6217 N.ar    1  UNL1       -0.1680
     29 N          -0.5281   -2.6123   -3.3490 N.ar    1  UNL1       -0.1995
     30 C          -0.2399   -3.6545   -4.2601 C.ar    1  UNL1        0.0691
     31 C          -0.0224   -3.4520   -5.6355 C.ar    1  UNL1       -0.0361
     32 C           0.3777   -4.5220   -6.4326 C.ar    1  UNL1       -0.0598
     33 C           0.4565   -5.7949   -5.8761 C.ar    1  UNL1       -0.0616
     34 C           0.2543   -5.9860   -4.5106 C.ar    1  UNL1       -0.0598
     35 C          -0.0423   -4.9108   -3.6966 C.ar    1  UNL1       -0.0361
     36 H           0.6575   -0.6131   -5.2888 H       1  UNL1        0.0660
     37 H           2.2575   -0.0759   -4.7331 H       1  UNL1        0.0660
     38 H           1.1466   -1.0666   -3.7339 H       1  UNL1        0.0660
     39 H           4.4364   -1.7668   -5.5245 H       1  UNL1        0.0655
     40 H           6.4126   -2.6956   -4.4363 H       1  UNL1        0.0619
     41 H           6.1663   -3.6998   -2.1971 H       1  UNL1        0.0619
     42 H           3.9314   -3.9553   -1.1453 H       1  UNL1        0.0655
     43 H          -0.8965    0.2368    0.3188 H       1  UNL1        0.0869
     44 H           0.1325    0.9827   -0.3498 H       1  UNL1        0.0869
     45 H           1.6477    0.6482    0.9943 H       1  UNL1        0.2041
     46 H           3.5072   -0.1932    0.1633 H       1  UNL1        0.0841
     47 H           2.7356   -1.7963    0.1651 H       1  UNL1        0.0841
     48 H           1.5362   -1.2050   -1.4236 H       1  UNL1        0.0670
     49 H           3.9933   -0.4863   -2.5770 H       1  UNL1        0.2101
     50 H           1.5929    0.4839   -3.1708 H       1  UNL1        0.0588
     51 H           2.7850    1.2894   -2.2413 H       1  UNL1        0.0588
     52 H           2.4044    2.6628   -3.5439 H       1  UNL1        0.0257
     53 H           2.3683    3.2829   -1.8874 H       1  UNL1        0.0257
     54 H           1.7574    4.2688   -3.2660 H       1  UNL1        0.0257
     55 H           0.3920    1.6996   -4.6152 H       1  UNL1        0.0257
     56 H          -0.5103    3.2361   -4.5004 H       1  UNL1        0.0257
     57 H          -1.0916    1.7748   -3.7806 H       1  UNL1        0.0257
     58 H           0.0808    3.4675   -0.6689 H       1  UNL1        0.0257
     59 H          -1.3307    2.7923   -1.3861 H       1  UNL1        0.0257
     60 H          -0.7415    4.3512   -1.9910 H       1  UNL1        0.0257
     61 H           1.5916   -1.8728    2.1245 H       1  UNL1        0.0851
     62 H           0.0519    0.7861    2.5861 H       1  UNL1        0.0322
     63 H           0.4012   -0.4617    3.8536 H       1  UNL1        0.0322
     64 H          -1.3690   -1.0048    1.3842 H       1  UNL1        0.0322
     65 H          -0.8200   -2.3016    2.3647 H       1  UNL1        0.0322
     66 H          -2.3177    1.1455   -2.0830 H       1  UNL1        0.0293
     67 H          -3.5415   -0.0240   -2.5792 H       1  UNL1        0.0293
     68 H          -2.5316    0.6559   -3.7763 H       1  UNL1        0.0293
     69 H           0.0282   -2.4646   -6.0913 H       1  UNL1        0.0639
     70 H           0.6239   -4.3599   -7.4804 H       1  UNL1        0.0618
     71 H           0.6716   -6.6476   -6.5097 H       1  UNL1        0.0618
     72 H           0.3060   -6.9721   -4.0664 H       1  UNL1        0.0618
     73 H          -0.1376   -5.0576   -2.6246 H       1  UNL1        0.0639
@<TRIPOS>UNITY_ATOM_ATTR
13 1
charge 1
@<TRIPOS>BOND
     1     1     2    1
     2     2     3    1
     3     3     4   ar
     4     4     5   ar
     5     5     6   ar
     6     6     7   ar
     7     7     8   ar
     8     3     8   ar
     9     8     9    1
    10     9    10    1
    11    10    11   ar
    12    11    12    1
    13    15    17    1
    14    17    18    1
    15    18    19    1
    16    19    20    1
    17    19    21    1
    18    19    22    1
    19    13    23    1
    20    23    24    1
    21    24    25    1
    22    23    25    1
    23    11    26   ar
    24    26    27    1
    25    26    28   ar
    26    28    29   ar
    27    10    29   ar
    28    29    30    1
    29    30    31   ar
    30    31    32   ar
    31    32    33   ar
    32    33    34   ar
    33    34    35   ar
    34    30    35   ar
    35    15    16    1
    36    15    14    1
    37    13    14    1
    38    13    12    1
    39     1    36    1
    40     1    37    1
    41     1    38    1
    42     4    39    1
    43     5    40    1
    44     6    41    1
    45     7    42    1
    46    12    43    1
    47    12    44    1
    48    13    45    1
    49    14    46    1
    50    14    47    1
    51    15    48    1
    52    16    49    1
    53    17    50    1
    54    17    51    1
    55    20    52    1
    56    20    53    1
    57    20    54    1
    58    21    55    1
    59    21    56    1
    60    21    57    1
    61    22    58    1
    62    22    59    1
    63    22    60    1
    64    23    61    1
    65    24    62    1
    66    24    63    1
    67    25    64    1
    68    25    65    1
    69    27    66    1
    70    27    67    1
    71    27    68    1
    72    31    69    1
    73    32    70    1
    74    33    71    1
    75    34    72    1
    76    35    73    1
