REMARK  4 active torsions:
REMARK  status: ('A' for Active; 'I' for Inactive)
REMARK    1  A    between atoms: C_3  and  C_4 
REMARK    2  A    between atoms: C_5  and  C_6 
REMARK       I    between atoms: C_6  and  N_8 
REMARK    3  A    between atoms: N_8  and  N_9 
REMARK       I    between atoms: N_9  and  C_10 
REMARK    4  A    between atoms: C_10  and  C_12 
ROOT
ATOM      1  N   UNL d   1       9.119   2.485   2.747  0.00  0.00    -0.263 N 
ATOM      2  C   UNL d   1       9.803   3.289   3.663  0.00  0.00     0.277 C 
ATOM      3  O   UNL d   1       9.171   3.976   4.477  0.00  0.00    -0.265 OA
ATOM      4  H   UNL d   1       9.595   1.824   2.138  0.00  0.00     0.190 HD
ENDROOT
BRANCH   1   5
ATOM      5  N   UNL d   1       7.683   2.441   2.712  0.00  0.00    -0.264 N 
ATOM      6  C   UNL d   1       7.054   1.598   1.802  0.00  0.00     0.259 C 
ATOM      7  O   UNL d   1       7.686   0.880   1.027  0.00  0.00    -0.267 OA
ATOM      8  H   UNL d   1       7.201   3.054   3.366  0.00  0.00     0.190 HD
BRANCH   6   9
ATOM      9  C   UNL d   1       5.547   1.615   1.818  0.00  0.00     0.075 C 
ATOM     10  C   UNL d   1       4.816   0.837   0.988  0.00  0.00     0.005 C 
BRANCH  10  11
ATOM     11  C   UNL d   1       3.356   0.802   0.950  0.00  0.00    -0.004 C 
ATOM     12  C   UNL d   1       2.635   0.024   0.120  0.00  0.00    -0.031 C 
ATOM     13  C   UNL d   1       1.132   0.000   0.095  0.00  0.00     0.036 C 
ENDBRANCH  10  11
ENDBRANCH   6   9
ENDBRANCH   1   5
BRANCH   2  14
ATOM     14  C   UNL d   1      11.275   3.276   3.581  0.00  0.00     0.080 A 
ATOM     15  S   UNL d   1      12.214   3.299   5.029  0.00  0.00    -0.096 SA
ATOM     16  C   UNL d   1      13.700   3.316   4.178  0.00  0.00     0.051 A 
ATOM     17  C   UNL d   1      13.499   3.339   2.818  0.00  0.00     0.015 A 
ATOM     18  C   UNL d   1      12.106   3.320   2.463  0.00  0.00    -0.039 A 
ATOM     19  C   UNL d   1      11.633   3.404   1.055  0.00  0.00     0.050 C 
ENDBRANCH   2  14
TORSDOF 4
