@<TRIPOS>MOLECULE
*****
 40 42 0 0 0
SMALL
GASTEIGER

@<TRIPOS>ATOM
      1 C           1.0481    0.0395   -0.0216 C.3     1  UNL1       -0.0203
      2 C           2.5574   -0.0006   -0.1143 C.2     1  UNL1        0.0634
      3 N           3.2357   -0.4926   -1.1120 N.2     1  UNL1       -0.1845
      4 N           2.6129   -1.0687   -2.1980 N.am    1  UNL1       -0.2065
      5 C           3.3924   -1.6075   -3.2237 C.2     1  UNL1        0.2366
      6 O           4.6264   -1.6004   -3.2028 O.2     1  UNL1       -0.2737
      7 C           2.5790   -2.2019   -4.3837 C.3     1  UNL1        0.0527
      8 C           3.4547   -2.7736   -5.4661 C.ar    1  UNL1       -0.0136
      9 C           4.2882   -2.0650   -6.3126 C.ar    1  UNL1        0.0064
     10 N           4.9768   -2.9556   -7.0924 N.ar    1  UNL1       -0.3604
     11 C           4.5459   -4.2377   -6.8419 C.ar    1  UNL1        0.0467
     12 C           4.9176   -5.4536   -7.4324 C.ar    1  UNL1       -0.0378
     13 C           4.2815   -6.6141   -6.9788 C.ar    1  UNL1       -0.0598
     14 C           3.3442   -6.5638   -5.9506 C.ar    1  UNL1       -0.0611
     15 C           3.0099   -5.3456   -5.3519 C.ar    1  UNL1       -0.0523
     16 C           3.6008   -4.1545   -5.8171 C.ar    1  UNL1        0.0033
     17 C           3.3035    0.6401    1.0327 C.ar    1  UNL1       -0.0023
     18 C           2.9590    0.3971    2.3738 C.ar    1  UNL1       -0.0494
     19 C           3.6413    1.0459    3.4203 C.ar    1  UNL1       -0.0196
     20 C           4.6608    1.9440    3.1221 C.ar    1  UNL1        0.1169
     21 O           5.3545    2.6092    4.0904 O.3     1  UNL1       -0.5068
     22 C           5.0094    2.1945    1.7997 C.ar    1  UNL1       -0.0196
     23 C           4.3421    1.5371    0.7564 C.ar    1  UNL1       -0.0494
     24 H           0.5501   -0.3940   -0.8870 H       1  UNL1        0.0293
     25 H           0.7276    1.0837    0.0476 H       1  UNL1        0.0293
     26 H           0.7055   -0.5073    0.8591 H       1  UNL1        0.0293
     27 H           1.6054   -1.1084   -2.2567 H       1  UNL1        0.1772
     28 H           1.9373   -1.4260   -4.8202 H       1  UNL1        0.0408
     29 H           1.9161   -2.9821   -3.9890 H       1  UNL1        0.0408
     30 H           4.4897   -1.0041   -6.3814 H       1  UNL1        0.0810
     31 H           5.6908   -2.7080   -7.7635 H       1  UNL1        0.1653
     32 H           5.6589   -5.5014   -8.2239 H       1  UNL1        0.0638
     33 H           4.5220   -7.5714   -7.4352 H       1  UNL1        0.0618
     34 H           2.8621   -7.4755   -5.6083 H       1  UNL1        0.0618
     35 H           2.2856   -5.3195   -4.5450 H       1  UNL1        0.0624
     36 H           2.1747   -0.3101    2.6284 H       1  UNL1        0.0625
     37 H           3.3640    0.8401    4.4509 H       1  UNL1        0.0654
     38 H           5.0576    2.3210    4.9688 H       1  UNL1        0.2921
     39 H           5.8031    2.9042    1.5807 H       1  UNL1        0.0654
     40 H           4.6302    1.7443   -0.2712 H       1  UNL1        0.0625
@<TRIPOS>BOND
     1     1     2    1
     2     2     3    2
     3     3     4    1
     4     4     5   am
     5     5     6    2
     6     5     7    1
     7     7     8    1
     8     8     9   ar
     9     9    10   ar
    10    10    11   ar
    11    11    12   ar
    12    12    13   ar
    13    13    14   ar
    14    14    15   ar
    15    15    16   ar
    16     8    16   ar
    17    11    16   ar
    18     2    17    1
    19    17    18   ar
    20    18    19   ar
    21    19    20   ar
    22    20    21    1
    23    20    22   ar
    24    22    23   ar
    25    17    23   ar
    26     1    24    1
    27     1    25    1
    28     1    26    1
    29     4    27    1
    30     7    28    1
    31     7    29    1
    32     9    30    1
    33    10    31    1
    34    12    32    1
    35    13    33    1
    36    14    34    1
    37    15    35    1
    38    18    36    1
    39    19    37    1
    40    21    38    1
    41    22    39    1
    42    23    40    1
