@<TRIPOS>MOLECULE
*****
 35 35 0 0 0
SMALL
GASTEIGER

@<TRIPOS>ATOM
      1 C          13.3815    4.6644   -3.3862 C.3     1  UNL1       -0.0627
      2 C          13.5020    3.3215   -4.1182 C.3     1  UNL1       -0.0463
      3 C          14.8301    2.6666   -3.7394 C.3     1  UNL1       -0.0627
      4 C          12.3019    2.4089   -3.7800 C.3     1  UNL1       -0.0424
      5 C          12.3201    1.0447   -4.5039 C.3     1  UNL1        0.0256
      6 C          11.1240    0.1566   -4.1419 C.2     1  UNL1        0.2291
      7 O          10.2538    0.5055   -3.3443 O.2     1  UNL1       -0.2743
      8 N          11.0963   -1.0879   -4.7700 N.am    1  UNL1       -0.2344
      9 N          10.0440   -1.9997   -4.4517 N.am    1  UNL1       -0.2342
     10 C           9.9933   -3.2889   -4.9857 C.2     1  UNL1        0.2324
     11 O          10.7917   -3.7077   -5.8235 O.2     1  UNL1       -0.2740
     12 C           8.8699   -4.1500   -4.4474 C.3     1  UNL1        0.0398
     13 C           8.0845   -5.1392   -5.2980 C.3     1  UNL1       -0.0383
     14 C           8.9797   -5.6544   -4.2042 C.3     1  UNL1       -0.0320
     15 C           8.4027   -6.2455   -2.9515 C.3     1  UNL1       -0.0617
     16 H          14.2208    5.3235   -3.6380 H       1  UNL1        0.0232
     17 H          13.3837    4.5239   -2.2995 H       1  UNL1        0.0232
     18 H          12.4573    5.1839   -3.6590 H       1  UNL1        0.0232
     19 H          13.5034    3.5240   -5.1970 H       1  UNL1        0.0296
     20 H          14.8611    2.4474   -2.6666 H       1  UNL1        0.0232
     21 H          15.6743    3.3208   -3.9793 H       1  UNL1        0.0232
     22 H          14.9855    1.7317   -4.2836 H       1  UNL1        0.0232
     23 H          11.3743    2.9393   -4.0339 H       1  UNL1        0.0272
     24 H          12.2730    2.2468   -2.6945 H       1  UNL1        0.0272
     25 H          13.2267    0.4942   -4.2337 H       1  UNL1        0.0359
     26 H          12.3312    1.2150   -5.5864 H       1  UNL1        0.0359
     27 H          11.8202   -1.4215   -5.4026 H       1  UNL1        0.1728
     28 H           9.3634   -1.6539   -3.7770 H       1  UNL1        0.1728
     29 H           8.2830   -3.6228   -3.7011 H       1  UNL1        0.0397
     30 H           8.3850   -5.3742   -6.3153 H       1  UNL1        0.0275
     31 H           7.0091   -5.2118   -5.1582 H       1  UNL1        0.0275
     32 H           9.8361   -6.2280   -4.5435 H       1  UNL1        0.0306
     33 H           7.5190   -5.7018   -2.5985 H       1  UNL1        0.0233
     34 H           9.1530   -6.2179   -2.1546 H       1  UNL1        0.0233
     35 H           8.1138   -7.2932   -3.0953 H       1  UNL1        0.0233
@<TRIPOS>BOND
     1     1     2    1
     2     2     3    1
     3     2     4    1
     4     4     5    1
     5     5     6    1
     6     6     7    2
     7     6     8   am
     8     8     9    1
     9     9    10   am
    10    10    11    2
    11    12    13    1
    12    13    14    1
    13    12    14    1
    14    14    15    1
    15    12    10    1
    16     1    16    1
    17     1    17    1
    18     1    18    1
    19     2    19    1
    20     3    20    1
    21     3    21    1
    22     3    22    1
    23     4    23    1
    24     4    24    1
    25     5    25    1
    26     5    26    1
    27     8    27    1
    28     9    28    1
    29    12    29    1
    30    13    30    1
    31    13    31    1
    32    14    32    1
    33    15    33    1
    34    15    34    1
    35    15    35    1
