REMARK  12 active torsions:
REMARK  status: ('A' for Active; 'I' for Inactive)
REMARK    1  A    between atoms: C_2  and  O_3 
REMARK    2  A    between atoms: O_3  and  C_4 
REMARK    3  A    between atoms: C_4  and  C_5 
REMARK    4  A    between atoms: C_5  and  O_6 
REMARK    5  A    between atoms: O_6  and  C_7 
REMARK    6  A    between atoms: C_10  and  C_11 
REMARK       I    between atoms: C_11  and  N_13 
REMARK    7  A    between atoms: N_13  and  C_14 
REMARK    8  A    between atoms: C_14  and  N_16 
REMARK    9  A    between atoms: N_16  and  N_17 
REMARK       I    between atoms: N_17  and  C_18 
REMARK   10  A    between atoms: C_18  and  C_20 
REMARK   11  A    between atoms: C_23  and  N_24 
REMARK       I    between atoms: N_24  and  C_25 
REMARK   12  A    between atoms: C_25  and  C_27 
ROOT
ATOM      1  N   UNL d   1       9.852   1.335  12.444  0.00  0.00    -0.264 N 
ATOM      2  C   UNL d   1       9.415   0.780  13.640  0.00  0.00     0.270 C 
ATOM      3  O   UNL d   1       8.431   0.040  13.713  0.00  0.00    -0.266 OA
ATOM      4  H   UNL d   1      10.713   1.879  12.377  0.00  0.00     0.190 HD
ENDROOT
BRANCH   1   5
ATOM      5  N   UNL d   1       9.194   1.073  11.172  0.00  0.00    -0.273 N 
ATOM      6  H   UNL d   1       8.342   0.519  11.241  0.00  0.00     0.189 HD
BRANCH   5   7
ATOM      7  C   UNL d   1       9.754   1.612   9.996  0.00  0.00     0.193 C 
ATOM      8  S   UNL d   1      11.170   2.528  10.102  0.00  0.00    -0.039 SA
BRANCH   7   9
ATOM      9  N   UNL d   1       9.058   1.320   8.795  0.00  0.00    -0.298 N 
ATOM     10  C   UNL d   1       9.421   1.735   7.485  0.00  0.00     0.257 C 
ATOM     11  O   UNL d   1      10.427   2.402   7.241  0.00  0.00    -0.267 OA
ATOM     12  H   UNL d   1       8.209   0.785   8.889  0.00  0.00     0.171 HD
BRANCH  10  13
ATOM     13  C   UNL d   1       8.575   1.415   6.277  0.00  0.00     0.032 A 
ATOM     14  C   UNL d   1       8.989   1.937   5.026  0.00  0.00     0.020 A 
ATOM     15  C   UNL d   1       8.211   1.792   3.865  0.00  0.00     0.038 A 
ATOM     16  C   UNL d   1       7.030   1.059   3.909  0.00  0.00     0.068 A 
ATOM     17  C   UNL d   1       6.634   0.497   5.125  0.00  0.00     0.038 A 
ATOM     18  C   UNL d   1       7.395   0.674   6.301  0.00  0.00     0.020 A 
BRANCH  16  19
ATOM     19  O   UNL d   1       6.402   0.859   2.709  0.00  0.00    -0.349 OA
BRANCH  19  20
ATOM     20  C   UNL d   1       4.974   0.758   2.741  0.00  0.00     0.201 C 
BRANCH  20  21
ATOM     21  C   UNL d   1       4.473   0.337   1.360  0.00  0.00     0.194 C 
BRANCH  21  22
ATOM     22  O   UNL d   1       3.043   0.312   1.344  0.00  0.00    -0.389 OA
BRANCH  22  23
ATOM     23  C   UNL d   1       2.555  -0.068   0.057  0.00  0.00     0.163 C 
ATOM     24  C   UNL d   1       1.040  -0.064   0.071  0.00  0.00     0.033 C 
ENDBRANCH  22  23
ENDBRANCH  21  22
ENDBRANCH  20  21
ENDBRANCH  19  20
ENDBRANCH  16  19
ENDBRANCH  10  13
ENDBRANCH   7   9
ENDBRANCH   5   7
ENDBRANCH   1   5
BRANCH   2  25
ATOM     25  C   UNL d   1      10.175   1.143  14.894  0.00  0.00     0.033 A 
ATOM     26  C   UNL d   1      10.339   0.230  15.953  0.00  0.00     0.019 A 
ATOM     27  C   UNL d   1      10.903   0.630  17.197  0.00  0.00     0.030 A 
ATOM     28  C   UNL d   1      11.367   1.939  17.385  0.00  0.00     0.035 A 
ATOM     29  C   UNL d   1      11.184   2.831  16.322  0.00  0.00     0.030 A 
ATOM     30  C   UNL d   1      10.610   2.450  15.098  0.00  0.00     0.019 A 
BRANCH  28  31
ATOM     31  N   UNL d   1      12.020   2.319  18.602  0.00  0.00    -0.323 N 
ATOM     32  C   UNL d   1      12.546   3.584  18.856  0.00  0.00     0.256 C 
ATOM     33  O   UNL d   1      12.488   4.562  18.105  0.00  0.00    -0.267 OA
ATOM     34  H   UNL d   1      12.126   1.607  19.316  0.00  0.00     0.169 HD
BRANCH  32  35
ATOM     35  C   UNL d   1      13.280   3.828  20.122  0.00  0.00     0.032 A 
ATOM     36  C   UNL d   1      13.156   5.098  20.715  0.00  0.00     0.017 A 
ATOM     37  C   UNL d   1      14.014   5.490  21.742  0.00  0.00     0.002 A 
ATOM     38  C   UNL d   1      14.966   4.596  22.223  0.00  0.00     0.007 A 
ATOM     39  C   UNL d   1      15.098   3.325  21.646  0.00  0.00    -0.061 A 
ATOM     40  C   UNL d   1      16.188   2.400  22.097  0.00  0.00     0.048 C 
ATOM     41  C   UNL d   1      14.252   2.942  20.590  0.00  0.00     0.023 A 
ENDBRANCH  32  35
ENDBRANCH  28  31
ENDBRANCH   2  25
TORSDOF 12
