@<TRIPOS>MOLECULE
*****
 61 63 0 0 0
SMALL
GASTEIGER

@<TRIPOS>ATOM
      1 C           2.4952   -0.0019   -0.0124 C.3     1  UNL1       -0.0397
      2 C           0.9958    0.0043    0.0027 C.ar    1  UNL1       -0.0497
      3 C           0.2729   -1.1933    0.0032 C.ar    1  UNL1       -0.0588
      4 C          -1.1190   -1.1698   -0.0000 C.ar    1  UNL1       -0.0608
      5 C          -1.7929    0.0533   -0.0048 C.ar    1  UNL1       -0.0496
      6 C          -1.0860    1.2705   -0.0008 C.ar    1  UNL1        0.0373
      7 C          -1.8697    2.5437    0.0026 C.2     1  UNL1        0.2483
      8 O          -3.1045    2.4480    0.0266 O.2     1  UNL1       -0.2699
      9 N          -1.1893    3.7574   -0.0748 N.am    1  UNL1       -0.2815
     10 C          -1.8370    5.0092    0.0272 C.ar    1  UNL1        0.0338
     11 C          -1.3968    6.1343   -0.6798 C.ar    1  UNL1       -0.0387
     12 C          -2.0497    7.3854   -0.5242 C.ar    1  UNL1       -0.0387
     13 C          -3.1576    7.5093    0.3300 C.ar    1  UNL1        0.0335
     14 N          -3.8987    8.7270    0.4267 N.am    1  UNL1       -0.2842
     15 C          -5.0560    8.8776    1.1984 C.2     1  UNL1        0.2343
     16 O          -5.5720    8.0017    1.8989 O.2     1  UNL1       -0.2738
     17 C          -5.7552   10.2440    1.1544 C.3     1  UNL1        0.0861
     18 N          -6.7871   10.2657    2.2089 N.pl3   1  UNL1       -0.3354
     19 C          -7.7832   11.2153    2.2844 C.ar    1  UNL1        0.0276
     20 C          -8.3490   11.5424    3.5262 C.ar    1  UNL1       -0.0391
     21 C          -9.3427   12.5400    3.6559 C.ar    1  UNL1       -0.0387
     22 C          -9.7637   13.2574    2.5326 C.ar    1  UNL1        0.0335
     23 N         -10.6700   14.3543    2.6532 N.am    1  UNL1       -0.2853
     24 C         -11.0488   15.1663    1.5876 C.2     1  UNL1        0.2198
     25 O         -10.6983   14.9978    0.4186 O.2     1  UNL1       -0.2752
     26 C         -11.9753   16.3424    1.8894 C.3     1  UNL1        0.0303
     27 C         -11.3307   17.3541    2.8261 C.3     1  UNL1       -0.0544
     28 C         -12.3018   17.0415    0.5539 C.3     1  UNL1       -0.0544
     29 C          -9.2300   12.8773    1.3004 C.ar    1  UNL1       -0.0387
     30 C          -8.2577   11.8889    1.1751 C.ar    1  UNL1       -0.0391
     31 C          -3.5260    6.3812    1.0602 C.ar    1  UNL1       -0.0387
     32 C          -2.8977    5.1536    0.9030 C.ar    1  UNL1       -0.0387
     33 C           0.3120    1.2320    0.0066 C.ar    1  UNL1       -0.0467
     34 H           2.8939   -1.0208    0.0006 H       1  UNL1        0.0278
     35 H           2.8806    0.5253    0.8659 H       1  UNL1        0.0278
     36 H           2.8579    0.4928   -0.9192 H       1  UNL1        0.0278
     37 H           0.7882   -2.1517    0.0041 H       1  UNL1        0.0620
     38 H          -1.6796   -2.1020   -0.0018 H       1  UNL1        0.0618
     39 H          -2.8828    0.0495   -0.0139 H       1  UNL1        0.0625
     40 H          -0.1991    3.7811   -0.2649 H       1  UNL1        0.1551
     41 H          -0.5975    6.0396   -1.4123 H       1  UNL1        0.0637
     42 H          -1.6734    8.2361   -1.0886 H       1  UNL1        0.0637
     43 H          -3.6018    9.4951   -0.1643 H       1  UNL1        0.1549
     44 H          -6.1603   10.3831    0.1469 H       1  UNL1        0.0557
     45 H          -5.0318   11.0292    1.3852 H       1  UNL1        0.0557
     46 H          -7.0395    9.3299    2.5453 H       1  UNL1        0.1466
     47 H          -7.9682   11.0494    4.4201 H       1  UNL1        0.0637
     48 H          -9.7485   12.7343    4.6452 H       1  UNL1        0.0637
     49 H         -10.9873   14.5878    3.5866 H       1  UNL1        0.1548
     50 H         -12.9053   15.9569    2.3219 H       1  UNL1        0.0389
     51 H         -10.3841   17.7217    2.4136 H       1  UNL1        0.0237
     52 H         -11.1218   16.9190    3.8066 H       1  UNL1        0.0237
     53 H         -11.9906   18.2172    2.9714 H       1  UNL1        0.0237
     54 H         -11.3857   17.4124    0.0731 H       1  UNL1        0.0237
     55 H         -12.9750   17.8912    0.6891 H       1  UNL1        0.0237
     56 H         -12.7708   16.3433   -0.1503 H       1  UNL1        0.0237
     57 H          -9.5339   13.3269    0.3667 H       1  UNL1        0.0637
     58 H          -7.9052   11.6693    0.1746 H       1  UNL1        0.0637
     59 H          -4.3211    6.3836    1.7908 H       1  UNL1        0.0637
     60 H          -3.2513    4.3268    1.5115 H       1  UNL1        0.0637
     61 H           0.9024    2.1398    0.0175 H       1  UNL1        0.0628
@<TRIPOS>BOND
     1     1     2    1
     2     2     3   ar
     3     3     4   ar
     4     4     5   ar
     5     5     6   ar
     6     6     7    1
     7     7     8    2
     8     7     9   am
     9     9    10    1
    10    10    11   ar
    11    11    12   ar
    12    12    13   ar
    13    13    14    1
    14    14    15   am
    15    15    16    2
    16    15    17    1
    17    17    18    1
    18    18    19    1
    19    19    20   ar
    20    20    21   ar
    21    21    22   ar
    22    22    23    1
    23    23    24   am
    24    24    25    2
    25    24    26    1
    26    26    27    1
    27    26    28    1
    28    22    29   ar
    29    29    30   ar
    30    19    30   ar
    31    13    31   ar
    32    31    32   ar
    33    10    32   ar
    34     6    33   ar
    35     2    33   ar
    36     1    34    1
    37     1    35    1
    38     1    36    1
    39     3    37    1
    40     4    38    1
    41     5    39    1
    42     9    40    1
    43    11    41    1
    44    12    42    1
    45    14    43    1
    46    17    44    1
    47    17    45    1
    48    18    46    1
    49    20    47    1
    50    21    48    1
    51    23    49    1
    52    26    50    1
    53    27    51    1
    54    27    52    1
    55    27    53    1
    56    28    54    1
    57    28    55    1
    58    28    56    1
    59    29    57    1
    60    30    58    1
    61    31    59    1
    62    32    60    1
    63    33    61    1
