REMARK  7 active torsions:
REMARK  status: ('A' for Active; 'I' for Inactive)
REMARK    1  A    between atoms: C_8  and  O_9 
REMARK    2  A    between atoms: O_9  and  C_10 
REMARK    3  A    between atoms: C_10  and  C_11 
REMARK       I    between atoms: C_11  and  N_13 
REMARK    4  A    between atoms: N_13  and  N_14 
REMARK    5  A    between atoms: N_14  and  S_15 
REMARK    6  A    between atoms: S_15  and  C_18 
REMARK    7  A    between atoms: C_23  and  N_24 
ROOT
ATOM      1  C   UNL d   1      -5.863  -0.967   0.142  0.00  0.00     0.260 C 
ATOM      2  O   UNL d   1      -6.102  -2.168   0.219  0.00  0.00    -0.269 OA
ATOM      3  N   UNL d   1      -6.845   0.028   0.207  0.00  0.00    -0.259 N 
ATOM      4  H   UNL d   1      -6.684   1.010  -0.011  0.00  0.00     0.190 HD
ENDROOT
BRANCH   3   5
ATOM      5  N   UNL d   1      -8.187  -0.369   0.605  0.00  0.00    -0.220 N 
ATOM      6  H   UNL d   1      -8.297  -1.380   0.724  0.00  0.00     0.200 HD
BRANCH   5   7
ATOM      7  S   UNL d   1      -9.512   0.611   0.269  0.00  0.00     0.278 S 
ATOM      8  O   UNL d   1      -9.631   1.469   1.433  0.00  0.00    -0.199 OA
ATOM      9  O   UNL d   1      -9.342   1.199  -1.043  0.00  0.00    -0.199 OA
BRANCH   7  10
ATOM     10  C   UNL d   1     -11.026  -0.348   0.221  0.00  0.00     0.114 A 
ATOM     11  C   UNL d   1     -12.210   0.423   0.355  0.00  0.00     0.028 A 
ATOM     12  C   UNL d   1     -13.462  -0.181   0.537  0.00  0.00     0.002 A 
ATOM     13  C   UNL d   1     -13.573  -1.562   0.521  0.00  0.00     0.003 A 
ATOM     14  C   UNL d   1     -12.433  -2.335   0.336  0.00  0.00     0.038 A 
ATOM     15  C   UNL d   1     -11.160  -1.741   0.168  0.00  0.00     0.126 A 
BRANCH  15  16
ATOM     16  N   UNL d   1     -10.096  -2.687  -0.156  0.00  0.00    -0.114 N 
ATOM     17  O   UNL d   1     -10.272  -3.877   0.107  0.00  0.00    -0.532 OA
ATOM     18  O   UNL d   1      -9.081  -2.246  -0.705  0.00  0.00    -0.532 OA
ENDBRANCH  15  16
ENDBRANCH   7  10
ENDBRANCH   5   7
ENDBRANCH   3   5
BRANCH   1  19
ATOM     19  C   UNL d   1      -4.463  -0.377   0.060  0.00  0.00     0.280 C 
BRANCH  19  20
ATOM     20  O   UNL d   1      -3.366  -1.271   0.007  0.00  0.00    -0.342 OA
BRANCH  20  21
ATOM     21  C   UNL d   1      -2.088  -0.757   0.010  0.00  0.00     0.075 A 
ATOM     22  C   UNL d   1      -1.091  -1.754  -0.004  0.00  0.00     0.039 A 
ATOM     23  C   UNL d   1       0.273  -1.429  -0.009  0.00  0.00     0.026 A 
ATOM     24  C   UNL d   1       0.657  -0.098   0.014  0.00  0.00     0.034 A 
ATOM     25  C   UNL d   1      -0.310   0.901   0.030  0.00  0.00     0.033 A 
ATOM     26 CL   UNL d   1       2.321   0.336   0.006  0.00  0.00    -0.084 Cl
ATOM     27  C   UNL d   1      -1.688   0.594   0.013  0.00  0.00    -0.027 A 
ATOM     28  C   UNL d   1      -2.612   1.774  -0.040  0.00  0.00     0.051 C 
ENDBRANCH  20  21
ENDBRANCH  19  20
ENDBRANCH   1  19
TORSDOF 7
