REMARK  3 active torsions:
REMARK  status: ('A' for Active; 'I' for Inactive)
REMARK       I    between atoms: C_2  and  N_4 
REMARK    1  A    between atoms: N_4  and  C_5 
REMARK    2  A    between atoms: C_7  and  C_8 
REMARK       I    between atoms: C_8  and  N_10 
REMARK    3  A    between atoms: N_10  and  C_11 
ROOT
ATOM      1  C   UNL d   1       4.693   1.095   0.480  0.00  0.00     0.074 A 
ATOM      2  C   UNL d   1       5.411   1.652   1.553  0.00  0.00     0.050 A 
ATOM      3  C   UNL d   1       6.835   1.630   1.571  0.00  0.00     0.034 A 
ATOM      4  C   UNL d   1       7.519   1.086   0.477  0.00  0.00     0.020 A 
ATOM      5  C   UNL d   1       6.806   0.588  -0.613  0.00  0.00     0.046 A 
ATOM      6  C   UNL d   1       5.417   0.591  -0.606  0.00  0.00     0.143 A 
ATOM      7  F   UNL d   1       4.788   0.184  -1.719  0.00  0.00    -0.204 F 
ENDROOT
BRANCH   3   8
ATOM      8  C   UNL d   1       7.558   2.182   2.766  0.00  0.00     0.256 C 
ATOM      9  O   UNL d   1       6.878   2.728   3.639  0.00  0.00    -0.267 OA
ATOM     10  N   UNL d   1       8.953   2.130   2.808  0.00  0.00    -0.320 N 
ATOM     11  H   UNL d   1       9.476   1.988   1.955  0.00  0.00     0.169 HD
BRANCH  10  12
ATOM     12  C   UNL d   1       9.685   2.640   3.919  0.00  0.00     0.075 A 
ATOM     13  C   UNL d   1      10.782   3.480   3.683  0.00  0.00     0.034 A 
ATOM     14  C   UNL d   1      11.465   4.049   4.763  0.00  0.00     0.022 A 
ATOM     15  C   UNL d   1      11.070   3.715   6.048  0.00  0.00     0.118 A 
ATOM     16  N   UNL d   1      10.068   2.859   6.320  0.00  0.00    -0.246 NA
ATOM     17  C   UNL d   1       9.390   2.352   5.260  0.00  0.00     0.152 A 
ATOM     18 CL   UNL d   1       8.289   1.113   5.743  0.00  0.00    -0.060 Cl
ENDBRANCH  10  12
ENDBRANCH   3   8
BRANCH   1  19
ATOM     19  N   UNL d   1       3.269   1.050   0.482  0.00  0.00    -0.325 N 
ATOM     20  C   UNL d   1       2.588  -0.090   0.062  0.00  0.00     0.218 C 
ATOM     21  C   UNL d   1       1.083   0.005   0.089  0.00  0.00     0.117 C 
ATOM     22  O   UNL d   1       3.124  -1.151  -0.255  0.00  0.00    -0.274 OA
ATOM     23  H   UNL d   1       2.763   1.750   1.009  0.00  0.00     0.169 HD
ENDBRANCH   1  19
TORSDOF 3
