@<TRIPOS>MOLECULE
*****
 55 59 0 0 0
SMALL
GASTEIGER

@<TRIPOS>ATOM
      1 C           6.5267   10.4279   -2.9270 C.3     1  UNL1       -0.0306
      2 C           5.5386   10.4991   -1.7727 C.3     1  UNL1        0.0900
      3 O           6.1160    9.9080   -0.5872 O.3     1  UNL1       -0.4614
      4 C           5.2768    9.8749    0.4810 C.2     1  UNL1        0.3392
      5 O           4.1170   10.2870    0.4902 O.2     1  UNL1       -0.2450
      6 C           5.9091    9.3034    1.7036 C.ar    1  UNL1        0.0590
      7 C           5.1172    8.6052    2.6315 C.ar    1  UNL1       -0.0471
      8 C           5.6194    8.2646    3.9037 C.ar    1  UNL1       -0.0503
      9 C           6.9442    8.5463    4.2473 C.ar    1  UNL1        0.0173
     10 C           7.4642    8.2884    5.5934 C.ar    1  UNL1        0.1354
     11 C           8.0360    9.1570    6.4966 C.ar    1  UNL1       -0.0155
     12 C           8.3542    8.4101    7.6371 C.ar    1  UNL1       -0.0163
     13 C           8.0104    7.0951    7.3884 C.ar    1  UNL1        0.1480
     14 C           8.2030    5.8696    8.2866 C.3     1  UNL1        0.1759
     15 N           7.3324    6.0477    9.4878 N.2     1  UNL1       -0.2196
     16 C           7.9120    6.5766   10.5035 C.2     1  UNL1        0.2199
     17 O           7.2018    6.8408   11.6174 O.2     1  UNL1       -0.4921
     18 C           9.3044    6.9429   10.5670 C.ar    1  UNL1        0.0680
     19 C          10.1335    6.4273    9.6022 C.ar    1  UNL1        0.0803
     20 S          11.7486    6.9363    9.8064 S.2     1  UNL1       -0.0724
     21 C          11.3469    7.8619   11.1901 C.ar    1  UNL1        0.0400
     22 C           9.9928    7.7861   11.4833 C.ar    1  UNL1       -0.0130
     23 C           9.3868    8.4869   12.6641 C.3     1  UNL1        0.0144
     24 C          10.3383    9.5545   13.2149 C.3     1  UNL1       -0.0277
     25 N          11.7418    8.9724   13.3825 N.4     1  UNL1        0.2369
     26 C          11.7647    7.7739   14.2998 C.3     1  UNL1       -0.0427
     27 C          12.3423    8.6400   12.0055 C.3     1  UNL1        0.0005
     28 N           9.6252    5.6336    8.6308 N.pl3   1  UNL1       -0.3106
     29 O           7.4378    7.0102    6.1279 O.2     1  UNL1       -0.4559
     30 C           7.7314    9.2433    3.3073 C.ar    1  UNL1       -0.0503
     31 C           7.2281    9.6092    2.0440 C.ar    1  UNL1       -0.0471
     32 H           6.1045   10.8775   -3.8330 H       1  UNL1        0.0262
     33 H           6.7927    9.3897   -3.1494 H       1  UNL1        0.0262
     34 H           7.4542   10.9544   -2.6810 H       1  UNL1        0.0262
     35 H           4.6232    9.9637   -2.0528 H       1  UNL1        0.0695
     36 H           5.2957   11.5501   -1.5750 H       1  UNL1        0.0695
     37 H           4.0876    8.3512    2.3831 H       1  UNL1        0.0626
     38 H           4.9443    7.8446    4.6473 H       1  UNL1        0.0625
     39 H           8.1847   10.2149    6.3449 H       1  UNL1        0.0655
     40 H           8.8046    8.7726    8.5449 H       1  UNL1        0.0653
     41 H           7.8421    4.9728    7.7675 H       1  UNL1        0.0837
     42 H           6.2874    6.5520   11.4621 H       1  UNL1        0.2937
     43 H           9.1776    7.7416   13.4423 H       1  UNL1        0.0366
     44 H           8.4337    8.9507   12.3973 H       1  UNL1        0.0366
     45 H          10.0098    9.9346   14.1871 H       1  UNL1        0.0818
     46 H          10.4299   10.3994   12.5203 H       1  UNL1        0.0818
     47 H          12.3276    9.6982   13.8145 H       1  UNL1        0.2034
     48 H          11.2211    6.9472   13.8352 H       1  UNL1        0.0778
     49 H          11.2900    8.0583   15.2419 H       1  UNL1        0.0778
     50 H          12.8047    7.4849   14.4574 H       1  UNL1        0.0778
     51 H          13.2789    8.1044   12.1901 H       1  UNL1        0.0872
     52 H          12.5755    9.6071   11.5424 H       1  UNL1        0.0872
     53 H          10.1916    5.2211    7.8967 H       1  UNL1        0.1490
     54 H           8.7419    9.5543    3.5683 H       1  UNL1        0.0625
     55 H           7.8541   10.1750    1.3578 H       1  UNL1        0.0626
@<TRIPOS>UNITY_ATOM_ATTR
25 1
charge 1
@<TRIPOS>BOND
     1     1     2    1
     2     2     3    1
     3     3     4    1
     4     4     5    2
     5     4     6    1
     6     6     7   ar
     7     7     8   ar
     8     8     9   ar
     9     9    10    1
    10    10    11   ar
    11    11    12   ar
    12    12    13   ar
    13    14    15    1
    14    15    16    2
    15    16    17    1
    16    16    18    1
    17    18    19   ar
    18    19    20   ar
    19    20    21   ar
    20    21    22   ar
    21    18    22   ar
    22    22    23    1
    23    23    24    1
    24    24    25    1
    25    25    26    1
    26    25    27    1
    27    21    27    1
    28    19    28    1
    29    14    28    1
    30    13    29   ar
    31    10    29   ar
    32     9    30   ar
    33    30    31   ar
    34     6    31   ar
    35    14    13    1
    36     1    32    1
    37     1    33    1
    38     1    34    1
    39     2    35    1
    40     2    36    1
    41     7    37    1
    42     8    38    1
    43    11    39    1
    44    12    40    1
    45    14    41    1
    46    17    42    1
    47    23    43    1
    48    23    44    1
    49    24    45    1
    50    24    46    1
    51    25    47    1
    52    26    48    1
    53    26    49    1
    54    26    50    1
    55    27    51    1
    56    27    52    1
    57    28    53    1
    58    30    54    1
    59    31    55    1
