REMARK  5 active torsions:
REMARK  status: ('A' for Active; 'I' for Inactive)
REMARK    1  A    between atoms: C_2  and  C_3 
REMARK       I    between atoms: C_2  and  N_15 
REMARK    2  A    between atoms: C_3  and  N_4 
REMARK    3  A    between atoms: N_4  and  C_5 
REMARK    4  A    between atoms: N_15  and  C_16 
REMARK    5  A    between atoms: C_19  and  C_20 
ROOT
ATOM      1  O   UNL d   1       0.955  -0.115   0.051  0.00  0.00    -0.271 OA
ATOM      2  C   UNL d   1       2.185  -0.037  -0.023  0.00  0.00     0.239 C 
ATOM      3  N   UNL d   1       2.953  -1.130   0.329  0.00  0.00    -0.326 N 
ATOM      4  H   UNL d   1       2.426  -1.981   0.492  0.00  0.00     0.169 HD
ENDROOT
BRANCH   2   5
ATOM      5  C   UNL d   1       2.898   1.217  -0.579  0.00  0.00     0.223 C 
BRANCH   5   6
ATOM      6  N   UNL d   1       1.949   2.209  -1.078  0.00  0.00    -0.381 N 
ATOM      7  H   UNL d   1       1.002   2.112  -0.719  0.00  0.00     0.160 HD
BRANCH   6   8
ATOM      8  C   UNL d   1       2.404   3.463  -1.466  0.00  0.00     0.029 A 
ATOM      9  C   UNL d   1       1.743   4.626  -1.008  0.00  0.00     0.030 A 
ATOM     10  C   UNL d   1       2.096   5.910  -1.454  0.00  0.00     0.012 A 
ATOM     11  C   UNL d   1       3.144   6.023  -2.344  0.00  0.00    -0.025 A 
ATOM     12  C   UNL d   1       3.848   4.886  -2.734  0.00  0.00     0.042 A 
ATOM     13  C   UNL d   1       3.706   7.230  -3.016  0.00  0.00     0.162 A 
ATOM     14  C   UNL d   1       3.514   3.612  -2.307  0.00  0.00     0.046 A 
ATOM     15  C   UNL d   1       4.915   5.314  -3.642  0.00  0.00     0.252 A 
ATOM     16  O   UNL d   1       5.761   4.598  -4.154  0.00  0.00    -0.268 OA
ATOM     17  N   UNL d   1       4.788   6.676  -3.794  0.00  0.00    -0.353 N 
ATOM     18  H   UNL d   1       5.418   7.201  -4.386  0.00  0.00     0.163 HD
ENDBRANCH   6   8
ENDBRANCH   5   6
ENDBRANCH   2   5
BRANCH   3  19
ATOM     19  C   UNL d   1       4.351  -1.189   0.435  0.00  0.00     0.034 A 
ATOM     20  C   UNL d   1       5.034  -2.339   0.045  0.00  0.00     0.030 A 
ATOM     21  C   UNL d   1       6.428  -2.388   0.175  0.00  0.00     0.014 A 
ATOM     22  C   UNL d   1       7.157  -1.274   0.625  0.00  0.00    -0.026 A 
ATOM     23  C   UNL d   1       6.454  -0.153   1.058  0.00  0.00     0.014 A 
ATOM     24  C   UNL d   1       5.067  -0.132   0.994  0.00  0.00     0.030 A 
BRANCH  22  25
ATOM     25  C   UNL d   1       8.619  -1.290   0.655  0.00  0.00    -0.026 A 
ATOM     26  C   UNL d   1       9.351  -1.545  -0.514  0.00  0.00     0.012 A 
ATOM     27  C   UNL d   1      10.736  -1.691  -0.466  0.00  0.00     0.001 A 
ATOM     28  C   UNL d   1      11.414  -1.486   0.734  0.00  0.00     0.000 A 
ATOM     29  C   UNL d   1      10.706  -1.173   1.892  0.00  0.00     0.001 A 
ATOM     30  C   UNL d   1       9.315  -1.080   1.853  0.00  0.00     0.012 A 
ENDBRANCH  22  25
ENDBRANCH   3  19
TORSDOF 5
