REMARK  8 active torsions:
REMARK  status: ('A' for Active; 'I' for Inactive)
REMARK    1  A    between atoms: C_2  and  C_4 
REMARK       I    between atoms: C_4  and  N_6 
REMARK    2  A    between atoms: N_6  and  C_7 
REMARK    3  A    between atoms: C_10  and  N_11 
REMARK    4  A    between atoms: N_11  and  C_12 
REMARK    5  A    between atoms: C_12  and  C_13 
REMARK       I    between atoms: C_13  and  N_15 
REMARK    6  A    between atoms: N_15  and  C_16 
REMARK    7  A    between atoms: C_20  and  N_21 
REMARK       I    between atoms: N_21  and  C_22 
REMARK    8  A    between atoms: C_22  and  C_24 
ROOT
ATOM      1  C   UNL d   1       6.900   5.714   7.431  0.00  0.00     0.239 C 
ATOM      2  O   UNL d   1       7.936   6.194   6.962  0.00  0.00    -0.271 OA
ATOM      3  N   UNL d   1       6.453   5.925   8.742  0.00  0.00    -0.326 N 
ATOM      4  H   UNL d   1       5.674   5.396   9.111  0.00  0.00     0.169 HD
ENDROOT
BRANCH   1   5
ATOM      5  C   UNL d   1       6.046   4.773   6.570  0.00  0.00     0.223 C 
BRANCH   5   6
ATOM      6  N   UNL d   1       6.732   4.494   5.293  0.00  0.00    -0.381 N 
ATOM      7  H   UNL d   1       7.468   5.166   5.067  0.00  0.00     0.160 HD
BRANCH   6   8
ATOM      8  C   UNL d   1       6.126   3.809   4.254  0.00  0.00     0.028 A 
ATOM      9  C   UNL d   1       6.746   3.687   2.999  0.00  0.00     0.031 A 
ATOM     10  C   UNL d   1       6.157   2.945   1.950  0.00  0.00     0.032 A 
ATOM     11  C   UNL d   1       4.957   2.265   2.166  0.00  0.00     0.034 A 
ATOM     12  C   UNL d   1       4.353   2.370   3.415  0.00  0.00     0.032 A 
ATOM     13  C   UNL d   1       4.936   3.112   4.440  0.00  0.00     0.031 A 
BRANCH  11  14
ATOM     14  N   UNL d   1       4.399   1.409   1.184  0.00  0.00    -0.327 N 
ATOM     15  C   UNL d   1       3.030   1.200   1.062  0.00  0.00     0.225 C 
ATOM     16  O   UNL d   1       2.186   1.836   1.695  0.00  0.00    -0.273 OA
ATOM     17  H   UNL d   1       5.041   0.970   0.537  0.00  0.00     0.169 HD
BRANCH  15  18
ATOM     18  C   UNL d   1       2.590   0.116   0.074  0.00  0.00     0.070 C 
ATOM     19  C   UNL d   1       1.054   0.050   0.060  0.00  0.00     0.019 C 
ATOM     20  C   UNL d   1       3.086   0.398  -1.338  0.00  0.00     0.019 C 
ENDBRANCH  15  18
ENDBRANCH  11  14
ENDBRANCH   6   8
ENDBRANCH   5   6
ENDBRANCH   1   5
BRANCH   3  21
ATOM     21  C   UNL d   1       7.033   6.901   9.592  0.00  0.00     0.036 A 
ATOM     22  C   UNL d   1       7.082   6.777  10.976  0.00  0.00     0.029 A 
ATOM     23  C   UNL d   1       7.581   7.843  11.749  0.00  0.00     0.004 A 
ATOM     24  C   UNL d   1       8.036   9.028  11.141  0.00  0.00     0.029 A 
ATOM     25  C   UNL d   1       7.963   9.162   9.755  0.00  0.00     0.037 A 
ATOM     26  C   UNL d   1       7.487   8.082   9.021  0.00  0.00     0.059 A 
BRANCH  25  27
ATOM     27  N   UNL d   1       8.317  10.370   9.102  0.00  0.00    -0.323 N 
ATOM     28  C   UNL d   1       8.149  10.612   7.741  0.00  0.00     0.256 C 
ATOM     29  O   UNL d   1       7.663   9.864   6.885  0.00  0.00    -0.267 OA
ATOM     30  H   UNL d   1       8.640  11.131   9.687  0.00  0.00     0.169 HD
BRANCH  28  31
ATOM     31  C   UNL d   1       8.586  11.911   7.221  0.00  0.00     0.032 A 
ATOM     32  C   UNL d   1       7.834  12.524   6.206  0.00  0.00     0.017 A 
ATOM     33  C   UNL d   1       8.326  13.663   5.575  0.00  0.00     0.001 A 
ATOM     34  C   UNL d   1       9.536  14.213   5.997  0.00  0.00     0.000 A 
ATOM     35  C   UNL d   1      10.284  13.593   7.001  0.00  0.00     0.001 A 
ATOM     36  C   UNL d   1       9.820  12.429   7.606  0.00  0.00     0.017 A 
ENDBRANCH  28  31
ENDBRANCH  25  27
ENDBRANCH   3  21
TORSDOF 8
