REMARK  7 active torsions:
REMARK  status: ('A' for Active; 'I' for Inactive)
REMARK    1  A    between atoms: C_2  and  N_15 
REMARK    2  A    between atoms: C_3  and  C_4 
REMARK       I    between atoms: C_4  and  N_6 
REMARK    3  A    between atoms: N_6  and  C_7 
REMARK    4  A    between atoms: N_15  and  N_16 
REMARK       I    between atoms: N_16  and  C_17 
REMARK    5  A    between atoms: C_17  and  C_19 
REMARK    6  A    between atoms: C_21  and  N_22 
REMARK    7  A    between atoms: C_24  and  N_25 
ROOT
ATOM      1  N   UNL d   1       3.417   1.083   0.342  0.00  0.00    -0.302 N 
ATOM      2  H   UNL d   1       2.892   1.915   0.642  0.00  0.00     0.186 HD
ENDROOT
BRANCH   1   3
ATOM      3  C   UNL d   1       2.687  -0.081   0.045  0.00  0.00     0.027 C 
ATOM      4  C   UNL d   1       1.165   0.110   0.090  0.00  0.00     0.070 C 
ATOM      5  C   UNL d   1       3.260  -1.274  -0.271  0.00  0.00     0.100 C 
BRANCH   5   6
ATOM      6  C   UNL d   1       2.512  -2.552  -0.492  0.00  0.00     0.247 C 
ATOM      7  O   UNL d   1       1.347  -2.676  -0.111  0.00  0.00    -0.268 OA
ATOM      8  N   UNL d   1       3.209  -3.614  -1.048  0.00  0.00    -0.323 N 
ATOM      9  H   UNL d   1       4.200  -3.690  -0.859  0.00  0.00     0.169 HD
BRANCH   8  10
ATOM     10  C   UNL d   1       2.498  -4.796  -1.419  0.00  0.00     0.041 A 
ATOM     11  C   UNL d   1       2.900  -6.045  -0.917  0.00  0.00     0.032 A 
ATOM     12  C   UNL d   1       2.175  -7.207  -1.240  0.00  0.00     0.026 A 
ATOM     13  C   UNL d   1       1.083  -7.133  -2.099  0.00  0.00     0.034 A 
ATOM     14 CL   UNL d   1       0.203  -8.552  -2.521  0.00  0.00    -0.084 Cl
ATOM     15  C   UNL d   1       0.697  -5.909  -2.629  0.00  0.00     0.032 A 
ATOM     16  C   UNL d   1       1.386  -4.730  -2.291  0.00  0.00    -0.034 A 
ATOM     17  C   UNL d   1       0.911  -3.448  -2.923  0.00  0.00     0.050 C 
ENDBRANCH   8  10
ENDBRANCH   5   6
ENDBRANCH   1   3
BRANCH   1  18
ATOM     18  N   UNL d   1       4.819   1.206   0.375  0.00  0.00    -0.266 N 
ATOM     19  C   UNL d   1       5.426   2.384   0.797  0.00  0.00     0.270 C 
ATOM     20  O   UNL d   1       4.821   3.391   1.157  0.00  0.00    -0.266 OA
ATOM     21  H   UNL d   1       5.356   0.368   0.210  0.00  0.00     0.190 HD
BRANCH  19  22
ATOM     22  C   UNL d   1       6.930   2.378   0.808  0.00  0.00     0.038 A 
ATOM     23  C   UNL d   1       7.656   1.813  -0.256  0.00  0.00     0.046 A 
ATOM     24  C   UNL d   1       9.060   1.863  -0.291  0.00  0.00     0.029 A 
ATOM     25  C   UNL d   1       9.747   2.431   0.784  0.00  0.00     0.065 A 
ATOM     26  C   UNL d   1       9.034   2.997   1.851  0.00  0.00     0.106 A 
ATOM     27  C   UNL d   1       7.627   2.986   1.864  0.00  0.00     0.053 A 
BRANCH  24  28
ATOM     28  N   UNL d   1       9.762   1.174  -1.278  0.00  0.00    -0.399 N 
ATOM     29  H   UNL d   1       9.283   0.955  -2.145  0.00  0.00     0.156 HD
ATOM     30  H   UNL d   1      10.752   1.375  -1.386  0.00  0.00     0.156 HD
ENDBRANCH  24  28
BRANCH  26  31
ATOM     31  N   UNL d   1       9.781   3.591   2.972  0.00  0.00    -0.116 N 
ATOM     32  O   UNL d   1      11.020   3.574   2.916  0.00  0.00    -0.532 OA
ATOM     33  O   UNL d   1       9.129   4.065   3.912  0.00  0.00    -0.532 OA
ENDBRANCH  26  31
ENDBRANCH  19  22
ENDBRANCH   1  18
TORSDOF 7
