REMARK  5 active torsions:
REMARK  status: ('A' for Active; 'I' for Inactive)
REMARK    1  A    between atoms: O_2  and  C_3 
REMARK    2  A    between atoms: C_13  and  C_14 
REMARK    3  A    between atoms: C_14  and  C_16 
REMARK    4  A    between atoms: C_22  and  C_23 
REMARK    5  A    between atoms: C_27  and  N_28 
ROOT
ATOM      1  C   UNL d   1       3.023   0.944   0.757  0.00  0.00     0.069 A 
ATOM      2  C   UNL d   1       2.703   1.278   2.086  0.00  0.00     0.039 A 
ATOM      3  C   UNL d   1       3.425   2.258   2.757  0.00  0.00     0.033 A 
ATOM      4  C   UNL d   1       4.465   2.836   2.070  0.00  0.00     0.044 A 
ATOM      5  C   UNL d   1       4.808   2.536   0.746  0.00  0.00     0.018 A 
ATOM      6  C   UNL d   1       4.083   1.568   0.078  0.00  0.00     0.049 A 
ATOM      7  C   UNL d   1       5.985   3.405   0.325  0.00  0.00     0.249 C 
ATOM      8  C   UNL d   1       6.351   4.030   1.698  0.00  0.00     0.264 C 
ATOM      9  O   UNL d   1       7.348   4.671   1.947  0.00  0.00    -0.270 OA
ATOM     10  N   UNL d   1       5.362   3.724   2.604  0.00  0.00    -0.324 N 
ATOM     11  C   UNL d   1       5.612   4.385  -0.822  0.00  0.00     0.122 C 
ATOM     12  C   UNL d   1       6.338   3.762  -2.121  0.00  0.00     0.065 C 
ATOM     13  C   UNL d   1       7.120   2.495  -1.643  0.00  0.00     0.209 C 
ATOM     14  C   UNL d   1       8.541   2.259  -2.187  0.00  0.00     0.109 C 
ATOM     15  S   UNL d   1       9.699   2.444  -0.811  0.00  0.00    -0.140 SA
ATOM     16  C   UNL d   1       8.521   3.179   0.287  0.00  0.00     0.311 C 
ATOM     17  N   UNL d   1       7.197   2.610  -0.144  0.00  0.00    -0.034 N 
ATOM     18  H   UNL d   1       5.342   4.098   3.546  0.00  0.00     0.169 HD
ATOM     19  H   UNL d   1       7.177   1.683   0.298  0.00  0.00     0.283 HD
ENDROOT
BRANCH  11  20
ATOM     20  C   UNL d   1       5.817   5.927  -0.587  0.00  0.00     0.169 C 
ATOM     21  O   UNL d   1       6.412   6.645  -1.386  0.00  0.00    -0.292 OA
BRANCH  20  22
ATOM     22  C   UNL d   1       5.165   6.761   0.448  0.00  0.00     0.028 C 
ATOM     23  C   UNL d   1       5.304   6.647   1.820  0.00  0.00     0.018 C 
ATOM     24  C   UNL d   1       4.810   7.553   2.728  0.00  0.00     0.020 C 
ATOM     25  C   UNL d   1       4.135   8.616   2.215  0.00  0.00     0.116 C 
ATOM     26  N   UNL d   1       4.052   8.861   0.890  0.00  0.00    -0.272 NA
ATOM     27  C   UNL d   1       4.618   7.966   0.042  0.00  0.00     0.131 C 
ENDBRANCH  20  22
ENDBRANCH  11  20
BRANCH  12  28
ATOM     28  C   UNL d   1       7.221   4.711  -2.914  0.00  0.00    -0.049 C 
ATOM     29  C   UNL d   1       8.354   5.275  -2.295  0.00  0.00     0.007 C 
ATOM     30  C   UNL d   1       9.142   6.276  -2.814  0.00  0.00     0.003 C 
ATOM     31  C   UNL d   1       8.734   6.844  -3.989  0.00  0.00     0.036 C 
ATOM     32  C   UNL d   1       7.649   6.278  -4.683  0.00  0.00     0.103 C 
ATOM     33  C   UNL d   1       6.931   5.159  -4.196  0.00  0.00     0.043 C 
BRANCH  32  34
ATOM     34  N   UNL d   1       7.207   6.940  -5.906  0.00  0.00    -0.116 N 
ATOM     35  O   UNL d   1       7.796   7.976  -6.242  0.00  0.00    -0.532 OA
ATOM     36  O   UNL d   1       6.264   6.426  -6.522  0.00  0.00    -0.532 OA
ENDBRANCH  32  34
ENDBRANCH  12  28
BRANCH   1  37
ATOM     37  O   UNL d   1       2.408  -0.066   0.070  0.00  0.00    -0.356 OA
ATOM     38  C   UNL d   1       0.982  -0.023   0.111  0.00  0.00     0.210 C 
ENDBRANCH   1  37
TORSDOF 5
