@<TRIPOS>MOLECULE
*****
 56 59 0 0 0
SMALL
GASTEIGER

@<TRIPOS>ATOM
      1 C           1.0456   -0.0550   -0.0840 C.3     1  UNL1        0.0820
      2 O           2.4827   -0.0712   -0.0803 O.3     1  UNL1       -0.4645
      3 C           3.0431    0.5320   -1.1649 C.2     1  UNL1        0.3389
      4 O           2.4410    1.0557   -2.0807 O.2     1  UNL1       -0.2450
      5 C           4.5332    0.4805   -1.1126 C.ar    1  UNL1        0.0592
      6 C           5.2741    1.5685   -1.5922 C.ar    1  UNL1       -0.0443
      7 C           6.6706    1.4715   -1.7330 C.ar    1  UNL1       -0.0192
      8 C           7.3540    0.3182   -1.3313 C.ar    1  UNL1        0.1207
      9 O           8.7246    0.3541   -1.4507 O.3     1  UNL1       -0.4890
     10 C           9.4465   -0.7444   -0.8592 C.3     1  UNL1        0.1201
     11 C          10.9793   -0.5069   -0.8869 C.3     1  UNL1        0.1191
     12 N          11.7094   -1.6184   -0.2611 N.3     1  UNL1       -0.1784
     13 O          12.9782   -1.0290    0.1974 O.3     1  UNL1       -0.2698
     14 C          12.8376    0.3849    0.0780 C.3     1  UNL1        0.2084
     15 C          13.7175    0.8415   -1.1243 C.2     1  UNL1        0.2589
     16 O          13.2479    1.3497   -2.1454 O.2     1  UNL1       -0.2714
     17 N          15.0860    0.6584   -1.0012 N.am    1  UNL1       -0.3117
     18 C          15.9344    1.0069   -2.1227 C.3     1  UNL1        0.0156
     19 C          17.3947    0.7290   -1.8559 C.3     1  UNL1       -0.0092
     20 C          18.3520    1.0305   -2.9659 C.2     1  UNL1        0.0092
     21 C          19.6594    0.8490   -2.7832 C.ar    1  UNL1        0.0536
     22 C          20.3801    0.3966   -1.6480 C.ar    1  UNL1       -0.0129
     23 C          21.7101    0.4816   -1.6824 C.ar    1  UNL1        0.1244
     24 F          22.4155    0.2140   -0.5690 F       1  UNL1       -0.2055
     25 C          22.4185    0.8818   -2.8838 C.ar    1  UNL1       -0.0202
     26 C          21.8011    1.2692   -4.0226 C.ar    1  UNL1        0.0125
     27 C          20.3197    1.2888   -4.0173 C.ar    1  UNL1        0.2087
     28 N          19.4667    1.6386   -4.9055 N.2     1  UNL1       -0.2369
     29 C          18.0777    1.5671   -4.3448 C.3     1  UNL1        0.1661
     30 N          11.4228    0.6682   -0.1522 N.3     1  UNL1       -0.2627
     31 C           6.6084   -0.7617   -0.8496 C.ar    1  UNL1       -0.0192
     32 C           5.2082   -0.6838   -0.7391 C.ar    1  UNL1       -0.0443
     33 H           0.6895   -0.5126    0.8449 H       1  UNL1        0.0661
     34 H           0.6560   -0.6421   -0.9226 H       1  UNL1        0.0661
     35 H           0.6604    0.9701   -0.1250 H       1  UNL1        0.0661
     36 H           4.7690    2.4925   -1.8687 H       1  UNL1        0.0627
     37 H           7.2202    2.3013   -2.1730 H       1  UNL1        0.0654
     38 H           9.2335   -1.6467   -1.4475 H       1  UNL1        0.0727
     39 H           9.1273   -0.9003    0.1790 H       1  UNL1        0.0727
     40 H          11.2847   -0.4120   -1.9380 H       1  UNL1        0.0684
     41 H          12.0296   -2.2570   -0.9894 H       1  UNL1        0.1558
     42 H          13.1925    0.8824    0.9871 H       1  UNL1        0.0888
     43 H          15.4647    0.2348   -0.1578 H       1  UNL1        0.1488
     44 H          15.7882    2.0703   -2.3401 H       1  UNL1        0.0465
     45 H          15.6015    0.4298   -2.9919 H       1  UNL1        0.0465
     46 H          17.5104   -0.3316   -1.5921 H       1  UNL1        0.0327
     47 H          17.7024    1.3010   -0.9680 H       1  UNL1        0.0327
     48 H          19.8564    0.0489   -0.7662 H       1  UNL1        0.0654
     49 H          23.5019    0.8202   -2.8112 H       1  UNL1        0.0648
     50 H          22.3767    1.5624   -4.8927 H       1  UNL1        0.0684
     51 H          19.7368    1.9162   -5.8495 H       1  UNL1        0.4459
     52 H          17.4785    0.8883   -4.9573 H       1  UNL1        0.1077
     53 H          17.6543    2.5772   -4.3401 H       1  UNL1        0.1077
     54 H          11.3183    1.4909   -0.7438 H       1  UNL1        0.1265
     55 H           7.0839   -1.6967   -0.5723 H       1  UNL1        0.0654
     56 H           4.6543   -1.5513   -0.3897 H       1  UNL1        0.0627
@<TRIPOS>UNITY_ATOM_ATTR
28 1
charge 1
@<TRIPOS>BOND
     1     1     2    1
     2     2     3    1
     3     3     4    2
     4     3     5    1
     5     5     6   ar
     6     6     7   ar
     7     7     8   ar
     8     8     9    1
     9     9    10    1
    10    10    11    1
    11    11    12    1
    12    12    13    1
    13    13    14    1
    14    14    15    1
    15    15    16    2
    16    15    17   am
    17    17    18    1
    18    18    19    1
    19    19    20    1
    20    20    21    2
    21    21    22   ar
    22    22    23   ar
    23    23    24    1
    24    23    25   ar
    25    25    26   ar
    26    26    27   ar
    27    21    27   ar
    28    27    28    2
    29    28    29    1
    30    20    29    1
    31    14    30    1
    32    11    30    1
    33     8    31   ar
    34    31    32   ar
    35     5    32   ar
    36     1    33    1
    37     1    34    1
    38     1    35    1
    39     6    36    1
    40     7    37    1
    41    10    38    1
    42    10    39    1
    43    11    40    1
    44    12    41    1
    45    14    42    1
    46    17    43    1
    47    18    44    1
    48    18    45    1
    49    19    46    1
    50    19    47    1
    51    22    48    1
    52    25    49    1
    53    26    50    1
    54    28    51    1
    55    29    52    1
    56    29    53    1
    57    30    54    1
    58    31    55    1
    59    32    56    1
