REMARK  6 active torsions:
REMARK  status: ('A' for Active; 'I' for Inactive)
REMARK    1  A    between atoms: C_2  and  C_3 
REMARK       I    between atoms: C_2  and  N_15 
REMARK    2  A    between atoms: C_3  and  C_4 
REMARK    3  A    between atoms: C_4  and  C_5 
REMARK       I    between atoms: C_5  and  N_7 
REMARK    4  A    between atoms: N_7  and  C_8 
REMARK    5  A    between atoms: N_15  and  N_16 
REMARK       I    between atoms: N_16  and  C_17 
REMARK    6  A    between atoms: C_17  and  C_19 
ROOT
ATOM      1  O   UNL d   1       1.154  -0.003   0.087  0.00  0.00    -0.272 OA
ATOM      2  C   UNL d   1       2.386   0.026   0.014  0.00  0.00     0.236 C 
ATOM      3  N   UNL d   1       3.154  -0.368   1.090  0.00  0.00    -0.268 N 
ATOM      4  H   UNL d   1       2.665  -0.675   1.934  0.00  0.00     0.190 HD
ENDROOT
BRANCH   2   5
ATOM      5  C   UNL d   1       3.092   0.488  -1.242  0.00  0.00     0.114 C 
BRANCH   5   6
ATOM      6  C   UNL d   1       2.135   0.913  -2.382  0.00  0.00     0.112 C 
BRANCH   6   7
ATOM      7  C   UNL d   1       2.949   1.404  -3.570  0.00  0.00     0.222 C 
ATOM      8  O   UNL d   1       4.170   1.544  -3.462  0.00  0.00    -0.273 OA
ATOM      9  N   UNL d   1       2.239   1.730  -4.725  0.00  0.00    -0.326 N 
ATOM     10  H   UNL d   1       1.261   1.983  -4.636  0.00  0.00     0.169 HD
BRANCH   9  11
ATOM     11  C   UNL d   1       2.938   2.147  -5.900  0.00  0.00     0.056 A 
ATOM     12  C   UNL d   1       2.549   3.322  -6.569  0.00  0.00     0.031 A 
ATOM     13  C   UNL d   1       3.308   3.808  -7.650  0.00  0.00     0.002 A 
ATOM     14  C   UNL d   1       4.435   3.116  -8.092  0.00  0.00     0.002 A 
ATOM     15  C   UNL d   1       4.788   1.918  -7.480  0.00  0.00     0.026 A 
ATOM     16  C   UNL d   1       4.037   1.424  -6.409  0.00  0.00     0.060 A 
ATOM     17 CL   UNL d   1       4.427  -0.183  -5.879  0.00  0.00    -0.082 Cl
ENDBRANCH   9  11
ENDBRANCH   6   7
ENDBRANCH   5   6
ENDBRANCH   2   5
BRANCH   3  18
ATOM     18  N   UNL d   1       4.567  -0.350   1.170  0.00  0.00    -0.267 N 
ATOM     19  C   UNL d   1       5.166  -0.829   2.332  0.00  0.00     0.240 C 
ATOM     20  O   UNL d   1       4.501  -1.194   3.307  0.00  0.00    -0.271 OA
ATOM     21  H   UNL d   1       5.105  -0.101   0.347  0.00  0.00     0.190 HD
BRANCH  19  22
ATOM     22  C   UNL d   1       6.706  -0.828   2.341  0.00  0.00     0.079 C 
ATOM     23  C   UNL d   1       7.238   0.384   3.127  0.00  0.00     0.014 C 
ATOM     24  C   UNL d   1       8.764   0.369   3.275  0.00  0.00     0.001 C 
ATOM     25  C   UNL d   1       9.263  -0.932   3.896  0.00  0.00     0.000 C 
ATOM     26  C   UNL d   1       8.771  -2.130   3.094  0.00  0.00     0.001 C 
ATOM     27  C   UNL d   1       7.246  -2.129   2.965  0.00  0.00     0.014 C 
ENDBRANCH  19  22
ENDBRANCH   3  18
TORSDOF 6
