REMARK  9 active torsions:
REMARK  status: ('A' for Active; 'I' for Inactive)
REMARK    1  A    between atoms: C_2  and  C_3 
REMARK       I    between atoms: C_2  and  N_30 
REMARK    2  A    between atoms: C_3  and  S_4 
REMARK    3  A    between atoms: S_4  and  C_5 
REMARK    4  A    between atoms: N_15  and  N_16 
REMARK       I    between atoms: N_16  and  C_17 
REMARK    5  A    between atoms: C_17  and  C_19 
REMARK    6  A    between atoms: C_19  and  C_20 
REMARK    7  A    between atoms: C_20  and  C_21 
REMARK    8  A    between atoms: N_30  and  C_31 
REMARK    9  A    between atoms: C_31  and  C_32 
ROOT
ATOM      1  C   UNL d   1       2.639   0.936   4.127  0.00  0.00     0.274 C 
ATOM      2  N   UNL d   1       2.387   2.289   4.590  0.00  0.00    -0.358 N 
ATOM      3  C   UNL d   1       2.392   2.593   5.943  0.00  0.00     0.046 A 
ATOM      4  C   UNL d   1       2.371   3.914   6.400  0.00  0.00     0.030 A 
ATOM      5  C   UNL d   1       2.461   4.215   7.773  0.00  0.00     0.002 A 
ATOM      6  C   UNL d   1       2.554   3.199   8.720  0.00  0.00     0.001 A 
ATOM      7  C   UNL d   1       2.598   1.886   8.286  0.00  0.00     0.019 A 
ATOM      8  C   UNL d   1       2.552   1.605   6.912  0.00  0.00     0.060 A 
ATOM      9  C   UNL d   1       2.636   0.211   6.481  0.00  0.00     0.277 C 
ATOM     10  O   UNL d   1       3.013  -0.604   7.325  0.00  0.00    -0.266 OA
ATOM     11  N   UNL d   1       2.257  -0.043   5.161  0.00  0.00    -0.221 N 
ATOM     12  H   UNL d   1       1.868   2.894   3.965  0.00  0.00     0.162 HD
ENDROOT
BRANCH  11  13
ATOM     13  N   UNL d   1       2.134  -1.431   4.718  0.00  0.00    -0.262 N 
ATOM     14  C   UNL d   1       1.578  -2.361   5.595  0.00  0.00     0.236 C 
ATOM     15  O   UNL d   1       1.308  -2.189   6.780  0.00  0.00    -0.272 OA
ATOM     16  H   UNL d   1       1.856  -1.508   3.741  0.00  0.00     0.190 HD
BRANCH  14  17
ATOM     17  C   UNL d   1       1.223  -3.694   4.990  0.00  0.00     0.109 C 
BRANCH  17  18
ATOM     18  C   UNL d   1       0.916  -4.632   6.168  0.00  0.00     0.046 C 
BRANCH  18  19
ATOM     19  C   UNL d   1       0.580  -6.013   5.758  0.00  0.00    -0.050 A 
ATOM     20  C   UNL d   1       1.090  -7.122   6.292  0.00  0.00    -0.006 A 
ATOM     21  C   UNL d   1       2.010  -7.372   7.349  0.00  0.00     0.014 A 
ATOM     22  C   UNL d   1       0.497  -8.213   5.505  0.00  0.00     0.038 A 
ATOM     23  C   UNL d   1       2.350  -8.642   7.605  0.00  0.00     0.001 A 
ATOM     24  C   UNL d   1       1.803  -9.746   6.829  0.00  0.00     0.002 A 
ATOM     25  C   UNL d   1       0.919  -9.588   5.823  0.00  0.00     0.030 A 
ATOM     26  N   UNL d   1      -0.313  -7.783   4.613  0.00  0.00    -0.385 N 
ATOM     27  C   UNL d   1      -0.396  -6.312   4.666  0.00  0.00     0.155 A 
ATOM     28  H   UNL d   1      -0.805  -8.385   3.958  0.00  0.00     0.160 HD
ENDBRANCH  18  19
ENDBRANCH  17  18
ENDBRANCH  14  17
ENDBRANCH  11  13
BRANCH   1  29
ATOM     29  S   UNL d   1       1.661   0.701   2.595  0.00  0.00    -0.112 SA
BRANCH  29  30
ATOM     30  C   UNL d   1       2.938   0.382   1.290  0.00  0.00     0.180 C 
BRANCH  30  31
ATOM     31  C   UNL d   1       2.235   0.061  -0.054  0.00  0.00     0.227 C 
ATOM     32  O   UNL d   1       1.012   0.002  -0.184  0.00  0.00    -0.273 OA
ATOM     33  N   UNL d   1       2.995  -0.196  -1.163  0.00  0.00    -0.354 N 
ATOM     34  H   UNL d   1       2.457  -0.394  -2.002  0.00  0.00     0.162 HD
BRANCH  33  35
ATOM     35  C   UNL d   1       4.436  -0.237  -1.251  0.00  0.00     0.187 C 
BRANCH  35  36
ATOM     36  C   UNL d   1       4.876  -0.423  -2.657  0.00  0.00     0.070 A 
ATOM     37  C   UNL d   1       5.331   0.475  -3.600  0.00  0.00     0.036 A 
ATOM     38  C   UNL d   1       5.638  -0.271  -4.760  0.00  0.00     0.027 A 
ATOM     39  C   UNL d   1       5.363  -1.584  -4.453  0.00  0.00     0.142 A 
ATOM     40  O   UNL d   1       4.898  -1.688  -3.175  0.00  0.00    -0.325 OA
ENDBRANCH  35  36
ENDBRANCH  33  35
ENDBRANCH  30  31
ENDBRANCH  29  30
ENDBRANCH   1  29
TORSDOF 9
