@<TRIPOS>MOLECULE
*****
 74 78 0 0 0
SMALL
GASTEIGER

@<TRIPOS>ATOM
      1 O           3.1028    3.1761   -0.5078 O.2     1  UNL1       -0.2753
      2 C           2.4176    2.1884   -0.8553 C.2     1  UNL1        0.2213
      3 N           1.0759    2.1768   -1.1416 N.am    1  UNL1       -0.3117
      4 C           0.1521    3.2807   -1.1873 C.3     1  UNL1        0.0458
      5 C          -1.2071    2.7734   -1.6897 C.3     1  UNL1        0.1050
      6 O          -2.0971    3.8679   -1.7277 O.3     1  UNL1       -0.4904
      7 C          -3.4091    3.5913   -1.9781 C.ar    1  UNL1        0.1206
      8 C          -4.1008    4.6328   -2.5953 C.ar    1  UNL1       -0.0199
      9 C          -5.4870    4.5837   -2.7149 C.ar    1  UNL1       -0.0583
     10 C          -6.1791    3.4497   -2.2994 C.ar    1  UNL1       -0.0615
     11 C          -5.4866    2.3833   -1.7277 C.ar    1  UNL1       -0.0583
     12 C          -4.1001    2.4537   -1.5597 C.ar    1  UNL1       -0.0199
     13 C           2.9545    0.7998   -1.0471 C.3     1  UNL1        0.0762
     14 C           2.6650    0.4692   -2.5161 C.3     1  UNL1       -0.0209
     15 C           2.5726   -1.0194   -2.6398 C.3     1  UNL1        0.0766
     16 C           2.0693   -1.3935   -4.0253 C.2     1  UNL1        0.2254
     17 O           2.7949   -2.0871   -4.7624 O.2     1  UNL1       -0.2750
     18 N           0.8225   -0.8942   -4.3714 N.am    1  UNL1       -0.2851
     19 C           0.1141   -1.2556   -5.5380 C.ar    1  UNL1        0.0337
     20 C          -0.5663   -0.2982   -6.3087 C.ar    1  UNL1       -0.0402
     21 C          -1.0981   -0.6949   -7.5392 C.ar    1  UNL1       -0.0566
     22 C          -0.9861   -2.0427   -7.8444 C.ar    1  UNL1       -0.0441
     23 C          -0.8558   -3.0457   -6.9277 C.ar    1  UNL1       -0.0424
     24 C          -0.0118   -2.6196   -5.8596 C.ar    1  UNL1       -0.0370
     25 C          -0.8445   -4.5397   -7.8249 C.3     1  UNL1       -0.0271
     26 C           0.5180   -4.0921   -7.9716 C.3     1  UNL1       -0.0450
     27 C          -0.4632   -2.8708   -8.9484 C.3     1  UNL1       -0.0271
     28 C           3.9783   -1.5428   -2.3872 C.3     1  UNL1       -0.0202
     29 N           4.5539   -1.1225   -1.0109 N.4     1  UNL1        0.2396
     30 C           6.0123   -1.6066   -0.7999 C.3     1  UNL1       -0.0059
     31 C           6.2431   -3.1059   -0.9117 C.ar    1  UNL1       -0.0027
     32 C           6.8426   -3.8681    0.1071 C.ar    1  UNL1       -0.0501
     33 C           7.1573   -5.2266   -0.1057 C.ar    1  UNL1       -0.0197
     34 C           6.7516   -5.8605   -1.2752 C.ar    1  UNL1        0.1169
     35 O           6.9405   -7.1860   -1.5085 O.3     1  UNL1       -0.5068
     36 C           6.1466   -5.1373   -2.2792 C.ar    1  UNL1       -0.0197
     37 C           5.9751   -3.7689   -2.1204 C.ar    1  UNL1       -0.0501
     38 C           4.4010    0.4249   -0.7367 C.3     1  UNL1       -0.0202
     39 H           0.6499    1.2829   -1.3520 H       1  UNL1        0.1488
     40 H           0.5484    4.0682   -1.8357 H       1  UNL1        0.0495
     41 H           0.0763    3.6761   -0.1720 H       1  UNL1        0.0495
     42 H          -1.5394    1.9660   -1.0245 H       1  UNL1        0.0712
     43 H          -1.1061    2.3535   -2.7008 H       1  UNL1        0.0712
     44 H          -3.5558    5.4977   -2.9655 H       1  UNL1        0.0654
     45 H          -6.0266    5.4419   -3.1055 H       1  UNL1        0.0619
     46 H          -7.2592    3.4035   -2.4132 H       1  UNL1        0.0618
     47 H          -6.0361    1.5141   -1.3739 H       1  UNL1        0.0619
     48 H          -3.6098    1.6274   -1.0596 H       1  UNL1        0.0654
     49 H           2.3359    0.1929   -0.3666 H       1  UNL1        0.0447
     50 H           3.4555    0.8795   -3.1592 H       1  UNL1        0.0283
     51 H           1.7568    0.9183   -2.9158 H       1  UNL1        0.0283
     52 H           1.8825   -1.4619   -1.9071 H       1  UNL1        0.0447
     53 H           0.3076   -0.2610   -3.7722 H       1  UNL1        0.1548
     54 H          -0.5665    0.7597   -6.0534 H       1  UNL1        0.0636
     55 H          -1.5867    0.0117   -8.2092 H       1  UNL1        0.0621
     56 H           0.6846   -3.3038   -5.3722 H       1  UNL1        0.0639
     57 H          -0.6904   -4.8989   -8.9106 H       1  UNL1        0.0313
     58 H          -1.4172   -5.3320   -7.3823 H       1  UNL1        0.0313
     59 H           1.2758   -4.7259   -8.4229 H       1  UNL1        0.0272
     60 H           0.5949   -4.5044   -6.9076 H       1  UNL1        0.0272
     61 H          -1.4897   -3.2273   -9.3005 H       1  UNL1        0.0313
     62 H          -0.0004   -2.5124   -9.8549 H       1  UNL1        0.0313
     63 H           4.6890   -1.1803   -3.1414 H       1  UNL1        0.0822
     64 H           3.8872   -2.6259   -2.3957 H       1  UNL1        0.0822
     65 H           4.0276   -1.6314   -0.2878 H       1  UNL1        0.2037
     66 H           6.3079   -1.2532    0.1967 H       1  UNL1        0.0867
     67 H           6.6299   -1.0878   -1.5415 H       1  UNL1        0.0867
     68 H           7.1181   -3.4281    1.0655 H       1  UNL1        0.0623
     69 H           7.7384   -5.7712    0.6348 H       1  UNL1        0.0654
     70 H           7.3179   -7.6124   -0.7228 H       1  UNL1        0.2921
     71 H           5.8512   -5.6144   -3.2102 H       1  UNL1        0.0654
     72 H           5.6386   -3.2438   -3.0055 H       1  UNL1        0.0623
     73 H           5.1226    0.9378   -1.3814 H       1  UNL1        0.0822
     74 H           4.6610    0.5969    0.3145 H       1  UNL1        0.0822
@<TRIPOS>UNITY_ATOM_ATTR
29 1
charge 1
@<TRIPOS>BOND
     1     1     2    2
     2     2     3   am
     3     3     4    1
     4     4     5    1
     5     5     6    1
     6     6     7    1
     7     7     8   ar
     8     8     9   ar
     9     9    10   ar
    10    10    11   ar
    11    11    12   ar
    12     7    12   ar
    13    13    14    1
    14    14    15    1
    15    15    16    1
    16    16    17    2
    17    16    18   am
    18    18    19    1
    19    19    20   ar
    20    20    21   ar
    21    21    22   ar
    22    22    23   ar
    23    23    24   ar
    24    19    24   ar
    25    23    25    1
    26    25    26    1
    27    26    27    1
    28    22    27    1
    29    15    28    1
    30    28    29    1
    31    29    30    1
    32    30    31    1
    33    31    32   ar
    34    32    33   ar
    35    33    34   ar
    36    34    35    1
    37    34    36   ar
    38    36    37   ar
    39    31    37   ar
    40    29    38    1
    41    13    38    1
    42    13     2    1
    43     3    39    1
    44     4    40    1
    45     4    41    1
    46     5    42    1
    47     5    43    1
    48     8    44    1
    49     9    45    1
    50    10    46    1
    51    11    47    1
    52    12    48    1
    53    13    49    1
    54    14    50    1
    55    14    51    1
    56    15    52    1
    57    18    53    1
    58    20    54    1
    59    21    55    1
    60    24    56    1
    61    25    57    1
    62    25    58    1
    63    26    59    1
    64    26    60    1
    65    27    61    1
    66    27    62    1
    67    28    63    1
    68    28    64    1
    69    29    65    1
    70    30    66    1
    71    30    67    1
    72    32    68    1
    73    33    69    1
    74    35    70    1
    75    36    71    1
    76    37    72    1
    77    38    73    1
    78    38    74    1
