@<TRIPOS>MOLECULE
*****
 57 60 0 0 0
SMALL
GASTEIGER

@<TRIPOS>ATOM
      1 O           1.1803    0.1068   -0.0576 O.2     1  UNL1       -0.2513
      2 C           2.4080    0.0754   -0.0381 C.2     1  UNL1        0.3160
      3 N           3.0842   -0.8817    0.6732 N.am    1  UNL1       -0.2977
      4 C           2.3727   -1.8994    1.4405 C.3     1  UNL1        0.0227
      5 C           3.3284   -2.8344    2.1658 C.3     1  UNL1        0.0495
      6 C           2.6604   -3.9368    2.8925 C.ar    1  UNL1        0.2014
      7 C           2.9091   -5.2844    2.8211 C.ar    1  UNL1        0.0767
      8 N           2.1017   -5.9092    3.7471 N.ar    1  UNL1       -0.2929
      9 C           1.3480   -5.0057    4.3791 C.ar    1  UNL1        0.2593
     10 N           1.6760   -3.8093    3.8664 N.ar    1  UNL1       -0.1958
     11 C           0.3797   -5.3164    5.4564 C.3     1  UNL1        0.0505
     12 C           0.2588   -6.7817    5.8349 C.3     1  UNL1       -0.0403
     13 C           1.1370   -7.7958    5.1053 C.3     1  UNL1       -0.0342
     14 C           2.1051   -7.3331    4.0291 C.3     1  UNL1        0.0284
     15 N           3.1654    0.9987   -0.7216 N.am    1  UNL1       -0.2179
     16 N           4.5790    1.0503   -0.8121 N.am    1  UNL1       -0.2266
     17 C           5.2052    2.1038   -1.5002 C.2     1  UNL1        0.2955
     18 O           4.5418    2.9823   -2.0599 O.2     1  UNL1       -0.2653
     19 C           6.6670    2.0293   -1.5167 C.ar    1  UNL1        0.1910
     20 C           7.5019    0.9345   -1.6755 C.ar    1  UNL1       -0.0108
     21 C           8.8310    1.4068   -1.6326 C.ar    1  UNL1       -0.0165
     22 C           8.7696    2.7709   -1.4315 C.ar    1  UNL1        0.1432
     23 C           9.9063    3.7514   -1.3110 C.3     1  UNL1        0.1469
     24 O           9.4344    5.0602   -1.0113 O.3     1  UNL1       -0.4843
     25 C          10.4083    6.0320   -0.9766 C.ar    1  UNL1        0.1211
     26 C          10.2108    7.0535   -0.0445 C.ar    1  UNL1       -0.0199
     27 C          11.0500    8.1720   -0.0248 C.ar    1  UNL1       -0.0583
     28 C          12.1358    8.2459   -0.8939 C.ar    1  UNL1       -0.0615
     29 C          12.3560    7.2201   -1.8101 C.ar    1  UNL1       -0.0583
     30 C          11.4888    6.1211   -1.8605 C.ar    1  UNL1       -0.0199
     31 O           7.4507    3.1649   -1.3848 O.2     1  UNL1       -0.4516
     32 H           4.0868   -0.8638    0.6656 H       1  UNL1        0.1503
     33 H           1.7285   -2.4637    0.7540 H       1  UNL1        0.0468
     34 H           1.7120   -1.3969    2.1577 H       1  UNL1        0.0468
     35 H           3.9587   -2.2837    2.8726 H       1  UNL1        0.0388
     36 H           4.0052   -3.2909    1.4311 H       1  UNL1        0.0388
     37 H           3.5948   -5.8774    2.2391 H       1  UNL1        0.0874
     38 H           1.2552   -2.9354    4.1774 H       1  UNL1        0.4544
     39 H          -0.5834   -4.9221    5.1183 H       1  UNL1        0.0389
     40 H           0.7123   -4.7320    6.3199 H       1  UNL1        0.0389
     41 H          -0.7898   -7.0891    5.7287 H       1  UNL1        0.0271
     42 H           0.4634   -6.8735    6.9095 H       1  UNL1        0.0271
     43 H           0.4881   -8.5674    4.6703 H       1  UNL1        0.0283
     44 H           1.7237   -8.3326    5.8623 H       1  UNL1        0.0283
     45 H           1.8944   -7.8560    3.0890 H       1  UNL1        0.0493
     46 H           3.1267   -7.5942    4.3300 H       1  UNL1        0.0493
     47 H           2.6553    1.7107   -1.2504 H       1  UNL1        0.1744
     48 H           5.1373    0.4140   -0.2672 H       1  UNL1        0.1733
     49 H           7.1882   -0.0834   -1.8508 H       1  UNL1        0.0657
     50 H           9.7432    0.8363   -1.7474 H       1  UNL1        0.0653
     51 H          10.4674    3.7151   -2.2514 H       1  UNL1        0.0779
     52 H          10.5642    3.4201   -0.4965 H       1  UNL1        0.0779
     53 H           9.3920    6.9857    0.6665 H       1  UNL1        0.0654
     54 H          10.8433    8.9956    0.6541 H       1  UNL1        0.0619
     55 H          12.8007    9.1061   -0.8654 H       1  UNL1        0.0618
     56 H          13.1847    7.2928   -2.5112 H       1  UNL1        0.0619
     57 H          11.6674    5.3789   -2.6300 H       1  UNL1        0.0654
@<TRIPOS>UNITY_ATOM_ATTR
10 1
charge 1
@<TRIPOS>BOND
     1     1     2    2
     2     2     3   am
     3     3     4    1
     4     4     5    1
     5     5     6    1
     6     6     7   ar
     7     7     8   ar
     8     8     9   ar
     9     9    10   ar
    10     6    10   ar
    11     9    11    1
    12    11    12    1
    13    12    13    1
    14    13    14    1
    15     8    14    1
    16     2    15   am
    17    15    16    1
    18    16    17   am
    19    17    18    2
    20    17    19    1
    21    19    20   ar
    22    20    21   ar
    23    21    22   ar
    24    22    23    1
    25    23    24    1
    26    24    25    1
    27    25    26   ar
    28    26    27   ar
    29    27    28   ar
    30    28    29   ar
    31    29    30   ar
    32    25    30   ar
    33    22    31   ar
    34    19    31   ar
    35     3    32    1
    36     4    33    1
    37     4    34    1
    38     5    35    1
    39     5    36    1
    40     7    37    1
    41    10    38    1
    42    11    39    1
    43    11    40    1
    44    12    41    1
    45    12    42    1
    46    13    43    1
    47    13    44    1
    48    14    45    1
    49    14    46    1
    50    15    47    1
    51    16    48    1
    52    20    49    1
    53    21    50    1
    54    23    51    1
    55    23    52    1
    56    26    53    1
    57    27    54    1
    58    28    55    1
    59    29    56    1
    60    30    57    1
