REMARK  10 active torsions:
REMARK  status: ('A' for Active; 'I' for Inactive)
REMARK    1  A    between atoms: N_6  and  C_7 
REMARK    2  A    between atoms: C_9  and  C_10 
REMARK    3  A    between atoms: C_10  and  C_11 
REMARK    4  A    between atoms: C_15  and  S_16 
REMARK    5  A    between atoms: S_16  and  C_17 
REMARK    6  A    between atoms: C_17  and  C_18 
REMARK    7  A    between atoms: C_18  and  C_19 
REMARK       I    between atoms: C_19  and  N_21 
REMARK    8  A    between atoms: N_21  and  C_22 
REMARK    9  A    between atoms: C_26  and  C_27 
REMARK   10  A    between atoms: C_27  and  N_28 
ROOT
ATOM      1  C   UNL d   1       8.451  -5.412  -2.241  0.00  0.00     0.090 C 
ENDROOT
BRANCH   1   2
ATOM      2  S   UNL d   1       6.847  -4.506  -2.512  0.00  0.00    -0.109 SA
BRANCH   2   3
ATOM      3  C   UNL d   1       6.646  -3.431  -1.077  0.00  0.00     0.114 C 
ATOM      4  C   UNL d   1       7.494  -3.483  -0.004  0.00  0.00     0.067 C 
ATOM      5  C   UNL d   1       7.428  -2.497   0.968  0.00  0.00     0.057 C 
ATOM      6  N   UNL d   1       6.477  -1.553   0.926  0.00  0.00    -0.065 NA
ATOM      7  C   UNL d   1       5.564  -1.665  -0.074  0.00  0.00     0.751 C 
ATOM      8  N   UNL d   1       5.630  -2.559  -1.095  0.00  0.00    -0.054 NA
BRANCH   5   9
ATOM      9  C   UNL d   1       8.441  -2.433   2.099  0.00  0.00     0.064 C 
BRANCH   9  10
ATOM     10  C   UNL d   1       9.614  -3.428   1.938  0.00  0.00    -0.017 C 
ATOM     11  C   UNL d   1      10.464  -3.120   0.691  0.00  0.00     0.010 C 
ATOM     12  C   UNL d   1      10.534  -3.429   3.152  0.00  0.00     0.010 C 
ENDBRANCH   9  10
ENDBRANCH   5   9
BRANCH   7  13
ATOM     13  N   UNL d   1       4.467  -0.744  -0.068  0.00  0.00    -0.064 N 
ATOM     14  C   UNL d   1       4.545   0.636   0.015  0.00  0.00     0.052 A 
ATOM     15  C   UNL d   1       3.249   1.096  -0.010  0.00  0.00     0.056 A 
ATOM     16  C   UNL d   1       5.820   1.390   0.005  0.00  0.00     0.071 C 
ATOM     17  C   UNL d   1       2.442  -0.056  -0.063  0.00  0.00     0.054 A 
ATOM     18  C   UNL d   1       0.961  -0.104  -0.054  0.00  0.00     0.072 C 
ATOM     19  N   UNL d   1       3.172  -1.173  -0.154  0.00  0.00    -0.158 NA
ENDBRANCH   7  13
ENDBRANCH   2   3
ENDBRANCH   1   2
BRANCH   1  20
ATOM     20  C   UNL d   1       8.807  -6.369  -3.420  0.00  0.00     0.113 C 
BRANCH  20  21
ATOM     21  C   UNL d   1      10.270  -6.906  -3.308  0.00  0.00     0.222 C 
ATOM     22  O   UNL d   1      11.046  -6.374  -2.533  0.00  0.00    -0.273 OA
ATOM     23  N   UNL d   1      10.640  -7.986  -4.146  0.00  0.00    -0.327 N 
ATOM     24  H   UNL d   1      10.075  -8.132  -4.973  0.00  0.00     0.169 HD
BRANCH  23  25
ATOM     25  C   UNL d   1      11.871  -8.762  -4.062  0.00  0.00     0.035 C 
ATOM     26  C   UNL d   1      12.615  -9.228  -5.111  0.00  0.00     0.029 C 
ATOM     27  C   UNL d   1      13.666 -10.175  -4.871  0.00  0.00     0.003 C 
ATOM     28  C   UNL d   1      13.924 -10.761  -3.598  0.00  0.00     0.009 C 
ATOM     29  C   UNL d   1      13.120 -10.386  -2.545  0.00  0.00    -0.030 C 
ATOM     30  C   UNL d   1      12.269  -9.329  -2.867  0.00  0.00     0.038 C 
BRANCH  29  31
ATOM     31  C   UNL d   1      13.034 -10.981  -1.135  0.00  0.00     0.273 C 
BRANCH  31  32
ATOM     32  N   UNL d   1      11.786 -10.578  -0.202  0.00  0.00    -0.067 N 
ATOM     33  C   UNL d   1      10.407 -11.100  -0.644  0.00  0.00     0.235 C 
ATOM     34  C   UNL d   1       9.776  -9.964  -1.413  0.00  0.00     0.029 C 
ATOM     35  C   UNL d   1      10.284  -8.729  -0.649  0.00  0.00     0.029 C 
ATOM     36  C   UNL d   1      11.594  -9.088   0.084  0.00  0.00     0.235 C 
ATOM     37  H   UNL d   1      11.992 -11.013   0.707  0.00  0.00     0.280 HD
ENDBRANCH  31  32
ENDBRANCH  29  31
ENDBRANCH  23  25
ENDBRANCH  20  21
ENDBRANCH   1  20
TORSDOF 10
