@<TRIPOS>MOLECULE
*****
 49 52 0 0 0
SMALL
GASTEIGER

@<TRIPOS>ATOM
      1 O           1.0036   -0.3748    0.0295 O.2     1  UNL1       -0.2686
      2 C           2.2086   -0.2528   -0.0192 C.2     1  UNL1        0.2606
      3 N           2.8277    0.9871   -0.2622 N.am    1  UNL1       -0.3060
      4 C           2.2088    2.2731   -0.5748 C.3     1  UNL1        0.0372
      5 C           3.2144    3.4087   -0.8230 C.ar    1  UNL1       -0.0286
      6 C           4.5825    3.2534   -1.0434 C.ar    1  UNL1       -0.0570
      7 C           5.4302    4.3707   -1.1041 C.ar    1  UNL1       -0.0597
      8 C           4.9157    5.6764   -1.0661 C.ar    1  UNL1       -0.0405
      9 C           3.5412    5.8749   -0.9187 C.ar    1  UNL1        0.0337
     10 N           3.0115    7.2039   -0.8447 N.am    1  UNL1       -0.2853
     11 C           1.6646    7.4894   -0.6135 C.2     1  UNL1        0.2203
     12 O           0.7973    6.6194   -0.4372 O.2     1  UNL1       -0.2752
     13 C           1.1521    8.9060   -0.5497 C.3     1  UNL1        0.0359
     14 C           1.2271    9.6541    0.8062 C.3     1  UNL1       -0.0419
     15 C           1.0842   10.9523   -0.0124 C.3     1  UNL1       -0.0517
     16 C           1.7409   10.1714   -1.1872 C.3     1  UNL1       -0.0419
     17 C           2.7270    4.7278   -0.8144 C.ar    1  UNL1       -0.0358
     18 C           3.1980   -1.3578    0.1983 C.ar    1  UNL1        0.1028
     19 C           4.5376   -1.1372    0.3981 C.ar    1  UNL1       -0.0239
     20 C           5.1357   -2.2842    0.9026 C.ar    1  UNL1        0.0068
     21 C           6.3599   -2.4260    1.5433 C.ar    1  UNL1        0.0247
     22 C           7.0109   -3.6446    1.5478 C.ar    1  UNL1        0.2738
     23 N           8.3886   -3.6438    2.0703 N.pl3   1  UNL1        0.0796
     24 O           8.8256   -2.5718    2.5252 O.2     1  UNL1        0.0414
     25 O           9.0428   -4.6913    2.0101 O.co2   1  UNL1       -0.5760
     26 C           6.3874   -4.7512    0.9655 C.ar    1  UNL1        0.0176
     27 C           5.0395   -4.6460    0.4486 C.ar    1  UNL1       -0.0314
     28 C           4.3747   -3.3682    0.5039 C.ar    1  UNL1        0.0474
     29 N           3.0821   -2.7775    0.3307 N.ar    1  UNL1       -0.3506
     30 H           3.8179    1.0395   -0.1725 H       1  UNL1        0.1494
     31 H           1.5811    2.5543    0.2810 H       1  UNL1        0.0512
     32 H           1.5661    2.1549   -1.4518 H       1  UNL1        0.0512
     33 H           5.0252    2.2718   -1.1710 H       1  UNL1        0.0621
     34 H           6.5057    4.2106   -1.1658 H       1  UNL1        0.0618
     35 H           5.6114    6.5072   -1.1585 H       1  UNL1        0.0636
     36 H           3.6717    7.9707   -0.9092 H       1  UNL1        0.1548
     37 H           0.0985    8.8373   -0.8850 H       1  UNL1        0.0394
     38 H           2.1884    9.5703    1.3257 H       1  UNL1        0.0272
     39 H           0.4232    9.4324    1.5143 H       1  UNL1        0.0272
     40 H           1.6369   11.8144    0.3638 H       1  UNL1        0.0266
     41 H           0.0393   11.2465   -0.1819 H       1  UNL1        0.0266
     42 H           2.8311   10.2406   -1.2059 H       1  UNL1        0.0272
     43 H           1.3422   10.4156   -2.1770 H       1  UNL1        0.0272
     44 H           1.6537    4.8121   -0.7140 H       1  UNL1        0.0639
     45 H           5.0619   -0.2023    0.3335 H       1  UNL1        0.0646
     46 H           6.7864   -1.5337    1.9809 H       1  UNL1        0.0692
     47 H           6.9365   -5.6972    0.9198 H       1  UNL1        0.0686
     48 H           4.6236   -5.5263   -0.0470 H       1  UNL1        0.0640
     49 H           2.1928   -3.2511    0.4670 H       1  UNL1        0.1660
@<TRIPOS>UNITY_ATOM_ATTR
23 1
charge 1
25 1
charge -1
@<TRIPOS>BOND
     1     1     2    2
     2     2     3   am
     3     3     4    1
     4     4     5    1
     5     5     6   ar
     6     6     7   ar
     7     7     8   ar
     8     8     9   ar
     9     9    10    1
    10    10    11   am
    11    11    12    2
    12    11    13    1
    13    13    14    1
    14    14    15    1
    15    15    16    1
    16    13    16    1
    17     9    17   ar
    18     5    17   ar
    19     2    18    1
    20    18    19   ar
    21    19    20   ar
    22    20    21   ar
    23    21    22   ar
    24    22    23    1
    25    23    24    2
    26    23    25    1
    27    22    26   ar
    28    26    27   ar
    29    27    28   ar
    30    20    28   ar
    31    28    29   ar
    32    18    29   ar
    33     3    30    1
    34     4    31    1
    35     4    32    1
    36     6    33    1
    37     7    34    1
    38     8    35    1
    39    10    36    1
    40    13    37    1
    41    14    38    1
    42    14    39    1
    43    15    40    1
    44    15    41    1
    45    16    42    1
    46    16    43    1
    47    17    44    1
    48    19    45    1
    49    21    46    1
    50    26    47    1
    51    27    48    1
    52    29    49    1
