REMARK  9 active torsions:
REMARK  status: ('A' for Active; 'I' for Inactive)
REMARK    1  A    between atoms: O_2  and  C_3 
REMARK    2  A    between atoms: C_9  and  C_10 
REMARK       I    between atoms: C_10  and  N_12 
REMARK    3  A    between atoms: N_12  and  C_13 
REMARK    4  A    between atoms: C_13  and  N_15 
REMARK    5  A    between atoms: N_15  and  C_16 
REMARK    6  A    between atoms: C_19  and  O_20 
REMARK    7  A    between atoms: C_22  and  C_23 
REMARK    8  A    between atoms: C_26  and  C_27 
REMARK    9  A    between atoms: C_27  and  O_28 
ROOT
ATOM      1  N   UNL d   1       3.941  -4.146   1.038  0.00  0.00    -0.333 N 
ATOM      2  H   UNL d   1       3.072  -3.775   1.404  0.00  0.00     0.168 HD
ENDROOT
BRANCH   1   3
ATOM      3  C   UNL d   1       4.556  -3.520  -0.078  0.00  0.00     0.179 C 
ATOM      4  S   UNL d   1       5.633  -4.335  -1.106  0.00  0.00    -0.040 SA
BRANCH   3   5
ATOM      5  N   UNL d   1       4.161  -2.179  -0.304  0.00  0.00    -0.299 N 
ATOM      6  C   UNL d   1       4.664  -1.349  -1.328  0.00  0.00     0.260 C 
ATOM      7  O   UNL d   1       5.595  -1.669  -2.079  0.00  0.00    -0.267 OA
ATOM      8  H   UNL d   1       3.443  -1.767   0.282  0.00  0.00     0.171 HD
BRANCH   6   9
ATOM      9  C   UNL d   1       4.134   0.019  -1.596  0.00  0.00     0.067 A 
ATOM     10  C   UNL d   1       4.752   0.732  -2.659  0.00  0.00     0.039 A 
ATOM     11  C   UNL d   1       4.341   2.014  -3.010  0.00  0.00     0.012 A 
ATOM     12  C   UNL d   1       3.315   2.621  -2.305  0.00  0.00     0.022 A 
ATOM     13 BR   UNL d   1       5.181   2.935  -4.431  0.00  0.00    -0.051 Br
ATOM     14  C   UNL d   1       2.698   1.933  -1.254  0.00  0.00     0.039 A 
ATOM     15  C   UNL d   1       3.081   0.624  -0.910  0.00  0.00     0.084 A 
BRANCH  15  16
ATOM     16  O   UNL d   1       2.490  -0.050   0.127  0.00  0.00    -0.355 OA
ATOM     17  C   UNL d   1       1.062  -0.012   0.078  0.00  0.00     0.210 C 
ENDBRANCH  15  16
ENDBRANCH   6   9
ENDBRANCH   3   5
ENDBRANCH   1   3
BRANCH   1  18
ATOM     18  C   UNL d   1       4.307  -5.460   1.511  0.00  0.00     0.035 A 
ATOM     19  C   UNL d   1       3.375  -6.417   1.905  0.00  0.00     0.032 A 
ATOM     20  C   UNL d   1       3.819  -7.680   2.368  0.00  0.00     0.040 A 
ATOM     21  C   UNL d   1       5.188  -8.038   2.400  0.00  0.00     0.081 A 
ATOM     22  C   UNL d   1       6.130  -7.076   2.011  0.00  0.00     0.033 A 
ATOM     23  C   UNL d   1       5.659  -5.805   1.625  0.00  0.00     0.046 A 
BRANCH  21  24
ATOM     24  O   UNL d   1       5.403  -9.306   2.891  0.00  0.00    -0.355 OA
ATOM     25  C   UNL d   1       6.729  -9.820   2.848  0.00  0.00     0.210 C 
ENDBRANCH  21  24
BRANCH  22  26
ATOM     26  C   UNL d   1       7.577  -7.156   2.178  0.00  0.00     0.088 C 
ATOM     27  C   UNL d   1       8.408  -6.460   3.028  0.00  0.00     0.041 C 
ATOM     28  C   UNL d   1       9.684  -7.035   2.902  0.00  0.00     0.038 C 
ATOM     29  C   UNL d   1       9.583  -8.034   1.955  0.00  0.00     0.077 C 
ATOM     30  O   UNL d   1       8.310  -8.048   1.440  0.00  0.00    -0.312 OA
BRANCH  29  31
ATOM     31  C   UNL d   1      10.553  -9.049   1.469  0.00  0.00     0.229 C 
BRANCH  31  32
ATOM     32  O   UNL d   1      11.824  -8.744   2.046  0.00  0.00    -0.394 OA
ATOM     33  H   UNL d   1      12.022  -7.824   1.797  0.00  0.00     0.209 HD
ENDBRANCH  31  32
ENDBRANCH  29  31
ENDBRANCH  22  26
ENDBRANCH   1  18
TORSDOF 9
