@<TRIPOS>MOLECULE
*****
 44 48 0 0 0
SMALL
GASTEIGER

@<TRIPOS>ATOM
      1 O           1.0803    0.1271    0.0483 O.2     1  UNL1       -0.2695
      2 C           2.3079    0.1104    0.0458 C.2     1  UNL1        0.2537
      3 C           3.0739    1.3782    0.0423 C.ar    1  UNL1        0.0458
      4 C           2.3796    2.5880    0.0478 C.ar    1  UNL1       -0.0490
      5 C           3.0870    3.7830    0.0431 C.ar    1  UNL1       -0.0603
      6 C           4.4829    3.7737    0.0330 C.ar    1  UNL1       -0.0505
      7 C           5.2124    2.5680    0.0277 C.ar    1  UNL1        0.0250
      8 C           6.6277    2.4957    0.0174 C.ar    1  UNL1        0.1246
      9 O           7.4494    3.5881    0.0119 O.3     1  UNL1       -0.5062
     10 C           7.2985    1.2784    0.0119 C.ar    1  UNL1       -0.0188
     11 C           6.5724    0.1025    0.0175 C.ar    1  UNL1       -0.0455
     12 C           5.1723    0.1503    0.0283 C.ar    1  UNL1        0.0459
     13 C           4.4769    1.3569    0.0328 C.ar    1  UNL1        0.0098
     14 C           4.4443   -1.1225    0.0368 C.2     1  UNL1        0.2537
     15 O           5.1323   -2.1312    0.0362 O.2     1  UNL1       -0.2695
     16 N           3.0425   -1.0739    0.0456 N.am    1  UNL1       -0.2338
     17 C           2.2296   -2.2967    0.0511 C.3     1  UNL1        0.0269
     18 C           3.0396   -3.5645    0.0396 C.3     1  UNL1       -0.0084
     19 C           2.4007   -4.8873   -0.0122 C.2     1  UNL1        0.0092
     20 C           3.1876   -5.9617   -0.0203 C.ar    1  UNL1        0.0509
     21 C           4.6011   -6.0752    0.1055 C.ar    1  UNL1       -0.0482
     22 C           5.0856   -7.2700    0.4577 C.ar    1  UNL1       -0.0608
     23 C           4.2528   -8.4589    0.3486 C.ar    1  UNL1       -0.0555
     24 C           2.9217   -8.4303    0.1182 C.ar    1  UNL1        0.0098
     25 C           2.2828   -7.1026    0.0526 C.ar    1  UNL1        0.2086
     26 N           1.0559   -6.7343    0.0762 N.2     1  UNL1       -0.2369
     27 C           0.9604   -5.2443    0.0809 C.3     1  UNL1        0.1661
     28 H           1.2915    2.6051    0.0557 H       1  UNL1        0.0625
     29 H           2.5552    4.7310    0.0468 H       1  UNL1        0.0618
     30 H           4.9855    4.7358    0.0291 H       1  UNL1        0.0625
     31 H           6.9329    4.4059    0.0170 H       1  UNL1        0.2922
     32 H           8.3846    1.2472    0.0034 H       1  UNL1        0.0654
     33 H           7.1016   -0.8488    0.0137 H       1  UNL1        0.0626
     34 H           1.5698   -2.2751   -0.8249 H       1  UNL1        0.0473
     35 H           1.5865   -2.2772    0.9402 H       1  UNL1        0.0473
     36 H           3.6637   -3.5660    0.9460 H       1  UNL1        0.0328
     37 H           3.6778   -3.5354   -0.8550 H       1  UNL1        0.0328
     38 H           5.2306   -5.1908    0.0462 H       1  UNL1        0.0626
     39 H           6.1244   -7.3612    0.7654 H       1  UNL1        0.0618
     40 H           4.8011   -9.3979    0.3724 H       1  UNL1        0.0620
     41 H           2.3624   -9.3411   -0.0480 H       1  UNL1        0.0683
     42 H           0.2830   -7.3937    0.1359 H       1  UNL1        0.4459
     43 H           0.5102   -4.9188    1.0253 H       1  UNL1        0.1077
     44 H           0.3796   -4.9030   -0.7788 H       1  UNL1        0.1077
@<TRIPOS>UNITY_ATOM_ATTR
26 1
charge 1
@<TRIPOS>BOND
     1     1     2    2
     2     2     3    1
     3     3     4   ar
     4     4     5   ar
     5     5     6   ar
     6     6     7   ar
     7     7     8   ar
     8     8     9    1
     9     8    10   ar
    10    10    11   ar
    11    11    12   ar
    12    12    13   ar
    13     3    13   ar
    14     7    13   ar
    15    12    14    1
    16    14    15    2
    17    14    16   am
    18     2    16   am
    19    16    17    1
    20    17    18    1
    21    18    19    1
    22    19    20    2
    23    20    21   ar
    24    21    22   ar
    25    22    23   ar
    26    23    24   ar
    27    24    25   ar
    28    20    25   ar
    29    25    26    2
    30    26    27    1
    31    19    27    1
    32     4    28    1
    33     5    29    1
    34     6    30    1
    35     9    31    1
    36    10    32    1
    37    11    33    1
    38    17    34    1
    39    17    35    1
    40    18    36    1
    41    18    37    1
    42    21    38    1
    43    22    39    1
    44    23    40    1
    45    24    41    1
    46    26    42    1
    47    27    43    1
    48    27    44    1
