REMARK  3 active torsions:
REMARK  status: ('A' for Active; 'I' for Inactive)
REMARK    1  A    between atoms: C_5  and  N_6 
REMARK    2  A    between atoms: N_6  and  C_7 
REMARK       I    between atoms: N_10  and  C_11 
REMARK    3  A    between atoms: C_11  and  C_13 
ROOT
ATOM      1  C   UNL d   1       7.588   1.152  -0.635  0.00  0.00     0.086 C 
ATOM      2  C   UNL d   1       7.502   1.979   0.656  0.00  0.00     0.045 C 
ATOM      3  C   UNL d   1       7.037   3.442   0.491  0.00  0.00     0.128 C 
ATOM      4  N   UNL d   1       7.739   4.110  -0.585  0.00  0.00    -0.348 N 
ATOM      5  C   UNL d   1       8.399   5.317  -0.317  0.00  0.00     0.256 C 
ATOM      6  O   UNL d   1       8.410   5.840   0.806  0.00  0.00    -0.267 OA
ATOM      7  C   UNL d   1       7.588   3.447  -1.884  0.00  0.00     0.128 C 
ATOM      8  C   UNL d   1       8.077   2.002  -1.825  0.00  0.00     0.045 C 
ENDROOT
BRANCH   1   9
ATOM      9  N   UNL d   1       6.544   0.091  -0.819  0.00  0.00    -0.369 N 
ATOM     10  H   UNL d   1       6.945  -0.849  -0.765  0.00  0.00     0.161 HD
BRANCH   9  11
ATOM     11  C   UNL d   1       5.231   0.057  -0.364  0.00  0.00     0.143 C 
ATOM     12  C   UNL d   1       4.534   1.222  -0.198  0.00  0.00     0.054 C 
ATOM     13  C   UNL d   1       3.173   1.238  -0.055  0.00  0.00     0.030 C 
ATOM     14  C   UNL d   1       2.520   0.031   0.003  0.00  0.00     0.024 C 
ATOM     15  C   UNL d   1       1.027   0.002   0.024  0.00  0.00     0.070 C 
ATOM     16  N   UNL d   1       3.246  -1.104   0.015  0.00  0.00    -0.281 N 
ATOM     17  N   UNL d   1       4.577  -1.118  -0.206  0.00  0.00    -0.157 NA
ATOM     18  H   UNL d   1       2.769  -1.996   0.172  0.00  0.00     0.189 HD
ENDBRANCH   9  11
ENDBRANCH   1   9
BRANCH   5  19
ATOM     19  C   UNL d   1       9.130   5.997  -1.405  0.00  0.00     0.070 C 
ATOM     20  C   UNL d   1       8.448   6.424  -2.550  0.00  0.00     0.022 C 
ATOM     21  C   UNL d   1       9.176   6.765  -3.692  0.00  0.00     0.025 C 
ATOM     22  C   UNL d   1      10.568   6.836  -3.634  0.00  0.00     0.037 C 
ATOM     23 CL   UNL d   1      11.461   7.162  -5.068  0.00  0.00    -0.084 Cl
ATOM     24  C   UNL d   1      11.237   6.603  -2.436  0.00  0.00     0.067 C 
ATOM     25  C   UNL d   1      10.517   6.139  -1.336  0.00  0.00     0.133 C 
ATOM     26  F   UNL d   1      11.196   5.770  -0.241  0.00  0.00    -0.205 F 
ENDBRANCH   5  19
TORSDOF 3
