REMARK  9 active torsions:
REMARK  status: ('A' for Active; 'I' for Inactive)
REMARK    1  A    between atoms: C_8  and  C_9 
REMARK    2  A    between atoms: C_9  and  C_11 
REMARK    3  A    between atoms: C_11  and  O_12 
REMARK    4  A    between atoms: O_12  and  C_13 
REMARK    5  A    between atoms: C_15  and  C_13 
REMARK    6  A    between atoms: C_15  and  N_26 
REMARK    7  A    between atoms: C_15  and  C_16 
REMARK    8  A    between atoms: C_16  and  C_17 
REMARK       I    between atoms: N_26  and  C_27 
REMARK    9  A    between atoms: C_27  and  C_29 
ROOT
ATOM      1  C   UNL d   1      -6.259  -6.366  -0.402  0.00  0.00     0.189 C 
ENDROOT
BRANCH   1   2
ATOM      2  N   UNL d   1      -6.033  -7.829  -0.331  0.00  0.00    -0.343 N 
ATOM      3  C   UNL d   1      -7.111  -8.699  -0.289  0.00  0.00     0.252 C 
ATOM      4  O   UNL d   1      -8.278  -8.324  -0.193  0.00  0.00    -0.268 OA
ATOM      5  H   UNL d   1      -5.094  -8.195  -0.420  0.00  0.00     0.163 HD
BRANCH   3   6
ATOM      6  C   UNL d   1      -6.815 -10.149  -0.402  0.00  0.00     0.032 A 
ATOM      7  C   UNL d   1      -5.857 -10.743   0.425  0.00  0.00     0.020 A 
ATOM      8  C   UNL d   1      -5.647 -12.124   0.361  0.00  0.00     0.043 A 
ATOM      9  C   UNL d   1      -6.389 -12.899  -0.526  0.00  0.00     0.116 A 
ATOM     10  F   UNL d   1      -6.185 -14.223  -0.574  0.00  0.00    -0.206 F 
ATOM     11  C   UNL d   1      -7.343 -12.321  -1.355  0.00  0.00     0.043 A 
ATOM     12  C   UNL d   1      -7.561 -10.941  -1.291  0.00  0.00     0.020 A 
ENDBRANCH   3   6
ENDBRANCH   1   2
BRANCH   1  13
ATOM     13  C   UNL d   1      -4.945  -5.568  -0.244  0.00  0.00     0.076 C 
BRANCH  13  14
ATOM     14  C   UNL d   1      -5.129  -4.073  -0.118  0.00  0.00    -0.028 A 
ATOM     15  C   UNL d   1      -6.321  -3.378   0.003  0.00  0.00     0.096 A 
ATOM     16  N   UNL d   1      -6.072  -2.042  -0.103  0.00  0.00    -0.365 N 
ATOM     17  C   UNL d   1      -4.720  -1.826  -0.162  0.00  0.00     0.042 A 
ATOM     18  H   UNL d   1      -6.783  -1.325  -0.147  0.00  0.00     0.165 HD
ATOM     19  C   UNL d   1      -4.011  -0.624  -0.225  0.00  0.00     0.030 A 
ATOM     20  C   UNL d   1      -4.101  -3.079  -0.166  0.00  0.00    -0.002 A 
ATOM     21  C   UNL d   1      -2.619  -0.706  -0.289  0.00  0.00     0.002 A 
ATOM     22  C   UNL d   1      -1.969  -1.938  -0.293  0.00  0.00     0.001 A 
ATOM     23  C   UNL d   1      -2.696  -3.132  -0.237  0.00  0.00     0.014 A 
ENDBRANCH  13  14
ENDBRANCH   1  13
BRANCH   1  24
ATOM     24  C   UNL d   1      -6.966  -5.922  -1.724  0.00  0.00     0.282 C 
ATOM     25  O   UNL d   1      -7.075  -4.769  -2.140  0.00  0.00    -0.263 OA
BRANCH  24  26
ATOM     26  O   UNL d   1      -7.533  -6.944  -2.401  0.00  0.00    -0.312 OA
BRANCH  26  27
ATOM     27  C   UNL d   1      -8.281  -6.495  -3.524  0.00  0.00     0.262 C 
BRANCH  27  28
ATOM     28  C   UNL d   1      -8.912  -7.690  -4.197  0.00  0.00     0.183 C 
ATOM     29  O   UNL d   1      -8.807  -8.837  -3.766  0.00  0.00    -0.290 OA
BRANCH  28  30
ATOM     30  C   UNL d   1      -9.672  -7.461  -5.455  0.00  0.00     0.014 A 
ATOM     31  C   UNL d   1     -10.236  -8.581  -6.082  0.00  0.00     0.018 A 
ATOM     32  C   UNL d   1     -10.944  -8.438  -7.272  0.00  0.00     0.040 A 
ATOM     33  C   UNL d   1     -11.091  -7.178  -7.841  0.00  0.00     0.096 A 
ATOM     34  O   UNL d   1     -11.836  -7.114  -8.984  0.00  0.00    -0.340 OA
ATOM     35  C   UNL d   1     -10.546  -6.054  -7.212  0.00  0.00     0.069 A 
ATOM     36  C   UNL d   1     -11.638  -5.923  -9.731  0.00  0.00     0.278 C 
ATOM     37  C   UNL d   1     -11.336  -4.625  -8.985  0.00  0.00     0.246 C 
ATOM     38  O   UNL d   1     -11.527  -3.511  -9.464  0.00  0.00    -0.271 OA
ATOM     39  N   UNL d   1     -10.743  -4.787  -7.761  0.00  0.00    -0.323 N 
ATOM     40  H   UNL d   1     -10.467  -3.944  -7.275  0.00  0.00     0.169 HD
ATOM     41  C   UNL d   1      -9.831  -6.189  -6.022  0.00  0.00     0.047 A 
ENDBRANCH  28  30
ENDBRANCH  27  28
ENDBRANCH  26  27
ENDBRANCH  24  26
ENDBRANCH   1  24
TORSDOF 9
