REMARK  12 active torsions:
REMARK  status: ('A' for Active; 'I' for Inactive)
REMARK    1  A    between atoms: C_2  and  O_3 
REMARK    2  A    between atoms: O_3  and  C_4 
REMARK    3  A    between atoms: C_6  and  C_7 
REMARK    4  A    between atoms: C_7  and  N_8 
REMARK    5  A    between atoms: N_8  and  C_9 
REMARK    6  A    between atoms: C_9  and  C_10 
REMARK    7  A    between atoms: C_10  and  N_11 
REMARK       I    between atoms: N_11  and  C_12 
REMARK    8  A    between atoms: C_12  and  C_14 
REMARK    9  A    between atoms: C_18  and  N_19 
REMARK   10  A    between atoms: C_22  and  O_23 
REMARK   11  A    between atoms: O_23  and  C_24 
REMARK   12  A    between atoms: C_24  and  C_25 
ROOT
ATOM      1  C   UNL d   1       4.268   0.918  -1.203  0.00  0.00     0.102 A 
ATOM      2  C   UNL d   1       4.837   2.167  -1.531  0.00  0.00     0.048 A 
ATOM      3  C   UNL d   1       6.188   2.286  -1.935  0.00  0.00    -0.030 A 
ATOM      4  C   UNL d   1       7.017   1.164  -1.871  0.00  0.00     0.012 A 
ATOM      5  C   UNL d   1       6.488  -0.063  -1.559  0.00  0.00     0.040 A 
ATOM      6  C   UNL d   1       5.134  -0.212  -1.260  0.00  0.00     0.102 A 
ENDROOT
BRANCH   3   7
ATOM      7  C   UNL d   1       6.688   3.564  -2.546  0.00  0.00     0.271 C 
BRANCH   7   8
ATOM      8  N   UNL d   1       8.101   3.447  -3.040  0.00  0.00    -0.070 N 
ATOM      9  H   UNL d   1       8.138   2.663  -3.710  0.00  0.00     0.277 HD
ATOM     10  H   UNL d   1       8.695   3.186  -2.241  0.00  0.00     0.277 HD
BRANCH   8  11
ATOM     11  C   UNL d   1       8.624   4.675  -3.676  0.00  0.00     0.252 C 
BRANCH  11  12
ATOM     12  C   UNL d   1      10.076   4.490  -4.117  0.00  0.00     0.150 C 
BRANCH  12  13
ATOM     13  N   UNL d   1      10.634   5.710  -4.673  0.00  0.00    -0.354 N 
ATOM     14  C   UNL d   1      11.936   5.693  -5.181  0.00  0.00     0.276 C 
ATOM     15  O   UNL d   1      12.596   4.672  -5.128  0.00  0.00    -0.266 OA
ATOM     16  H   UNL d   1      10.051   6.508  -4.900  0.00  0.00     0.162 HD
BRANCH  14  17
ATOM     17  C   UNL d   1      12.419   6.944  -5.764  0.00  0.00     0.201 A 
ATOM     18  N   UNL d   1      13.247   6.921  -6.819  0.00  0.00    -0.096 NA
ATOM     19  O   UNL d   1      13.566   8.248  -7.064  0.00  0.00    -0.104 OA
ATOM     20  N   UNL d   1      12.920   9.091  -6.173  0.00  0.00    -0.085 NA
ATOM     21  C   UNL d   1      12.200   8.293  -5.389  0.00  0.00     0.188 A 
BRANCH  21  22
ATOM     22  N   UNL d   1      11.403   8.753  -4.401  0.00  0.00    -0.380 N 
ATOM     23  H   UNL d   1      11.509   9.734  -4.141  0.00  0.00     0.158 HD
ATOM     24  H   UNL d   1      11.015   8.176  -3.668  0.00  0.00     0.158 HD
ENDBRANCH  21  22
ENDBRANCH  14  17
ENDBRANCH  12  13
ENDBRANCH  11  12
ENDBRANCH   8  11
ENDBRANCH   7   8
ENDBRANCH   3   7
BRANCH   1  25
ATOM     25  O   UNL d   1       2.877   0.971  -1.123  0.00  0.00    -0.349 OA
BRANCH  25  26
ATOM     26  C   UNL d   1       2.190   0.473   0.032  0.00  0.00     0.171 C 
ATOM     27  C   UNL d   1       0.685   0.326  -0.060  0.00  0.00     0.034 C 
ENDBRANCH  25  26
ENDBRANCH   1  25
BRANCH   6  28
ATOM     28  O   UNL d   1       4.918  -1.565  -1.122  0.00  0.00    -0.344 OA
BRANCH  28  29
ATOM     29  C   UNL d   1       3.651  -1.788  -0.609  0.00  0.00     0.216 C 
BRANCH  29  30
ATOM     30  C   UNL d   1       3.190  -3.153  -0.298  0.00  0.00    -0.012 C 
ATOM     31  C   UNL d   1       2.675  -3.427   0.986  0.00  0.00     0.013 C 
ATOM     32  C   UNL d   1       2.514  -4.744   1.362  0.00  0.00     0.024 C 
ATOM     33  C   UNL d   1       2.717  -5.740   0.408  0.00  0.00     0.035 C 
ATOM     34 CL   UNL d   1       2.523  -7.383   0.857  0.00  0.00    -0.084 Cl
ATOM     35  C   UNL d   1       3.049  -5.436  -0.914  0.00  0.00     0.048 C 
ATOM     36  C   UNL d   1       3.255  -4.127  -1.279  0.00  0.00     0.044 C 
ATOM     37 CL   UNL d   1       3.565  -3.732  -2.932  0.00  0.00    -0.084 Cl
ENDBRANCH  29  30
ENDBRANCH  28  29
ENDBRANCH   6  28
TORSDOF 12
