@<TRIPOS>MOLECULE
*****
 51 53 0 0 0
SMALL
GASTEIGER

@<TRIPOS>ATOM
      1 N           0.9301    0.0712    0.0105 N.4     1  UNL1        0.2196
      2 C           2.4183    0.0737    0.0287 C.3     1  UNL1       -0.0196
      3 C           2.9384   -0.0430    1.4696 C.3     1  UNL1        0.0491
      4 N           4.3799    0.0619    1.5288 N.pl3   1  UNL1       -0.3387
      5 C           5.0950   -0.1678    2.6957 C.ar    1  UNL1        0.0295
      6 C           6.2394    0.5856    2.9304 C.ar    1  UNL1       -0.0343
      7 C           7.0068    0.3751    4.0775 C.ar    1  UNL1        0.0193
      8 C           6.6095   -0.5534    5.0680 C.ar    1  UNL1        0.2940
      9 N           7.4737   -0.6159    6.2680 N.pl3   1  UNL1        0.0815
     10 O           8.4083    0.1906    6.3373 O.2     1  UNL1        0.0415
     11 O           7.2353   -1.4419    7.1596 O.co2   1  UNL1       -0.5760
     12 C           5.4612   -1.3463    4.8704 C.ar    1  UNL1        0.1097
     13 N           4.9625   -2.3284    5.7011 N.pl3   1  UNL1       -0.3216
     14 C           4.6306   -2.1282    7.1224 C.3     1  UNL1        0.0281
     15 C           3.2048   -2.6590    7.3969 C.3     1  UNL1        0.0280
     16 N           3.0420   -4.0607    6.9351 N.pl3   1  UNL1       -0.3269
     17 C           2.8182   -5.0380    7.8875 C.ar    1  UNL1        0.0302
     18 C           1.6821   -4.9473    8.7124 C.ar    1  UNL1       -0.0343
     19 C           1.4607   -5.8287    9.7782 C.ar    1  UNL1        0.0173
     20 C           2.3506   -6.8822    9.9893 C.ar    1  UNL1        0.2733
     21 N           2.0746   -7.8692   11.0442 N.pl3   1  UNL1        0.0796
     22 O           1.0517   -7.7131   11.7263 O.2     1  UNL1        0.0414
     23 O           2.8688   -8.8120   11.1738 O.co2   1  UNL1       -0.5760
     24 C           3.4714   -7.0242    9.1635 C.ar    1  UNL1        0.0173
     25 C           3.6902   -6.1107    8.1147 C.ar    1  UNL1       -0.0343
     26 C           3.5405   -4.3379    5.5746 C.3     1  UNL1        0.0280
     27 C           4.9471   -3.7490    5.3052 C.3     1  UNL1        0.0281
     28 C           4.7263   -1.1074    3.6721 C.ar    1  UNL1       -0.0131
     29 H           0.5714    0.1474   -0.9510 H       1  UNL1        0.1995
     30 H           0.5447    0.8646    0.5417 H       1  UNL1        0.1995
     31 H           0.5430   -0.7936    0.4124 H       1  UNL1        0.1995
     32 H           2.7410    1.0054   -0.4465 H       1  UNL1        0.0829
     33 H           2.7462   -0.7724   -0.5839 H       1  UNL1        0.0829
     34 H           2.5776   -0.9872    1.8896 H       1  UNL1        0.0514
     35 H           2.5103    0.7726    2.0656 H       1  UNL1        0.0514
     36 H           4.9447    0.0855    0.6811 H       1  UNL1        0.1463
     37 H           6.5354    1.3739    2.2400 H       1  UNL1        0.0638
     38 H           7.9261    0.9502    4.1846 H       1  UNL1        0.0686
     39 H           4.6849   -1.0708    7.4025 H       1  UNL1        0.0479
     40 H           5.3295   -2.7010    7.7445 H       1  UNL1        0.0479
     41 H           2.4925   -2.0408    6.8394 H       1  UNL1        0.0479
     42 H           2.9888   -2.5384    8.4648 H       1  UNL1        0.0479
     43 H           0.9330   -4.1853    8.5051 H       1  UNL1        0.0638
     44 H           0.5982   -5.6767   10.4237 H       1  UNL1        0.0686
     45 H           4.1894   -7.8255    9.3306 H       1  UNL1        0.0686
     46 H           4.5795   -6.2348    7.5030 H       1  UNL1        0.0638
     47 H           2.8443   -3.8332    4.8915 H       1  UNL1        0.0479
     48 H           3.5077   -5.4031    5.3263 H       1  UNL1        0.0479
     49 H           5.2099   -3.8832    4.2488 H       1  UNL1        0.0479
     50 H           5.6976   -4.2905    5.8951 H       1  UNL1        0.0479
     51 H           3.8318   -1.7047    3.5160 H       1  UNL1        0.0657
@<TRIPOS>UNITY_ATOM_ATTR
1 1
charge 1
9 1
charge 1
11 1
charge -1
21 1
charge 1
23 1
charge -1
@<TRIPOS>BOND
     1     1     2    1
     2     2     3    1
     3     3     4    1
     4     4     5    1
     5     5     6   ar
     6     6     7   ar
     7     7     8   ar
     8     8     9    1
     9     9    10    2
    10     9    11    1
    11     8    12   ar
    12    12    13    1
    13    13    14    1
    14    14    15    1
    15    15    16    1
    16    16    17    1
    17    17    18   ar
    18    18    19   ar
    19    19    20   ar
    20    20    21    1
    21    21    22    2
    22    21    23    1
    23    20    24   ar
    24    24    25   ar
    25    17    25   ar
    26    16    26    1
    27    26    27    1
    28    13    27    1
    29    12    28   ar
    30     5    28   ar
    31     1    29    1
    32     1    30    1
    33     1    31    1
    34     2    32    1
    35     2    33    1
    36     3    34    1
    37     3    35    1
    38     4    36    1
    39     6    37    1
    40     7    38    1
    41    14    39    1
    42    14    40    1
    43    15    41    1
    44    15    42    1
    45    18    43    1
    46    19    44    1
    47    24    45    1
    48    25    46    1
    49    26    47    1
    50    26    48    1
    51    27    49    1
    52    27    50    1
    53    28    51    1
