@<TRIPOS>MOLECULE
*****
 39 41 0 0 0
SMALL
GASTEIGER

@<TRIPOS>ATOM
      1 O           6.1889    0.5851   -1.1195 O.2     1  UNL1       -0.2507
      2 C           5.4992   -0.4014   -1.3728 C.2     1  UNL1        0.3228
      3 N           5.5201   -0.9394   -2.6490 N.am    1  UNL1       -0.1781
      4 O           6.4617   -0.1983   -3.4487 O.3     1  UNL1       -0.2740
      5 C           6.3056   -0.4669   -4.8321 C.3     1  UNL1        0.0983
      6 C           7.4521    0.1077   -5.6352 C.ar    1  UNL1       -0.0197
      7 C           8.1851   -0.7363   -6.4831 C.ar    1  UNL1       -0.0563
      8 C           9.2681   -0.2515   -7.2167 C.ar    1  UNL1       -0.0614
      9 C           9.5743    1.1058   -7.1904 C.ar    1  UNL1       -0.0617
     10 C           8.8412    1.9658   -6.3737 C.ar    1  UNL1       -0.0614
     11 C           7.7938    1.4685   -5.5880 C.ar    1  UNL1       -0.0563
     12 N           4.7398   -1.0773   -0.4459 N.am    1  UNL1       -0.2944
     13 C           4.5169   -0.7244    0.9543 C.3     1  UNL1        0.0321
     14 C           5.3325   -1.3482    2.0672 C.3     1  UNL1       -0.0254
     15 C           5.2016    0.1577    1.9811 C.3     1  UNL1        0.0044
     16 C           6.4668    1.0090    1.9820 C.ar    1  UNL1       -0.0398
     17 C           7.5398    0.8562    1.0995 C.ar    1  UNL1       -0.0581
     18 C           8.6906    1.6479    1.1102 C.ar    1  UNL1       -0.0588
     19 C           8.8649    2.5796    2.1125 C.ar    1  UNL1       -0.0264
     20 C           7.8606    2.7213    3.0580 C.ar    1  UNL1        0.1237
     21 F           8.0598    3.5403    4.0999 F       1  UNL1       -0.2055
     22 C           6.6688    1.9863    2.9790 C.ar    1  UNL1       -0.0229
     23 H           4.6802   -1.2653   -3.1120 H       1  UNL1        0.1841
     24 H           5.3643   -0.0337   -5.1799 H       1  UNL1        0.0634
     25 H           6.2829   -1.5536   -4.9586 H       1  UNL1        0.0634
     26 H           7.9159   -1.7855   -6.5752 H       1  UNL1        0.0621
     27 H           9.8739   -0.9361   -7.8040 H       1  UNL1        0.0618
     28 H          10.3834    1.4902   -7.8060 H       1  UNL1        0.0618
     29 H           9.0966    3.0226   -6.3387 H       1  UNL1        0.0618
     30 H           7.2469    2.1520   -4.9408 H       1  UNL1        0.0621
     31 H           3.9569   -1.5689   -0.8631 H       1  UNL1        0.1506
     32 H           3.4375   -0.7734    1.1269 H       1  UNL1        0.0505
     33 H           6.2840   -1.8169    1.8416 H       1  UNL1        0.0290
     34 H           4.8314   -1.8275    2.9056 H       1  UNL1        0.0290
     35 H           4.4675    0.5773    2.6767 H       1  UNL1        0.0367
     36 H           7.5213    0.0773    0.3524 H       1  UNL1        0.0620
     37 H           9.4459    1.4702    0.3504 H       1  UNL1        0.0619
     38 H           9.7838    3.1499    2.1757 H       1  UNL1        0.0646
     39 H           5.9162    2.1586    3.7446 H       1  UNL1        0.0649
@<TRIPOS>BOND
     1     1     2    2
     2     2     3   am
     3     3     4    1
     4     4     5    1
     5     5     6    1
     6     6     7   ar
     7     7     8   ar
     8     8     9   ar
     9     9    10   ar
    10    10    11   ar
    11     6    11   ar
    12     2    12   am
    13    13    14    1
    14    14    15    1
    15    13    15    1
    16    16    17   ar
    17    17    18   ar
    18    18    19   ar
    19    19    20   ar
    20    20    21    1
    21    20    22   ar
    22    16    22   ar
    23    13    12    1
    24    15    16    1
    25     3    23    1
    26     5    24    1
    27     5    25    1
    28     7    26    1
    29     8    27    1
    30     9    28    1
    31    10    29    1
    32    11    30    1
    33    12    31    1
    34    13    32    1
    35    14    33    1
    36    14    34    1
    37    15    35    1
    38    17    36    1
    39    18    37    1
    40    19    38    1
    41    22    39    1
