REMARK  5 active torsions:
REMARK  status: ('A' for Active; 'I' for Inactive)
REMARK    1  A    between atoms: C_2  and  C_19 
REMARK    2  A    between atoms: C_3  and  C_4 
REMARK       I    between atoms: C_4  and  N_6 
REMARK    3  A    between atoms: N_6  and  N_7 
REMARK       I    between atoms: N_7  and  C_8 
REMARK    4  A    between atoms: C_8  and  C_10 
REMARK    5  A    between atoms: C_14  and  N_15 
ROOT
ATOM      1  C   UNL d   1       4.844   1.011   0.675  0.00  0.00     0.260 C 
ATOM      2  O   UNL d   1       5.579   0.406  -0.108  0.00  0.00    -0.267 OA
ATOM      3  N   UNL d   1       5.430   1.841   1.604  0.00  0.00    -0.264 N 
ATOM      4  H   UNL d   1       4.949   2.483   2.230  0.00  0.00     0.190 HD
ENDROOT
BRANCH   3   5
ATOM      5  N   UNL d   1       6.861   1.879   1.597  0.00  0.00    -0.263 N 
ATOM      6  C   UNL d   1       7.530   2.718   2.458  0.00  0.00     0.270 C 
ATOM      7  O   UNL d   1       6.937   3.463   3.245  0.00  0.00    -0.266 OA
ATOM      8  H   UNL d   1       7.306   1.201   0.976  0.00  0.00     0.190 HD
BRANCH   6   9
ATOM      9  C   UNL d   1       9.027   2.737   2.422  0.00  0.00     0.036 A 
ATOM     10  C   UNL d   1       9.712   3.000   3.623  0.00  0.00     0.017 A 
ATOM     11  C   UNL d   1      11.082   3.287   3.626  0.00  0.00     0.003 A 
ATOM     12  C   UNL d   1      11.805   3.251   2.435  0.00  0.00     0.036 A 
ATOM     13  C   UNL d   1      11.136   2.952   1.239  0.00  0.00     0.103 A 
ATOM     14  C   UNL d   1       9.750   2.686   1.223  0.00  0.00     0.053 A 
BRANCH  13  15
ATOM     15  N   UNL d   1      11.884   3.002  -0.026  0.00  0.00    -0.116 N 
ATOM     16  O   UNL d   1      13.092   3.275   0.024  0.00  0.00    -0.532 OA
ATOM     17  O   UNL d   1      11.257   2.777  -1.070  0.00  0.00    -0.532 OA
ENDBRANCH  13  15
ENDBRANCH   6   9
ENDBRANCH   3   5
BRANCH   1  18
ATOM     18  C   UNL d   1       3.333   0.900   0.680  0.00  0.00     0.083 C 
ATOM     19  C   UNL d   1       2.589   0.026  -0.054  0.00  0.00    -0.043 C 
ATOM     20  C   UNL d   1       1.074   0.039  -0.068  0.00  0.00     0.049 C 
BRANCH  19  21
ATOM     21  C   UNL d   1       3.209  -1.016  -0.915  0.00  0.00     0.009 C 
ATOM     22  C   UNL d   1       4.215  -1.828  -0.368  0.00  0.00     0.015 C 
ATOM     23  C   UNL d   1       5.035  -2.603  -1.185  0.00  0.00     0.001 C 
ATOM     24  C   UNL d   1       4.736  -2.743  -2.534  0.00  0.00     0.003 C 
ATOM     25  C   UNL d   1       3.655  -2.051  -3.076  0.00  0.00     0.043 C 
ATOM     26  C   UNL d   1       2.913  -1.179  -2.275  0.00  0.00     0.127 C 
ATOM     27  F   UNL d   1       1.928  -0.477  -2.857  0.00  0.00    -0.205 F 
ENDBRANCH  19  21
ENDBRANCH   1  18
TORSDOF 5
