REMARK  9 active torsions:
REMARK  status: ('A' for Active; 'I' for Inactive)
REMARK    1  A    between atoms: C_2  and  C_3 
REMARK       I    between atoms: C_2  and  N_12 
REMARK    2  A    between atoms: C_3  and  C_4 
REMARK    3  A    between atoms: C_4  and  C_5 
REMARK    4  A    between atoms: C_5  and  N_6 
REMARK       I    between atoms: N_6  and  C_7 
REMARK    5  A    between atoms: C_7  and  C_9 
REMARK    6  A    between atoms: N_12  and  C_13 
REMARK    7  A    between atoms: C_13  and  C_14 
REMARK    8  A    between atoms: C_14  and  O_15 
REMARK    9  A    between atoms: C_14  and  C_16 
ROOT
ATOM      1  O   UNL d   1       1.058  -0.066  -0.081  0.00  0.00    -0.274 OA
ATOM      2  C   UNL d   1       2.284  -0.007  -0.083  0.00  0.00     0.217 C 
ATOM      3  N   UNL d   1       3.010  -1.156  -0.242  0.00  0.00    -0.359 N 
ATOM      4  H   UNL d   1       2.478  -2.011  -0.365  0.00  0.00     0.162 HD
ENDROOT
BRANCH   2   5
ATOM      5  C   UNL d   1       3.056   1.303   0.085  0.00  0.00     0.104 C 
BRANCH   5   6
ATOM      6  C   UNL d   1       2.109   2.499   0.230  0.00  0.00     0.029 C 
BRANCH   6   7
ATOM      7  C   UNL d   1       2.865   3.820   0.385  0.00  0.00     0.123 C 
BRANCH   7   8
ATOM      8  N   UNL d   1       1.986   4.972   0.499  0.00  0.00    -0.361 N 
ATOM      9  C   UNL d   1       2.478   6.255   0.645  0.00  0.00     0.221 C 
ATOM     10  O   UNL d   1       3.669   6.549   0.669  0.00  0.00    -0.273 OA
ATOM     11  H   UNL d   1       0.983   4.829   0.516  0.00  0.00     0.162 HD
BRANCH   9  12
ATOM     12  C   UNL d   1       1.419   7.289   0.818  0.00  0.00     0.078 A 
ATOM     13  C   UNL d   1       1.408   8.721   0.321  0.00  0.00     0.015 A 
ATOM     14  C   UNL d   1       0.673   7.675  -0.450  0.00  0.00     0.015 A 
ENDBRANCH   9  12
ENDBRANCH   7   8
ENDBRANCH   6   7
ENDBRANCH   5   6
ENDBRANCH   2   5
BRANCH   3  15
ATOM     15  C   UNL d   1       4.444  -1.225  -0.251  0.00  0.00     0.154 C 
BRANCH  15  16
ATOM     16  C   UNL d   1       5.024  -2.640  -0.402  0.00  0.00     0.140 C 
BRANCH  16  17
ATOM     17  O   UNL d   1       4.569  -3.223  -1.629  0.00  0.00    -0.394 OA
ATOM     18  H   UNL d   1       4.871  -2.658  -2.362  0.00  0.00     0.210 HD
ENDBRANCH  16  17
BRANCH  16  19
ATOM     19  C   UNL d   1       6.576  -2.644  -0.385  0.00  0.00     0.016 C 
ATOM     20  C   UNL d   1       7.158  -1.325   0.156  0.00  0.00     0.007 C 
ATOM     21  C   UNL d   1       8.665  -1.328   0.275  0.00  0.00     0.000 C 
ATOM     22  C   UNL d   1       9.123  -2.490   1.139  0.00  0.00     0.000 C 
ATOM     23  C   UNL d   1       8.614  -3.814   0.578  0.00  0.00     0.000 C 
ATOM     24  C   UNL d   1       7.091  -3.827   0.455  0.00  0.00     0.007 C 
ENDBRANCH  16  19
ENDBRANCH  15  16
ENDBRANCH   3  15
TORSDOF 9
