REMARK  8 active torsions:
REMARK  status: ('A' for Active; 'I' for Inactive)
REMARK    1  A    between atoms: C_3  and  C_4 
REMARK    2  A    between atoms: C_4  and  C_5 
REMARK       I    between atoms: C_5  and  N_7 
REMARK    3  A    between atoms: N_7  and  CA_8 
REMARK    4  A    between atoms: CA_8  and  C_9 
REMARK    5  A    between atoms: CA_8  and  C_20 
REMARK    6  A    between atoms: C_9  and  C_10 
REMARK    7  A    between atoms: C_16  and  O_17 
REMARK    8  A    between atoms: C_29  and  O_30 
ROOT
ATOM      1  C   UNL d   1       3.391   3.747  -0.303  0.00  0.00     0.222 C 
ATOM      2  O   UNL d   1       4.561   3.748   0.098  0.00  0.00    -0.273 OA
ATOM      3  N   UNL d   1       2.971   4.928  -0.777  0.00  0.00    -0.346 N 
ATOM      4  H   UNL d   1       2.027   5.272  -0.499  0.00  0.00     0.163 HD
ENDROOT
BRANCH   3   5
ATOM      5  CA  UNL d   1       4.035   6.032  -0.774  0.00  0.00     0.186 C 
BRANCH   5   6
ATOM      6  C   UNL d   1       5.351   5.953  -2.016  0.00  0.00     0.054 C 
BRANCH   6   7
ATOM      7  C   UNL d   1       6.650   4.736  -2.473  0.00  0.00     0.028 C 
ATOM      8  C   UNL d   1       5.872   3.869  -3.216  0.00  0.00     0.120 C 
ATOM      9  N   UNL d   1       6.413   2.752  -2.633  0.00  0.00    -0.382 N 
ATOM     10  C   UNL d   1       7.569   2.594  -3.334  0.00  0.00     0.035 C 
ATOM     11  H   UNL d   1       6.429   2.579  -1.634  0.00  0.00     0.160 HD
ATOM     12  C   UNL d   1       7.861   1.406  -4.052  0.00  0.00     0.032 C 
ATOM     13  C   UNL d   1       7.998   3.945  -3.414  0.00  0.00    -0.017 C 
ATOM     14  C   UNL d   1       8.520   1.408  -5.253  0.00  0.00     0.039 C 
ATOM     15  C   UNL d   1       9.203   2.564  -5.510  0.00  0.00     0.066 C 
ATOM     16  C   UNL d   1       8.971   3.842  -4.668  0.00  0.00     0.046 C 
BRANCH  15  17
ATOM     17  O   UNL d   1      10.185   2.417  -6.496  0.00  0.00    -0.361 OA
ATOM     18  H   UNL d   1      10.208   1.486  -6.832  0.00  0.00     0.217 HD
ENDBRANCH  15  17
ENDBRANCH   6   7
ENDBRANCH   5   6
BRANCH   5  19
ATOM     19  C   UNL d   1       3.149   7.403  -0.695  0.00  0.00     0.196 C 
ATOM     20  O   UNL d   1       1.888   7.211  -0.559  0.00  0.00    -0.646 OA
ATOM     21  OXT UNL d   1       3.788   8.488  -0.699  0.00  0.00    -0.646 OA
ENDBRANCH   5  19
ENDBRANCH   3   5
BRANCH   1  22
ATOM     22  C   UNL d   1       2.475   2.538  -0.237  0.00  0.00     0.148 C 
BRANCH  22  23
ATOM     23  C   UNL d   1       3.176   1.178  -0.136  0.00  0.00     0.033 C 
ATOM     24  C   UNL d   1       2.436   0.037  -0.047  0.00  0.00    -0.036 C 
ATOM     25  C   UNL d   1       0.923  -0.012  -0.068  0.00  0.00     0.050 C 
ATOM     26  C   UNL d   1       3.121  -1.269   0.006  0.00  0.00     0.005 C 
ATOM     27  C   UNL d   1       2.484  -2.501  -0.043  0.00  0.00     0.017 C 
ATOM     28  C   UNL d   1       4.502  -1.307   0.059  0.00  0.00     0.099 C 
ATOM     29  C   UNL d   1       3.235  -3.661  -0.252  0.00  0.00     0.038 C 
ATOM     30  C   UNL d   1       4.620  -3.645  -0.108  0.00  0.00     0.074 C 
ATOM     31  C   UNL d   1       5.286  -2.456   0.097  0.00  0.00     0.006 C 
ATOM     32  C   UNL d   1       6.766  -2.356   0.344  0.00  0.00     0.054 C 
ATOM     33  O   UNL d   1       5.239  -0.152   0.060  0.00  0.00    -0.274 OA
ATOM     34  C   UNL d   1       4.678   1.054  -0.153  0.00  0.00     0.295 C 
ATOM     35  O   UNL d   1       5.558   1.908  -0.371  0.00  0.00    -0.259 OA
BRANCH  30  36
ATOM     36  O   UNL d   1       5.274  -4.838  -0.140  0.00  0.00    -0.360 OA
ATOM     37  H   UNL d   1       6.190  -4.683   0.142  0.00  0.00     0.217 HD
ENDBRANCH  30  36
ENDBRANCH  22  23
ENDBRANCH   1  22
TORSDOF 8
