REMARK  11 active torsions:
REMARK  status: ('A' for Active; 'I' for Inactive)
REMARK    1  A    between atoms: N_2  and  C_4 
REMARK    2  A    between atoms: C_8  and  C_7 
REMARK    3  A    between atoms: C_8  and  N_20 
REMARK    4  A    between atoms: C_8  and  C_9 
REMARK       I    between atoms: C_9  and  N_11 
REMARK    5  A    between atoms: N_11  and  C_12 
REMARK    6  A    between atoms: C_12  and  C_15 
REMARK    7  A    between atoms: C_15  and  C_16 
REMARK       I    between atoms: N_20  and  C_21 
REMARK    8  A    between atoms: N_20  and  C_31 
REMARK    9  A    between atoms: C_21  and  C_23 
REMARK   10  A    between atoms: C_24  and  O_25 
REMARK   11  A    between atoms: C_29  and  O_30 
ROOT
ATOM      1  C   UNL d   1       5.609   2.761   4.081  0.00  0.00     0.213 C 
ENDROOT
BRANCH   1   2
ATOM      2  N   UNL d   1       4.753   2.504   5.455  0.00  0.00    -0.322 N 
ATOM      3  C   UNL d   1       3.552   1.619   5.587  0.00  0.00     0.261 C 
ATOM      4  O   UNL d   1       2.823   1.628   6.590  0.00  0.00    -0.267 OA
BRANCH   3   5
ATOM      5  C   UNL d   1       2.892   0.682   4.633  0.00  0.00     0.098 C 
ATOM      6  C   UNL d   1       1.591   1.021   4.136  0.00  0.00     0.084 C 
ATOM      7  C   UNL d   1       1.046   0.358   3.026  0.00  0.00     0.038 C 
ATOM      8  C   UNL d   1       1.835  -0.559   2.324  0.00  0.00     0.005 C 
ATOM      9  C   UNL d   1       3.091  -0.945   2.821  0.00  0.00     0.038 C 
ATOM     10  C   UNL d   1       3.605  -0.376   4.010  0.00  0.00     0.084 C 
BRANCH   6  11
ATOM     11  O   UNL d   1       0.869   2.128   4.538  0.00  0.00    -0.360 OA
ATOM     12  H   UNL d   1       1.307   2.526   5.313  0.00  0.00     0.217 HD
ENDBRANCH   6  11
BRANCH  10  13
ATOM     13  O   UNL d   1       4.962  -0.519   4.263  0.00  0.00    -0.360 OA
ATOM     14  H   UNL d   1       5.423  -0.304   3.430  0.00  0.00     0.217 HD
ENDBRANCH  10  13
ENDBRANCH   3   5
BRANCH   2  15
ATOM     15  C   UNL d   1       5.408   2.911   6.840  0.00  0.00     0.026 C 
ATOM     16  C   UNL d   1       6.789   2.258   7.019  0.00  0.00     0.037 C 
ATOM     17  C   UNL d   1       5.662   4.404   7.088  0.00  0.00     0.037 C 
ATOM     18  C   UNL d   1       4.525   2.627   8.062  0.00  0.00     0.037 C 
ENDBRANCH   2  15
ENDBRANCH   1   2
BRANCH   1  19
ATOM     19  C   UNL d   1       4.994   2.236   2.818  0.00  0.00     0.245 C 
ATOM     20  O   UNL d   1       4.014   1.597   2.959  0.00  0.00    -0.271 OA
ATOM     21  N   UNL d   1       5.308   2.400   1.509  0.00  0.00    -0.351 N 
ATOM     22  H   UNL d   1       6.150   2.848   1.179  0.00  0.00     0.163 HD
BRANCH  21  23
ATOM     23  C   UNL d   1       4.419   1.744   0.548  0.00  0.00     0.026 C 
ATOM     24  C   UNL d   1       4.971   0.316   0.587  0.00  0.00     0.038 C 
ATOM     25  C   UNL d   1       2.894   1.937   0.858  0.00  0.00     0.038 C 
BRANCH  23  26
ATOM     26  C   UNL d   1       4.608   2.395  -0.817  0.00  0.00     0.038 C 
BRANCH  26  27
ATOM     27  C   UNL d   1       3.894   1.691  -2.005  0.00  0.00    -0.049 C 
ATOM     28  C   UNL d   1       4.391   0.257  -2.230  0.00  0.00     0.014 C 
ATOM     29  C   UNL d   1       2.356   1.678  -1.927  0.00  0.00     0.014 C 
ATOM     30  C   UNL d   1       4.253   2.489  -3.250  0.00  0.00     0.014 C 
ENDBRANCH  26  27
ENDBRANCH  23  26
ENDBRANCH  21  23
ENDBRANCH   1  19
BRANCH   1  31
ATOM     31  C   UNL d   1       5.944   4.178   3.701  0.00  0.00    -0.026 C 
ATOM     32  C   UNL d   1       5.991   4.726   2.438  0.00  0.00     0.012 C 
ATOM     33  C   UNL d   1       6.665   5.877   2.143  0.00  0.00     0.030 C 
ATOM     34  C   UNL d   1       7.000   6.721   3.177  0.00  0.00     0.029 C 
ATOM     35  C   UNL d   1       6.707   6.321   4.458  0.00  0.00     0.030 C 
ATOM     36  C   UNL d   1       5.985   5.170   4.591  0.00  0.00     0.012 C 
BRANCH  34  37
ATOM     37  N   UNL d   1       7.369   8.014   2.901  0.00  0.00    -0.390 N 
ATOM     38  C   UNL d   1       8.202   8.686   3.863  0.00  0.00     0.149 C 
ATOM     39  C   UNL d   1       6.504   8.728   1.978  0.00  0.00     0.149 C 
ENDBRANCH  34  37
ENDBRANCH   1  31
TORSDOF 11
