REMARK  12 active torsions:
REMARK  status: ('A' for Active; 'I' for Inactive)
REMARK    1  A    between atoms: O_2  and  C_3 
REMARK    2  A    between atoms: C_3  and  C_5 
REMARK    3  A    between atoms: C_9  and  C_10 
REMARK    4  A    between atoms: C_10  and  N_11 
REMARK    5  A    between atoms: N_11  and  C_12 
REMARK    6  A    between atoms: N_11  and  C_16 
REMARK    7  A    between atoms: C_12  and  C_13 
REMARK    8  A    between atoms: C_16  and  C_17 
REMARK    9  A    between atoms: C_17  and  O_18 
REMARK   10  A    between atoms: C_17  and  C_19 
REMARK   11  A    between atoms: C_19  and  O_20 
REMARK   12  A    between atoms: O_20  and  C_21 
ROOT
ATOM      1  N   UNL d   1      11.485  -1.344   0.745  0.00  0.00    -0.062 N 
ATOM      2  H   UNL d   1      11.549  -0.682  -0.036  0.00  0.00     0.280 HD
ENDROOT
BRANCH   1   3
ATOM      3  C   UNL d   1      10.356  -2.358   0.405  0.00  0.00     0.313 C 
BRANCH   3   4
ATOM      4  C   UNL d   1       8.977  -1.724   0.025  0.00  0.00     0.134 C 
ATOM      5  N   UNL d   1       7.901  -2.429   0.217  0.00  0.00    -0.225 NA
ATOM      6  C   UNL d   1       6.758  -1.691   0.356  0.00  0.00     0.116 C 
ATOM      7  S   UNL d   1       5.272  -2.423   0.709  0.00  0.00    -0.063 SA
ATOM      8  C   UNL d   1       6.654  -0.312   0.387  0.00  0.00     0.075 C 
ATOM      9  C   UNL d   1       4.459  -0.915   0.742  0.00  0.00     0.089 C 
ATOM     10  C   UNL d   1       5.329   0.165   0.672  0.00  0.00    -0.020 C 
ATOM     11  C   UNL d   1       4.912   1.603   0.805  0.00  0.00     0.051 C 
ATOM     12  C   UNL d   1       7.875   0.421   0.178  0.00  0.00     0.260 C 
ATOM     13  N   UNL d   1       8.944  -0.364  -0.235  0.00  0.00    -0.309 N 
ATOM     14  O   UNL d   1       8.049   1.593   0.504  0.00  0.00    -0.267 OA
ATOM     15  H   UNL d   1       9.788   0.179  -0.210  0.00  0.00     0.170 HD
BRANCH   9  16
ATOM     16  C   UNL d   1       3.012  -0.955   0.832  0.00  0.00     0.300 C 
ATOM     17  O   UNL d   1       2.360  -1.727   1.499  0.00  0.00    -0.259 OA
BRANCH  16  18
ATOM     18  O   UNL d   1       2.488  -0.020  -0.022  0.00  0.00    -0.322 OA
ATOM     19  C   UNL d   1       1.062  -0.042  -0.063  0.00  0.00     0.213 C 
ENDBRANCH  16  18
ENDBRANCH   9  16
ENDBRANCH   3   4
ENDBRANCH   1   3
BRANCH   1  20
ATOM     20  C   UNL d   1      11.382  -0.564   2.089  0.00  0.00     0.239 C 
BRANCH  20  21
ATOM     21  C   UNL d   1      10.101   0.179   2.381  0.00  0.00     0.003 C 
ATOM     22  C   UNL d   1       8.983  -0.765   2.764  0.00  0.00     0.011 C 
ATOM     23  C   UNL d   1      10.150   1.142   3.549  0.00  0.00     0.011 C 
ENDBRANCH  20  21
ENDBRANCH   1  20
BRANCH   1  24
ATOM     24  C   UNL d   1      12.850  -2.069   0.722  0.00  0.00     0.269 C 
BRANCH  24  25
ATOM     25  C   UNL d   1      14.017  -1.052   0.794  0.00  0.00     0.168 C 
BRANCH  25  26
ATOM     26  O   UNL d   1      14.017  -0.303   2.005  0.00  0.00    -0.392 OA
ATOM     27  H   UNL d   1      14.190  -0.892   2.760  0.00  0.00     0.210 HD
ENDBRANCH  25  26
BRANCH  25  28
ATOM     28  C   UNL d   1      15.338  -1.780   0.715  0.00  0.00     0.209 C 
BRANCH  28  29
ATOM     29  O   UNL d   1      16.398  -0.823   0.681  0.00  0.00    -0.348 OA
BRANCH  29  30
ATOM     30  C   UNL d   1      17.652  -1.377   0.685  0.00  0.00     0.074 C 
ATOM     31  C   UNL d   1      18.552  -0.873   1.629  0.00  0.00     0.037 C 
ATOM     32  C   UNL d   1      19.792  -1.489   1.801  0.00  0.00     0.003 C 
ATOM     33  C   UNL d   1      20.246  -2.399   0.854  0.00  0.00     0.001 C 
ATOM     34  C   UNL d   1      19.407  -2.791  -0.181  0.00  0.00     0.009 C 
ATOM     35  C   UNL d   1      18.076  -2.360  -0.221  0.00  0.00    -0.029 C 
ATOM     36  C   UNL d   1      17.176  -3.007  -1.223  0.00  0.00     0.051 C 
ENDBRANCH  29  30
ENDBRANCH  28  29
ENDBRANCH  25  28
ENDBRANCH  24  25
ENDBRANCH   1  24
TORSDOF 12
