REMARK  7 active torsions:
REMARK  status: ('A' for Active; 'I' for Inactive)
REMARK    1  A    between atoms: C_2  and  C_4 
REMARK    2  A    between atoms: C_4  and  C_5 
REMARK    3  A    between atoms: C_5  and  C_6 
REMARK       I    between atoms: C_6  and  N_8 
REMARK    4  A    between atoms: N_8  and  N_9 
REMARK       I    between atoms: N_9  and  C_10 
REMARK    5  A    between atoms: C_10  and  C_12 
REMARK    6  A    between atoms: C_13  and  C_14 
REMARK    7  A    between atoms: C_17  and  N_18 
ROOT
ATOM      1  N   UNL d   1       7.065  -3.313   3.048  0.00  0.00    -0.264 N 
ATOM      2  C   UNL d   1       8.436  -3.436   3.187  0.00  0.00     0.259 C 
ATOM      3  O   UNL d   1       9.234  -2.764   2.531  0.00  0.00    -0.267 OA
ATOM      4  H   UNL d   1       6.378  -3.854   3.572  0.00  0.00     0.190 HD
ENDROOT
BRANCH   2   5
ATOM      5  C   UNL d   1       8.889  -4.459   4.190  0.00  0.00     0.076 C 
ATOM      6  C   UNL d   1      10.200  -4.673   4.429  0.00  0.00     0.017 C 
BRANCH   6   7
ATOM      7  C   UNL d   1      10.771  -5.714   5.319  0.00  0.00    -0.036 A 
ATOM      8  C   UNL d   1      11.975  -5.478   6.008  0.00  0.00     0.014 A 
ATOM      9  C   UNL d   1      12.644  -6.515   6.683  0.00  0.00     0.037 A 
ATOM     10  C   UNL d   1      12.066  -7.788   6.739  0.00  0.00     0.102 A 
ATOM     11  C   UNL d   1      10.858  -8.037   6.079  0.00  0.00     0.037 A 
ATOM     12  C   UNL d   1      10.223  -7.005   5.372  0.00  0.00     0.014 A 
BRANCH  10  13
ATOM     13  N   UNL d   1      12.700  -8.851   7.533  0.00  0.00    -0.116 N 
ATOM     14  O   UNL d   1      13.759  -8.583   8.118  0.00  0.00    -0.532 OA
ATOM     15  O   UNL d   1      12.126  -9.949   7.589  0.00  0.00    -0.532 OA
ENDBRANCH  10  13
ENDBRANCH   6   7
ENDBRANCH   2   5
BRANCH   1  16
ATOM     16  N   UNL d   1       6.527  -2.371   2.124  0.00  0.00    -0.267 N 
ATOM     17  C   UNL d   1       5.149  -2.255   2.009  0.00  0.00     0.236 C 
ATOM     18  O   UNL d   1       4.383  -2.949   2.679  0.00  0.00    -0.272 OA
ATOM     19  H   UNL d   1       7.197  -1.808   1.603  0.00  0.00     0.190 HD
BRANCH  17  20
ATOM     20  C   UNL d   1       4.663  -1.203   1.010  0.00  0.00     0.105 C 
BRANCH  20  21
ATOM     21  C   UNL d   1       3.125  -1.121   0.948  0.00  0.00     0.013 C 
BRANCH  21  22
ATOM     22  C   UNL d   1       2.583  -0.063  -0.038  0.00  0.00    -0.022 C 
ATOM     23  C   UNL d   1       1.049  -0.083  -0.056  0.00  0.00     0.009 C 
ATOM     24  C   UNL d   1       3.059   1.342   0.327  0.00  0.00     0.009 C 
ENDBRANCH  21  22
ENDBRANCH  20  21
ENDBRANCH  17  20
ENDBRANCH   1  16
TORSDOF 7
