REMARK  7 active torsions:
REMARK  status: ('A' for Active; 'I' for Inactive)
REMARK       I    between atoms: C_2  and  N_3 
REMARK    1  A    between atoms: C_2  and  C_29 
REMARK    2  A    between atoms: N_3  and  C_4 
REMARK    3  A    between atoms: N_11  and  C_12 
REMARK    4  A    between atoms: C_12  and  C_13 
REMARK    5  A    between atoms: C_17  and  C_18 
REMARK    6  A    between atoms: C_18  and  N_19 
REMARK    7  A    between atoms: N_19  and  C_20 
ROOT
ATOM      1  C   UNL d   1       2.268  -0.601  -2.450  0.00  0.00     0.044 A 
ATOM      2  C   UNL d   1       2.666  -1.677  -3.270  0.00  0.00     0.030 A 
ATOM      3  C   UNL d   1       1.939  -2.028  -4.436  0.00  0.00     0.003 A 
ATOM      4  C   UNL d   1       0.853  -1.269  -4.840  0.00  0.00     0.018 A 
ATOM      5  C   UNL d   1       0.547  -0.176  -4.058  0.00  0.00     0.042 A 
ATOM      6  C   UNL d   1       1.190   0.156  -2.870  0.00  0.00     0.002 A 
ATOM      7  C   UNL d   1       0.598   1.413  -2.323  0.00  0.00     0.168 A 
ATOM      8  N   UNL d   1      -0.432   1.733  -3.293  0.00  0.00    -0.339 N 
ATOM      9  C   UNL d   1      -0.431   0.847  -4.353  0.00  0.00     0.255 A 
ATOM     10  O   UNL d   1      -1.075   0.804  -5.390  0.00  0.00    -0.267 OA
ENDROOT
BRANCH   8  11
ATOM     11  C   UNL d   1      -1.315   2.871  -3.074  0.00  0.00     0.165 C 
BRANCH  11  12
ATOM     12  C   UNL d   1      -2.389   3.018  -4.110  0.00  0.00    -0.040 A 
ATOM     13  C   UNL d   1      -2.492   4.119  -4.949  0.00  0.00     0.009 A 
ATOM     14  C   UNL d   1      -3.520   4.167  -5.890  0.00  0.00     0.001 A 
ATOM     15  C   UNL d   1      -4.366   3.066  -6.081  0.00  0.00     0.009 A 
ATOM     16  C   UNL d   1      -4.251   1.928  -5.272  0.00  0.00    -0.040 A 
ATOM     17  C   UNL d   1      -3.286   1.958  -4.268  0.00  0.00     0.017 A 
BRANCH  16  18
ATOM     18  C   UNL d   1      -5.151   0.736  -5.493  0.00  0.00     0.158 C 
BRANCH  18  19
ATOM     19  N   UNL d   1      -4.920  -0.354  -4.547  0.00  0.00    -0.386 N 
ATOM     20  H   UNL d   1      -4.141  -0.290  -3.909  0.00  0.00     0.160 HD
BRANCH  19  21
ATOM     21  C   UNL d   1      -5.608  -1.535  -4.533  0.00  0.00     0.030 A 
ATOM     22  C   UNL d   1      -6.002  -2.175  -5.699  0.00  0.00     0.046 A 
ATOM     23  C   UNL d   1      -6.754  -3.333  -5.615  0.00  0.00     0.089 A 
ATOM     24  N   UNL d   1      -7.110  -3.817  -4.416  0.00  0.00    -0.375 N 
ATOM     25  C   UNL d   1      -6.739  -3.232  -3.268  0.00  0.00     0.089 A 
ATOM     26  H   UNL d   1      -7.684  -4.660  -4.377  0.00  0.00     0.164 HD
ATOM     27  C   UNL d   1      -5.967  -2.084  -3.302  0.00  0.00     0.046 A 
ENDBRANCH  19  21
ENDBRANCH  18  19
ENDBRANCH  16  18
ENDBRANCH  11  12
ENDBRANCH   8  11
BRANCH   1  28
ATOM     28  N   UNL d   1       2.966  -0.284  -1.258  0.00  0.00    -0.322 N 
ATOM     29  C   UNL d   1       2.280  -0.084  -0.057  0.00  0.00     0.263 C 
ATOM     30  O   UNL d   1       1.059  -0.208   0.028  0.00  0.00    -0.267 OA
ATOM     31  H   UNL d   1       3.947  -0.529  -1.197  0.00  0.00     0.169 HD
BRANCH  29  32
ATOM     32  C   UNL d   1       3.061   0.140   1.146  0.00  0.00     0.074 A 
ATOM     33  C   UNL d   1       2.721  -0.343   2.400  0.00  0.00     0.027 A 
ATOM     34  C   UNL d   1       3.648   0.039   3.408  0.00  0.00     0.033 A 
ATOM     35  C   UNL d   1       4.598   0.881   2.894  0.00  0.00     0.075 A 
ATOM     36 CL   UNL d   1       5.867   1.623   3.782  0.00  0.00    -0.076 Cl
ATOM     37  S   UNL d   1       4.436   1.152   1.224  0.00  0.00    -0.072 SA
ENDBRANCH  29  32
ENDBRANCH   1  28
TORSDOF 7
