REMARK  4 active torsions:
REMARK  status: ('A' for Active; 'I' for Inactive)
REMARK       I    between atoms: C_2  and  N_3 
REMARK    1  A    between atoms: C_18  and  C_2 
REMARK    2  A    between atoms: N_3  and  C_4 
REMARK    3  A    between atoms: C_4  and  C_5 
REMARK    4  A    between atoms: C_8  and  N_9 
ROOT
ATOM      1  C   UNL d   1       4.185  -4.414   3.803  0.00  0.00    -0.025 A 
ATOM      2  C   UNL d   1       3.544  -5.403   3.044  0.00  0.00     0.014 A 
ATOM      3  C   UNL d   1       3.499  -6.733   3.470  0.00  0.00     0.049 A 
ATOM      4  C   UNL d   1       4.104  -7.102   4.670  0.00  0.00     0.102 A 
ATOM      5  N   UNL d   1       4.717  -6.135   5.370  0.00  0.00    -0.352 N 
ATOM      6  C   UNL d   1       4.781  -4.844   4.989  0.00  0.00     0.098 A 
ATOM      7  H   UNL d   1       5.205  -6.448   6.205  0.00  0.00     0.166 HD
ENDROOT
BRANCH   1   8
ATOM      8  C   UNL d   1       4.239  -2.928   3.436  0.00  0.00     0.162 C 
BRANCH   8   9
ATOM      9  N   UNL d   1       3.646  -2.631   2.152  0.00  0.00    -0.356 N 
ATOM     10  C   UNL d   1       3.723  -1.432   1.478  0.00  0.00     0.224 C 
ATOM     11  O   UNL d   1       4.241  -0.439   1.991  0.00  0.00    -0.273 OA
ATOM     12  H   UNL d   1       2.866  -3.212   1.901  0.00  0.00     0.162 HD
BRANCH  10  13
ATOM     13  C   UNL d   1       3.111  -1.410   0.061  0.00  0.00     0.109 C 
ATOM     14  C   UNL d   1       4.063  -1.244  -1.146  0.00  0.00     0.048 C 
ATOM     15  C   UNL d   1       3.642  -2.398  -2.077  0.00  0.00     0.122 C 
ATOM     16  C   UNL d   1       4.190  -3.712  -1.546  0.00  0.00     0.034 C 
ATOM     17  O   UNL d   1       2.234  -2.515  -1.770  0.00  0.00    -0.380 OA
ATOM     18  C   UNL d   1       3.301  -3.933  -0.342  0.00  0.00     0.035 C 
ATOM     19  C   UNL d   1       2.383  -2.696  -0.346  0.00  0.00     0.135 C 
ENDBRANCH  10  13
ENDBRANCH   8   9
ENDBRANCH   1   8
BRANCH   4  20
ATOM     20  N   UNL d   1       4.306  -8.408   5.082  0.00  0.00    -0.367 N 
ATOM     21  C   UNL d   1       3.373  -9.025   6.045  0.00  0.00     0.124 C 
ATOM     22  C   UNL d   1       4.180  -9.489   7.267  0.00  0.00     0.020 C 
ATOM     23  C   UNL d   1       5.050 -10.732   7.042  0.00  0.00     0.002 C 
ATOM     24  C   UNL d   1       5.982 -10.656   5.833  0.00  0.00     0.002 C 
ATOM     25  C   UNL d   1       5.228 -10.671   4.506  0.00  0.00     0.020 C 
ATOM     26  C   UNL d   1       4.824  -9.285   4.018  0.00  0.00     0.124 C 
ENDBRANCH   4  20
TORSDOF 4
