REMARK  7 active torsions:
REMARK  status: ('A' for Active; 'I' for Inactive)
REMARK    1  A    between atoms: C_6  and  N_7 
REMARK       I    between atoms: N_7  and  C_8 
REMARK    2  A    between atoms: C_8  and  C_10 
REMARK    3  A    between atoms: C_10  and  N_11 
REMARK    4  A    between atoms: N_11  and  C_12 
REMARK    5  A    between atoms: C_15  and  C_16 
REMARK       I    between atoms: C_16  and  N_18 
REMARK    6  A    between atoms: N_18  and  C_19 
REMARK    7  A    between atoms: C_19  and  C_20 
ROOT
ATOM      1  C   UNL d   1      -3.473  -7.022  -0.066  0.00  0.00     0.028 A 
ATOM      2  C   UNL d   1      -4.498  -7.554  -0.855  0.00  0.00     0.030 A 
ATOM      3  C   UNL d   1      -4.847  -8.912  -0.779  0.00  0.00     0.019 A 
ATOM      4  C   UNL d   1      -4.136  -9.789   0.050  0.00  0.00     0.032 A 
ATOM      5  C   UNL d   1      -3.122  -9.252   0.854  0.00  0.00     0.019 A 
ATOM      6  C   UNL d   1      -2.792  -7.890   0.783  0.00  0.00     0.030 A 
ENDROOT
BRANCH   1   7
ATOM      7  N   UNL d   1      -3.155  -5.693  -0.184  0.00  0.00    -0.381 N 
ATOM      8  H   UNL d   1      -3.918  -5.010  -0.158  0.00  0.00     0.160 HD
BRANCH   7   9
ATOM      9  C   UNL d   1      -1.818  -5.114  -0.046  0.00  0.00     0.223 C 
BRANCH   9  10
ATOM     10  C   UNL d   1      -1.963  -3.585  -0.037  0.00  0.00     0.239 C 
ATOM     11  N   UNL d   1      -0.773  -2.859  -0.027  0.00  0.00    -0.325 N 
ATOM     12  H   UNL d   1       0.089  -3.385  -0.027  0.00  0.00     0.169 HD
ATOM     13  O   UNL d   1      -3.102  -3.113  -0.032  0.00  0.00    -0.271 OA
BRANCH  11  14
ATOM     14  C   UNL d   1      -0.675  -1.431  -0.015  0.00  0.00     0.041 A 
ATOM     15  C   UNL d   1      -1.841  -0.651  -0.016  0.00  0.00     0.030 A 
ATOM     16  C   UNL d   1      -1.821   0.736   0.016  0.00  0.00     0.003 A 
ATOM     17  C   UNL d   1      -0.612   1.399   0.023  0.00  0.00     0.007 A 
ATOM     18  C   UNL d   1       0.589   0.675   0.004  0.00  0.00    -0.054 A 
ATOM     19  C   UNL d   1       1.869   1.473  -0.014  0.00  0.00     0.049 C 
ATOM     20  C   UNL d   1       0.574  -0.756   0.000  0.00  0.00    -0.029 A 
ATOM     21  C   UNL d   1       1.903  -1.472   0.022  0.00  0.00     0.051 C 
ENDBRANCH  11  14
ENDBRANCH   9  10
ENDBRANCH   7   9
ENDBRANCH   1   7
BRANCH   4  22
ATOM     22  C   UNL d   1      -4.461 -11.259  -0.012  0.00  0.00     0.251 C 
ATOM     23  O   UNL d   1      -5.350 -11.669  -0.759  0.00  0.00    -0.268 OA
ATOM     24  N   UNL d   1      -3.709 -12.112   0.762  0.00  0.00    -0.351 N 
ATOM     25  H   UNL d   1      -2.970 -11.740   1.327  0.00  0.00     0.163 HD
BRANCH  24  26
ATOM     26  C   UNL d   1      -3.888 -13.559   0.761  0.00  0.00     0.187 C 
BRANCH  26  27
ATOM     27  C   UNL d   1      -2.939 -14.185   1.735  0.00  0.00     0.070 A 
ATOM     28  C   UNL d   1      -1.966 -13.677   2.576  0.00  0.00     0.036 A 
ATOM     29  C   UNL d   1      -1.423 -14.764   3.293  0.00  0.00     0.027 A 
ATOM     30  C   UNL d   1      -2.077 -15.882   2.838  0.00  0.00     0.142 A 
ATOM     31  O   UNL d   1      -2.997 -15.546   1.892  0.00  0.00    -0.325 OA
ENDBRANCH  26  27
ENDBRANCH  24  26
ENDBRANCH   4  22
TORSDOF 7
