REMARK  6 active torsions:
REMARK  status: ('A' for Active; 'I' for Inactive)
REMARK    1  A    between atoms: C_2  and  C_3 
REMARK    2  A    between atoms: C_3  and  C_4 
REMARK    3  A    between atoms: C_4  and  N_5 
REMARK    4  A    between atoms: C_4  and  C_9 
REMARK       I    between atoms: N_5  and  C_6 
REMARK       I    between atoms: C_6  and  N_7 
REMARK       I    between atoms: C_9  and  N_11 
REMARK    5  A    between atoms: N_11  and  N_12 
REMARK       I    between atoms: N_12  and  C_13 
REMARK    6  A    between atoms: C_13  and  C_15 
ROOT
ATOM      1  C   UNL d   1       8.908  -2.394   5.550  0.00  0.00     0.033 A 
ATOM      2  C   UNL d   1       8.354  -3.545   6.126  0.00  0.00     0.018 A 
ATOM      3  C   UNL d   1       8.956  -4.149   7.252  0.00  0.00     0.024 A 
ATOM      4  C   UNL d   1      10.121  -3.618   7.818  0.00  0.00     0.044 A 
ATOM      5  C   UNL d   1      10.783  -4.303   8.903  0.00  0.00     0.099 C 
ATOM      6  N   UNL d   1      11.319  -4.873   9.753  0.00  0.00    -0.191 NA
ATOM      7  C   UNL d   1      10.656  -2.446   7.282  0.00  0.00     0.024 A 
ATOM      8  C   UNL d   1      10.059  -1.845   6.154  0.00  0.00     0.018 A 
ENDROOT
BRANCH   1   9
ATOM      9  C   UNL d   1       8.402  -1.813   4.247  0.00  0.00     0.270 C 
ATOM     10  N   UNL d   1       7.027  -1.770   4.017  0.00  0.00    -0.263 N 
ATOM     11  H   UNL d   1       6.328  -2.023   4.714  0.00  0.00     0.190 HD
ATOM     12  O   UNL d   1       9.214  -1.399   3.422  0.00  0.00    -0.266 OA
BRANCH  10  13
ATOM     13  N   UNL d   1       6.516  -1.172   2.797  0.00  0.00    -0.265 N 
ATOM     14  C   UNL d   1       5.140  -1.084   2.612  0.00  0.00     0.259 C 
ATOM     15  O   UNL d   1       4.378  -1.526   3.479  0.00  0.00    -0.269 OA
ATOM     16  H   UNL d   1       7.206  -0.893   2.102  0.00  0.00     0.190 HD
BRANCH  14  17
ATOM     17  C   UNL d   1       4.599  -0.511   1.229  0.00  0.00     0.180 C 
BRANCH  17  18
ATOM     18  C   UNL d   1       3.031  -0.552   1.292  0.00  0.00     0.035 C 
BRANCH  18  19
ATOM     19  C   UNL d   1       2.337  -0.065   0.032  0.00  0.00    -0.002 C 
ATOM     20  C   UNL d   1       0.839  -0.025   0.002  0.00  0.00     0.005 C 
ENDBRANCH  18  19
ENDBRANCH  17  18
BRANCH  17  21
ATOM     21  N   UNL d   1       5.131   0.836   0.903  0.00  0.00    -0.330 N 
ATOM     22  C   UNL d   1       4.941   1.644  -0.178  0.00  0.00     0.314 C 
ATOM     23  N   UNL d   1       4.467   1.101  -1.319  0.00  0.00    -0.352 N 
ATOM     24  O   UNL d   1       5.167   2.847  -0.119  0.00  0.00    -0.248 OA
ATOM     25  H   UNL d   1       4.177   0.143  -1.357  0.00  0.00     0.160 HD
ATOM     26  H   UNL d   1       3.925   1.728  -1.909  0.00  0.00     0.160 HD
ATOM     27  H   UNL d   1       5.526   1.361   1.675  0.00  0.00     0.165 HD
ENDBRANCH  17  21
ENDBRANCH  14  17
ENDBRANCH  10  13
ENDBRANCH   1   9
TORSDOF 6
