REMARK  8 active torsions:
REMARK  status: ('A' for Active; 'I' for Inactive)
REMARK       I    between atoms: C_2  and  N_3 
REMARK    1  A    between atoms: C_2  and  C_12 
REMARK    2  A    between atoms: N_3  and  C_4 
REMARK    3  A    between atoms: C_4  and  C_5 
REMARK    4  A    between atoms: C_16  and  N_17 
REMARK    5  A    between atoms: N_17  and  C_18 
REMARK    6  A    between atoms: C_21  and  O_22 
REMARK    7  A    between atoms: O_22  and  C_23 
REMARK    8  A    between atoms: C_23  and  C_24 
ROOT
ATOM      1  C   UNL d   1       2.954   0.596   0.900  0.00  0.00     0.161 A 
ATOM      2  N   UNL d   1       4.111   1.321   0.921  0.00  0.00    -0.274 N 
ATOM      3  N   UNL d   1       4.463   1.681   2.166  0.00  0.00     0.005 NA
ATOM      4  N   UNL d   1       3.537   1.208   2.991  0.00  0.00    -0.139 NA
ATOM      5  C   UNL d   1       2.606   0.543   2.241  0.00  0.00     0.179 A 
ATOM      6  H   UNL d   1       4.674   1.643   0.144  0.00  0.00     0.184 HD
ENDROOT
BRANCH   5   7
ATOM      7  N   UNL d   1       1.524  -0.044   2.808  0.00  0.00    -0.338 N 
ATOM      8  H   UNL d   1       1.376   0.041   3.809  0.00  0.00     0.167 HD
BRANCH   7   9
ATOM      9  C   UNL d   1       0.610  -0.893   2.156  0.00  0.00     0.033 A 
ATOM     10  C   UNL d   1      -0.749  -0.580   2.075  0.00  0.00     0.032 A 
ATOM     11  C   UNL d   1      -1.597  -1.338   1.250  0.00  0.00     0.039 A 
ATOM     12  C   UNL d   1      -1.083  -2.363   0.448  0.00  0.00     0.069 A 
ATOM     13  C   UNL d   1       0.259  -2.705   0.574  0.00  0.00     0.039 A 
ATOM     14  C   UNL d   1       1.086  -1.998   1.442  0.00  0.00     0.032 A 
BRANCH  12  15
ATOM     15  O   UNL d   1      -1.954  -2.936  -0.442  0.00  0.00    -0.347 OA
BRANCH  15  16
ATOM     16  C   UNL d   1      -1.391  -3.879  -1.363  0.00  0.00     0.214 C 
BRANCH  16  17
ATOM     17  C   UNL d   1      -2.470  -4.454  -2.248  0.00  0.00    -0.034 A 
ATOM     18  C   UNL d   1      -3.443  -3.636  -2.836  0.00  0.00     0.009 A 
ATOM     19  C   UNL d   1      -4.502  -4.204  -3.546  0.00  0.00     0.001 A 
ATOM     20  C   UNL d   1      -4.542  -5.580  -3.762  0.00  0.00     0.000 A 
ATOM     21  C   UNL d   1      -3.541  -6.396  -3.241  0.00  0.00     0.001 A 
ATOM     22  C   UNL d   1      -2.511  -5.836  -2.486  0.00  0.00     0.009 A 
ENDBRANCH  16  17
ENDBRANCH  15  16
ENDBRANCH  12  15
ENDBRANCH   7   9
ENDBRANCH   5   7
BRANCH   1  23
ATOM     23  C   UNL d   1       2.268   0.143  -0.274  0.00  0.00     0.273 C 
ATOM     24  O   UNL d   1       1.071   0.369  -0.485  0.00  0.00    -0.266 OA
ATOM     25  N   UNL d   1       2.999  -0.610  -1.171  0.00  0.00    -0.351 N 
ATOM     26  H   UNL d   1       3.969  -0.833  -0.996  0.00  0.00     0.163 HD
BRANCH  25  27
ATOM     27  C   UNL d   1       2.288  -1.363  -2.193  0.00  0.00     0.161 C 
BRANCH  27  28
ATOM     28  C   UNL d   1       3.217  -2.055  -3.155  0.00  0.00    -0.040 A 
ATOM     29  C   UNL d   1       3.160  -3.445  -3.350  0.00  0.00     0.010 A 
ATOM     30  C   UNL d   1       4.012  -4.066  -4.267  0.00  0.00     0.024 A 
ATOM     31  C   UNL d   1       4.920  -3.301  -4.995  0.00  0.00     0.034 A 
ATOM     32 CL   UNL d   1       5.981  -4.064  -6.113  0.00  0.00    -0.084 Cl
ATOM     33  C   UNL d   1       4.975  -1.920  -4.824  0.00  0.00     0.024 A 
ATOM     34  C   UNL d   1       4.124  -1.299  -3.908  0.00  0.00     0.010 A 
ENDBRANCH  27  28
ENDBRANCH  25  27
ENDBRANCH   1  23
TORSDOF 8
