REMARK  8 active torsions:
REMARK  status: ('A' for Active; 'I' for Inactive)
REMARK    1  A    between atoms: C_3  and  C_4 
REMARK    2  A    between atoms: C_4  and  C_5 
REMARK       I    between atoms: C_5  and  N_7 
REMARK    3  A    between atoms: N_7  and  CA_8 
REMARK    4  A    between atoms: CA_8  and  C_9 
REMARK    5  A    between atoms: CA_8  and  C_20 
REMARK    6  A    between atoms: C_9  and  C_10 
REMARK    7  A    between atoms: C_16  and  O_17 
REMARK    8  A    between atoms: C_28  and  O_29 
ROOT
ATOM      1  C   UNL d   1      -4.964   0.139  -0.599  0.00  0.00     0.222 C 
ATOM      2  O   UNL d   1      -4.821  -0.794  -1.380  0.00  0.00    -0.273 OA
ATOM      3  N   UNL d   1      -6.193   0.390  -0.035  0.00  0.00    -0.346 N 
ATOM      4  H   UNL d   1      -6.615   1.317  -0.084  0.00  0.00     0.163 HD
ENDROOT
BRANCH   3   5
ATOM      5  CA  UNL d   1      -7.219  -0.692  -0.071  0.00  0.00     0.189 C 
BRANCH   5   6
ATOM      6  C   UNL d   1      -7.100  -1.573   1.190  0.00  0.00     0.077 C 
BRANCH   6   7
ATOM      7  C   UNL d   1      -5.763  -2.259   1.407  0.00  0.00    -0.028 C 
ATOM      8  C   UNL d   1      -4.553  -1.684   1.749  0.00  0.00     0.096 C 
ATOM      9  N   UNL d   1      -3.578  -2.636   1.619  0.00  0.00    -0.365 N 
ATOM     10  C   UNL d   1      -4.130  -3.865   1.395  0.00  0.00     0.043 C 
ATOM     11  H   UNL d   1      -2.595  -2.449   1.503  0.00  0.00     0.165 HD
ATOM     12  C   UNL d   1      -3.514  -5.108   1.228  0.00  0.00     0.033 C 
ATOM     13  C   UNL d   1      -5.506  -3.662   1.322  0.00  0.00     0.001 C 
ATOM     14  C   UNL d   1      -4.363  -6.214   1.167  0.00  0.00     0.039 C 
ATOM     15  C   UNL d   1      -5.747  -6.041   1.158  0.00  0.00     0.066 C 
ATOM     16  C   UNL d   1      -6.332  -4.780   1.166  0.00  0.00     0.050 C 
BRANCH  15  17
ATOM     17  O   UNL d   1      -6.602  -7.105   1.163  0.00  0.00    -0.361 OA
ATOM     18  H   UNL d   1      -6.072  -7.913   1.191  0.00  0.00     0.217 HD
ENDBRANCH  15  17
ENDBRANCH   6   7
ENDBRANCH   5   6
BRANCH   5  19
ATOM     19  C   UNL d   1      -8.682  -0.150  -0.153  0.00  0.00     0.197 C 
ATOM     20  O   UNL d   1      -8.762   1.118  -0.206  0.00  0.00    -0.646 OA
ATOM     21  OXT UNL d   1      -9.607  -1.010  -0.174  0.00  0.00    -0.646 OA
ENDBRANCH   5  19
ENDBRANCH   3   5
BRANCH   1  22
ATOM     22  C   UNL d   1      -3.818   1.099  -0.236  0.00  0.00     0.148 C 
BRANCH  22  23
ATOM     23  C   UNL d   1      -2.362   0.580  -0.160  0.00  0.00     0.033 C 
ATOM     24  C   UNL d   1      -1.303   1.426  -0.030  0.00  0.00    -0.036 C 
ATOM     25  C   UNL d   1      -1.438   2.928  -0.006  0.00  0.00     0.050 C 
ATOM     26  C   UNL d   1       0.081   0.887   0.013  0.00  0.00     0.005 A 
ATOM     27  C   UNL d   1       1.250   1.649   0.038  0.00  0.00     0.017 A 
ATOM     28  C   UNL d   1       0.256  -0.489   0.032  0.00  0.00     0.092 A 
ATOM     29  C   UNL d   1       2.513   1.030   0.040  0.00  0.00     0.037 A 
ATOM     30  C   UNL d   1       2.627  -0.355   0.003  0.00  0.00     0.068 A 
ATOM     31  C   UNL d   1       1.492  -1.134  -0.003  0.00  0.00     0.074 A 
ATOM     32  O   UNL d   1      -0.827  -1.337   0.127  0.00  0.00    -0.274 OA
ATOM     33  C   UNL d   1      -2.044  -0.876  -0.313  0.00  0.00     0.295 C 
ATOM     34  O   UNL d   1      -2.784  -1.755  -0.726  0.00  0.00    -0.259 OA
BRANCH  30  35
ATOM     35  O   UNL d   1       3.869  -0.912  -0.007  0.00  0.00    -0.361 OA
ATOM     36  H   UNL d   1       3.775  -1.879  -0.039  0.00  0.00     0.217 HD
ENDBRANCH  30  35
ENDBRANCH  22  23
ENDBRANCH   1  22
TORSDOF 8
