@<TRIPOS>MOLECULE
*****
 60 62 0 0 0
SMALL
GASTEIGER

@<TRIPOS>ATOM
      1 C           1.0713   -0.0870    0.0160 C.3     1  UNL1       -0.0587
      2 C           2.6077   -0.0801   -0.0413 C.3     1  UNL1       -0.0215
      3 C           3.1177   -1.5120   -0.1804 C.3     1  UNL1       -0.0587
      4 C           3.0943    0.8604   -1.1322 C.ar    1  UNL1       -0.0447
      5 C           3.9235    0.5002   -2.2056 C.ar    1  UNL1       -0.0566
      6 C           4.3284    1.4545   -3.1679 C.ar    1  UNL1       -0.0402
      7 C           3.8413    2.7696   -3.1172 C.ar    1  UNL1        0.0338
      8 N           4.1125    3.7066   -4.1559 N.am    1  UNL1       -0.2777
      9 C           3.5788    5.0029   -4.2349 C.2     1  UNL1        0.3048
     10 O           2.8348    5.5637   -3.4304 O.2     1  UNL1       -0.2648
     11 C           3.9499    5.8321   -5.4761 C.2     1  UNL1        0.3184
     12 O           4.6596    5.3164   -6.3431 O.2     1  UNL1       -0.2634
     13 N           3.4146    7.1286   -5.4701 N.am    1  UNL1       -0.1992
     14 N           3.6577    7.9792   -6.5204 N.2     1  UNL1       -0.1873
     15 C           3.2260    9.2033   -6.4727 C.2     1  UNL1        0.0528
     16 C           3.4694   10.1102   -7.6356 C.ar    1  UNL1       -0.0052
     17 C           3.8330   11.4547   -7.5030 C.ar    1  UNL1       -0.0496
     18 C           4.0480   12.2367   -8.6611 C.ar    1  UNL1       -0.0193
     19 C           3.9497   11.6738   -9.9452 C.ar    1  UNL1        0.1212
     20 O           4.2695   12.4813  -11.0029 O.3     1  UNL1       -0.4828
     21 C           4.3200   11.9064  -12.3236 C.3     1  UNL1        0.1655
     22 C           4.8204   12.9669  -13.3182 C.2     1  UNL1        0.2548
     23 O           5.1611   14.0846  -12.9257 O.2     1  UNL1       -0.2717
     24 N           4.8332   12.6053  -14.6733 N.am    1  UNL1       -0.2827
     25 C           5.3403   13.5044  -15.6518 C.ar    1  UNL1        0.0349
     26 C           4.7044   13.7059  -16.8833 C.ar    1  UNL1       -0.0404
     27 C           5.2290   14.6388  -17.7972 C.ar    1  UNL1       -0.0586
     28 C           6.3737   15.3750  -17.4794 C.ar    1  UNL1       -0.0433
     29 C           7.0250   15.1372  -16.2758 C.ar    1  UNL1        0.0427
     30 CL          8.4792   15.9718  -15.8929 Cl      1  UNL1       -0.0835
     31 C           6.5180   14.2066  -15.3767 C.ar    1  UNL1       -0.0221
     32 C           3.5527   10.3470  -10.0595 C.ar    1  UNL1       -0.0193
     33 C           3.3159    9.5740   -8.9165 C.ar    1  UNL1       -0.0496
     34 C           3.0497    3.1156   -2.0255 C.ar    1  UNL1       -0.0402
     35 C           2.6952    2.1926   -1.0491 C.ar    1  UNL1       -0.0566
     36 H           0.7080   -0.7325    0.8215 H       1  UNL1        0.0235
     37 H           0.6499   -0.4387   -0.9319 H       1  UNL1        0.0235
     38 H           0.6591    0.9110    0.2033 H       1  UNL1        0.0235
     39 H           2.9847    0.3108    0.9155 H       1  UNL1        0.0343
     40 H           2.7734   -1.9584   -1.1194 H       1  UNL1        0.0235
     41 H           2.7596   -2.1389    0.6423 H       1  UNL1        0.0235
     42 H           4.2127   -1.5385   -0.1668 H       1  UNL1        0.0235
     43 H           4.2581   -0.5295   -2.3250 H       1  UNL1        0.0621
     44 H           5.0169    1.1264   -3.9440 H       1  UNL1        0.0636
     45 H           4.6771    3.3961   -4.9446 H       1  UNL1        0.1553
     46 H           2.8348    7.4159   -4.6800 H       1  UNL1        0.1777
     47 H           2.6634    9.6223   -5.6171 H       1  UNL1        0.0851
     48 H           3.9990   11.9021   -6.5253 H       1  UNL1        0.0625
     49 H           4.3090   13.2910   -8.5588 H       1  UNL1        0.0654
     50 H           3.3136   11.5988  -12.6247 H       1  UNL1        0.0795
     51 H           5.0190   11.0613  -12.3495 H       1  UNL1        0.0795
     52 H           4.3413   11.7801  -14.9947 H       1  UNL1        0.1549
     53 H           3.7617   13.2215  -17.1263 H       1  UNL1        0.0636
     54 H           4.7424   14.8105  -18.7559 H       1  UNL1        0.0619
     55 H           6.7531   16.1289  -18.1646 H       1  UNL1        0.0632
     56 H           7.0541   14.0210  -14.4503 H       1  UNL1        0.0651
     57 H           3.4197    9.8753  -11.0248 H       1  UNL1        0.0654
     58 H           3.0121    8.5371   -9.0330 H       1  UNL1        0.0625
     59 H           2.6635    4.1137   -1.8800 H       1  UNL1        0.0636
     60 H           2.0685    2.5387   -0.2310 H       1  UNL1        0.0621
@<TRIPOS>BOND
     1     1     2    1
     2     2     3    1
     3     2     4    1
     4     4     5   ar
     5     5     6   ar
     6     6     7   ar
     7     7     8    1
     8     8     9   am
     9     9    10    2
    10     9    11    1
    11    11    12    2
    12    11    13   am
    13    13    14    1
    14    14    15    2
    15    15    16    1
    16    16    17   ar
    17    17    18   ar
    18    18    19   ar
    19    19    20    1
    20    20    21    1
    21    21    22    1
    22    22    23    2
    23    22    24   am
    24    24    25    1
    25    25    26   ar
    26    26    27   ar
    27    27    28   ar
    28    28    29   ar
    29    29    30    1
    30    29    31   ar
    31    25    31   ar
    32    19    32   ar
    33    32    33   ar
    34    16    33   ar
    35     7    34   ar
    36    34    35   ar
    37     4    35   ar
    38     1    36    1
    39     1    37    1
    40     1    38    1
    41     2    39    1
    42     3    40    1
    43     3    41    1
    44     3    42    1
    45     5    43    1
    46     6    44    1
    47     8    45    1
    48    13    46    1
    49    15    47    1
    50    17    48    1
    51    18    49    1
    52    21    50    1
    53    21    51    1
    54    24    52    1
    55    26    53    1
    56    27    54    1
    57    28    55    1
    58    31    56    1
    59    32    57    1
    60    33    58    1
    61    34    59    1
    62    35    60    1
