@<TRIPOS>MOLECULE
*****
 72 73 0 0 0
SMALL
GASTEIGER

@<TRIPOS>ATOM
      1 C           8.4929    0.6456   10.9532 C.3     1  UNL1       -0.0652
      2 C           7.4128    0.5108    9.8960 C.3     1  UNL1       -0.0545
      3 C           7.8038    1.1455    8.5709 C.3     1  UNL1       -0.0376
      4 C           6.6714    0.9350    7.5479 C.3     1  UNL1        0.0116
      5 N           7.0466    1.3298    6.2119 N.am    1  UNL1       -0.3135
      6 C           6.2222    1.7427    5.2165 C.2     1  UNL1        0.2384
      7 O           4.9856    1.6570    5.3124 O.2     1  UNL1       -0.2734
      8 C           6.9707    2.3252    3.9200 C.3     1  UNL1        0.1346
      9 C           6.2259    1.7212    2.7359 C.ar    1  UNL1        0.0648
     10 C           5.8371    2.4368    1.5896 C.ar    1  UNL1        0.1292
     11 O           6.1721    3.7385    1.3341 O.3     1  UNL1       -0.5062
     12 C           5.2027    1.7778    0.5354 C.ar    1  UNL1        0.0219
     13 C           4.8871    0.4215    0.6539 C.ar    1  UNL1        0.1238
     14 O           4.3085   -0.2664   -0.3705 O.3     1  UNL1       -0.5065
     15 C           5.3520   -0.3319    1.7226 C.ar    1  UNL1        0.0219
     16 C           5.9975    0.3206    2.7566 C.ar    1  UNL1        0.1292
     17 O           6.6118   -0.4313    3.7312 O.3     1  UNL1       -0.5062
     18 N           8.5470    2.3581    3.8335 N.am    1  UNL1       -0.2806
     19 C           9.3170    1.7719    2.7740 C.2     1  UNL1        0.2169
     20 O          10.5492    1.7905    2.7149 O.2     1  UNL1       -0.2756
     21 C           8.6821    1.0877    1.5956 C.3     1  UNL1        0.0244
     22 C           9.6334    0.4931    0.5509 C.3     1  UNL1       -0.0419
     23 C           8.9380   -0.2640   -0.6159 C.3     1  UNL1       -0.0406
     24 C           8.8718   -1.7733   -0.3036 C.3     1  UNL1       -0.0502
     25 C           8.0975   -2.5661   -1.3620 C.3     1  UNL1       -0.0528
     26 C           6.6849   -2.0360   -1.5480 C.3     1  UNL1       -0.0530
     27 C           6.7963   -0.5745   -1.9716 C.3     1  UNL1       -0.0528
     28 C           7.5270    0.2189   -0.8969 C.3     1  UNL1       -0.0502
     29 C           9.3372    3.2367    4.8594 C.3     1  UNL1        0.0301
     30 C           8.8927    4.7076    4.8175 C.3     1  UNL1       -0.0440
     31 C           9.1886    2.8353    6.3256 C.3     1  UNL1       -0.0440
     32 C          10.8710    3.1550    4.7107 C.3     1  UNL1       -0.0440
     33 H           8.1613    0.1625   11.8776 H       1  UNL1        0.0230
     34 H           8.7040    1.6965   11.1739 H       1  UNL1        0.0230
     35 H           9.4229    0.1653   10.6331 H       1  UNL1        0.0230
     36 H           6.4908    0.9777   10.2577 H       1  UNL1        0.0263
     37 H           7.2065   -0.5516    9.7294 H       1  UNL1        0.0263
     38 H           8.7405    0.6965    8.2154 H       1  UNL1        0.0280
     39 H           8.0114    2.2140    8.7264 H       1  UNL1        0.0280
     40 H           5.7797    1.4898    7.8594 H       1  UNL1        0.0462
     41 H           6.4305   -0.1260    7.4760 H       1  UNL1        0.0462
     42 H           7.9189    0.9785    5.8456 H       1  UNL1        0.1487
     43 H           6.6860    3.3836    3.9496 H       1  UNL1        0.0650
     44 H           6.5761    4.1662    2.1033 H       1  UNL1        0.2922
     45 H           5.1083    2.2892   -0.4218 H       1  UNL1        0.0691
     46 H           4.2699    0.3229   -1.1416 H       1  UNL1        0.2921
     47 H           5.3826   -1.4155    1.6443 H       1  UNL1        0.0691
     48 H           6.3178   -1.3549    3.6543 H       1  UNL1        0.2922
     49 H           8.1038    1.8450    1.0753 H       1  UNL1        0.0358
     50 H           8.1513    0.2327    1.9832 H       1  UNL1        0.0358
     51 H          10.3206   -0.1881    1.0653 H       1  UNL1        0.0272
     52 H          10.2378    1.3059    0.1361 H       1  UNL1        0.0272
     53 H           9.5242   -0.1021   -1.5257 H       1  UNL1        0.0301
     54 H           8.3945   -1.9309    0.6745 H       1  UNL1        0.0268
     55 H           9.8898   -2.1647   -0.2332 H       1  UNL1        0.0268
     56 H           8.0658   -3.6244   -1.0901 H       1  UNL1        0.0265
     57 H           8.6176   -2.4793   -2.3218 H       1  UNL1        0.0265
     58 H           6.1181   -2.1619   -0.6145 H       1  UNL1        0.0265
     59 H           6.1431   -2.6057   -2.3101 H       1  UNL1        0.0265
     60 H           5.8068   -0.1699   -2.1846 H       1  UNL1        0.0265
     61 H           7.3435   -0.4843   -2.9115 H       1  UNL1        0.0265
     62 H           7.0354    0.0164    0.0378 H       1  UNL1        0.0268
     63 H           7.4734    1.2934   -1.0916 H       1  UNL1        0.0268
     64 H           7.8226    4.8136    5.0290 H       1  UNL1        0.0250
     65 H           9.1073    5.1772    3.8574 H       1  UNL1        0.0250
     66 H           9.4084    5.2751    5.6046 H       1  UNL1        0.0250
     67 H           8.1985    3.1193    6.6813 H       1  UNL1        0.0250
     68 H           9.8555    3.3607    7.0180 H       1  UNL1        0.0250
     69 H           9.4489    1.7798    6.4427 H       1  UNL1        0.0250
     70 H          11.2093    3.6109    3.7778 H       1  UNL1        0.0250
     71 H          11.1905    2.1034    4.7765 H       1  UNL1        0.0250
     72 H          11.4008    3.6633    5.5200 H       1  UNL1        0.0250
@<TRIPOS>BOND
     1     1     2    1
     2     2     3    1
     3     3     4    1
     4     4     5    1
     5     5     6   am
     6     6     7    2
     7     9    10   ar
     8    10    11    1
     9    10    12   ar
    10    12    13   ar
    11    13    14    1
    12    13    15   ar
    13    15    16   ar
    14     9    16   ar
    15    16    17    1
    16     8    18    1
    17    18    19   am
    18    19    20    2
    19    19    21    1
    20    21    22    1
    21    22    23    1
    22    23    24    1
    23    24    25    1
    24    25    26    1
    25    26    27    1
    26    27    28    1
    27    23    28    1
    28    18    29    1
    29    29    30    1
    30    29    31    1
    31    29    32    1
    32     8     9    1
    33     8     6    1
    34     1    33    1
    35     1    34    1
    36     1    35    1
    37     2    36    1
    38     2    37    1
    39     3    38    1
    40     3    39    1
    41     4    40    1
    42     4    41    1
    43     5    42    1
    44     8    43    1
    45    11    44    1
    46    12    45    1
    47    14    46    1
    48    15    47    1
    49    17    48    1
    50    21    49    1
    51    21    50    1
    52    22    51    1
    53    22    52    1
    54    23    53    1
    55    24    54    1
    56    24    55    1
    57    25    56    1
    58    25    57    1
    59    26    58    1
    60    26    59    1
    61    27    60    1
    62    27    61    1
    63    28    62    1
    64    28    63    1
    65    30    64    1
    66    30    65    1
    67    30    66    1
    68    31    67    1
    69    31    68    1
    70    31    69    1
    71    32    70    1
    72    32    71    1
    73    32    72    1
