REMARK  6 active torsions:
REMARK  status: ('A' for Active; 'I' for Inactive)
REMARK    1  A    between atoms: C_2  and  C_4 
REMARK    2  A    between atoms: C_4  and  N_5 
REMARK       I    between atoms: N_5  and  C_6 
REMARK       I    between atoms: C_6  and  N_8 
REMARK    3  A    between atoms: N_8  and  N_9 
REMARK       I    between atoms: N_9  and  C_10 
REMARK    4  A    between atoms: C_10  and  C_12 
REMARK    5  A    between atoms: C_15  and  N_16 
REMARK    6  A    between atoms: N_16  and  C_17 
ROOT
ATOM      1  N   UNL d   1       7.478  -1.011  -3.806  0.00  0.00    -0.262 N 
ATOM      2  C   UNL d   1       8.867  -1.092  -3.712  0.00  0.00     0.271 C 
ATOM      3  O   UNL d   1       9.499  -0.840  -2.699  0.00  0.00    -0.266 OA
ATOM      4  H   UNL d   1       6.945  -1.283  -4.631  0.00  0.00     0.190 HD
ENDROOT
BRANCH   2   5
ATOM      5  C   UNL d   1       9.590  -1.478  -4.950  0.00  0.00     0.051 C 
ATOM      6  C   UNL d   1       9.278  -0.860  -6.136  0.00  0.00     0.022 C 
ATOM      7  C   UNL d   1      10.085  -1.111  -7.232  0.00  0.00     0.051 C 
ATOM      8  C   UNL d   1      11.083  -2.077  -7.245  0.00  0.00     0.123 C 
ATOM      9  N   UNL d   1      11.408  -2.685  -6.087  0.00  0.00    -0.243 NA
ATOM     10  C   UNL d   1      10.693  -2.332  -4.961  0.00  0.00     0.136 C 
BRANCH   8  11
ATOM     11  N   UNL d   1      11.756  -2.423  -8.432  0.00  0.00    -0.370 N 
ATOM     12  H   UNL d   1      12.497  -3.101  -8.266  0.00  0.00     0.161 HD
BRANCH  11  13
ATOM     13  C   UNL d   1      11.479  -1.932  -9.796  0.00  0.00     0.083 A 
ATOM     14  C   UNL d   1      10.232  -1.223 -10.261  0.00  0.00     0.027 A 
ATOM     15  C   UNL d   1      11.515  -0.449 -10.062  0.00  0.00     0.027 A 
ENDBRANCH  11  13
ENDBRANCH   8  11
ENDBRANCH   2   5
BRANCH   1  16
ATOM     16  N   UNL d   1       6.707  -0.688  -2.654  0.00  0.00    -0.249 N 
ATOM     17  C   UNL d   1       5.322  -0.718  -2.739  0.00  0.00     0.334 C 
ATOM     18  N   UNL d   1       4.669  -0.378  -1.571  0.00  0.00    -0.341 N 
ATOM     19  O   UNL d   1       4.736  -1.018  -3.775  0.00  0.00    -0.246 OA
ATOM     20  H   UNL d   1       5.211  -0.146  -0.753  0.00  0.00     0.164 HD
ATOM     21  H   UNL d   1       7.227  -0.471  -1.810  0.00  0.00     0.192 HD
BRANCH  18  22
ATOM     22  C   UNL d   1       3.205  -0.375  -1.479  0.00  0.00     0.128 C 
BRANCH  22  23
ATOM     23  C   UNL d   1       2.648  -0.006  -0.086  0.00  0.00    -0.005 C 
ATOM     24  C   UNL d   1       1.111   0.020  -0.089  0.00  0.00     0.011 C 
ATOM     25  C   UNL d   1       3.117  -0.997   0.979  0.00  0.00     0.011 C 
ENDBRANCH  22  23
ENDBRANCH  18  22
ENDBRANCH   1  16
TORSDOF 6
