REMARK  4 active torsions:
REMARK  status: ('A' for Active; 'I' for Inactive)
REMARK       I    between atoms: C_2  and  N_3 
REMARK    1  A    between atoms: C_2  and  C_11 
REMARK    2  A    between atoms: N_3  and  N_4 
REMARK    3  A    between atoms: C_5  and  C_6 
REMARK    4  A    between atoms: C_14  and  O_15 
ROOT
ATOM      1  O   UNL d   1       1.010   0.117   0.126  0.00  0.00    -0.266 OA
ATOM      2  C   UNL d   1       2.236  -0.008   0.153  0.00  0.00     0.271 C 
ATOM      3  N   UNL d   1       2.930  -1.020   0.831  0.00  0.00    -0.243 N 
ATOM      4  H   UNL d   1       3.943  -1.018   0.872  0.00  0.00     0.192 HD
ENDROOT
BRANCH   2   5
ATOM      5  C   UNL d   1       3.067   1.010  -0.571  0.00  0.00     0.033 A 
ATOM      6  C   UNL d   1       2.703   2.371  -0.575  0.00  0.00     0.020 A 
ATOM      7  C   UNL d   1       3.504   3.330  -1.224  0.00  0.00     0.037 A 
ATOM      8  C   UNL d   1       4.653   2.918  -1.891  0.00  0.00     0.065 A 
ATOM      9  C   UNL d   1       4.985   1.569  -1.950  0.00  0.00     0.037 A 
ATOM     10  C   UNL d   1       4.194   0.615  -1.298  0.00  0.00     0.020 A 
BRANCH   8  11
ATOM     11  O   UNL d   1       5.496   3.791  -2.514  0.00  0.00    -0.361 OA
ATOM     12  H   UNL d   1       5.185   4.702  -2.387  0.00  0.00     0.217 HD
ENDBRANCH   8  11
ENDBRANCH   2   5
BRANCH   3  13
ATOM     13  N   UNL d   1       2.228  -2.019   1.479  0.00  0.00    -0.182 NA
ATOM     14  C   UNL d   1       2.880  -2.885   2.195  0.00  0.00     0.168 C 
BRANCH  14  15
ATOM     15  C   UNL d   1       2.173  -3.974   2.853  0.00  0.00     0.051 A 
ATOM     16  C   UNL d   1       1.056  -4.655   2.391  0.00  0.00     0.032 A 
ATOM     17  C   UNL d   1       0.721  -5.669   3.319  0.00  0.00     0.019 A 
ATOM     18  C   UNL d   1       1.615  -5.573   4.358  0.00  0.00     0.088 A 
ATOM     19  N   UNL d   1       2.490  -4.551   4.071  0.00  0.00    -0.365 N 
ATOM     20  H   UNL d   1       3.227  -4.252   4.698  0.00  0.00     0.165 HD
ENDBRANCH  14  15
ENDBRANCH   3  13
TORSDOF 4
