@<TRIPOS>MOLECULE
*****
 31 32 0 0 0
SMALL
GASTEIGER

@<TRIPOS>ATOM
      1 O           0.9531   -0.0890    0.1112 O.2     1  UNL1       -0.2687
      2 C           2.1827   -0.1099    0.0446 C.2     1  UNL1        0.2603
      3 N           2.9087   -1.2905   -0.0671 N.am    1  UNL1       -0.2301
      4 N           2.2193   -2.5376   -0.1218 N.am    1  UNL1       -0.2301
      5 C           2.9433   -3.7232   -0.1112 C.2     1  UNL1        0.2603
      6 O           4.1730   -3.7585   -0.0521 O.2     1  UNL1       -0.2687
      7 C           2.1731   -5.0068   -0.1564 C.ar    1  UNL1        0.0436
      8 C           1.0853   -5.1754   -1.0205 C.ar    1  UNL1       -0.0141
      9 C           0.4115   -6.4008   -1.0579 C.ar    1  UNL1        0.1268
     10 F          -0.6205   -6.5557   -1.8978 F       1  UNL1       -0.2054
     11 C           0.7868   -7.4643   -0.2488 C.ar    1  UNL1        0.0088
     12 C           1.8779   -7.2994    0.5909 C.ar    1  UNL1        0.1268
     13 F           2.2534   -8.3173    1.3777 F       1  UNL1       -0.2054
     14 C           2.5850   -6.0938    0.6333 C.ar    1  UNL1       -0.0141
     15 C           2.9549    1.1735    0.1009 C.ar    1  UNL1        0.0416
     16 C           2.5447    2.2002    0.9695 C.ar    1  UNL1       -0.0494
     17 C           3.2361    3.4219    1.0109 C.ar    1  UNL1       -0.0576
     18 C           4.3322    3.6368    0.1738 C.ar    1  UNL1       -0.0201
     19 C           4.7226    2.6242   -0.6986 C.ar    1  UNL1        0.1176
     20 O           5.7816    2.7831   -1.5456 O.3     1  UNL1       -0.5067
     21 C           4.0439    1.4030   -0.7464 C.ar    1  UNL1       -0.0080
     22 H           3.9256   -1.3352   -0.0151 H       1  UNL1        0.1731
     23 H           1.2033   -2.4872   -0.0590 H       1  UNL1        0.1731
     24 H           0.7690   -4.3873   -1.6956 H       1  UNL1        0.0654
     25 H           0.2452   -8.4046   -0.2783 H       1  UNL1        0.0675
     26 H           3.4489   -6.0176    1.2886 H       1  UNL1        0.0654
     27 H           1.6846    2.0572    1.6211 H       1  UNL1        0.0625
     28 H           2.9159    4.2080    1.6935 H       1  UNL1        0.0619
     29 H           4.8539    4.5903    0.2101 H       1  UNL1        0.0654
     30 H           6.1876    3.6540   -1.3989 H       1  UNL1        0.2921
     31 H           4.3543    0.6599   -1.4735 H       1  UNL1        0.0661
@<TRIPOS>BOND
     1     1     2    2
     2     2     3   am
     3     3     4    1
     4     4     5   am
     5     5     6    2
     6     5     7    1
     7     7     8   ar
     8     8     9   ar
     9     9    10    1
    10     9    11   ar
    11    11    12   ar
    12    12    13    1
    13    12    14   ar
    14     7    14   ar
    15     2    15    1
    16    15    16   ar
    17    16    17   ar
    18    17    18   ar
    19    18    19   ar
    20    19    20    1
    21    19    21   ar
    22    15    21   ar
    23     3    22    1
    24     4    23    1
    25     8    24    1
    26    11    25    1
    27    14    26    1
    28    16    27    1
    29    17    28    1
    30    18    29    1
    31    20    30    1
    32    21    31    1
