@<TRIPOS>MOLECULE
*****
 42 44 0 0 0
SMALL
GASTEIGER

@<TRIPOS>ATOM
      1 C           2.4497   -0.4070   -0.0142 C.3     1  UNL1       -0.0380
      2 C           0.9938   -0.0814   -0.0040 C.ar    1  UNL1       -0.0292
      3 C           0.1929   -1.2421    0.0037 C.ar    1  UNL1       -0.0571
      4 C          -1.1815   -1.1653   -0.0000 C.ar    1  UNL1       -0.0614
      5 C          -1.7728    0.0901   -0.0066 C.ar    1  UNL1       -0.0600
      6 C          -0.9844    1.2694   -0.0036 C.ar    1  UNL1       -0.0402
      7 C           0.4299    1.2241   -0.0007 C.ar    1  UNL1        0.0377
      8 N           1.1704    2.4915   -0.0169 N.am    1  UNL1       -0.2690
      9 C           2.5412    2.6429    0.0548 C.2     1  UNL1        0.3081
     10 O           3.3365    1.7310    0.2564 O.2     1  UNL1       -0.2522
     11 N           3.1175    3.8900   -0.0859 N.am    1  UNL1       -0.2692
     12 C           4.5714    3.9165   -0.1108 C.ar    1  UNL1        0.0350
     13 C           5.3267    4.7651    0.6976 C.ar    1  UNL1       -0.0370
     14 C           6.7417    4.7584    0.6085 C.ar    1  UNL1       -0.0176
     15 C           7.4206    3.8473   -0.2191 C.ar    1  UNL1        0.1286
     16 O           8.8036    3.8728   -0.1959 O.3     1  UNL1       -0.4560
     17 C           9.5040    2.9518   -0.9514 C.ar    1  UNL1        0.1284
     18 C          10.3386    2.0480   -0.2904 C.ar    1  UNL1       -0.0193
     19 C          11.1165    1.1482   -1.0271 C.ar    1  UNL1       -0.0583
     20 C          11.0090    1.1042   -2.4178 C.ar    1  UNL1       -0.0615
     21 C          10.1766    2.0060   -3.0792 C.ar    1  UNL1       -0.0583
     22 C           9.4562    2.9552   -2.3498 C.ar    1  UNL1       -0.0193
     23 C           6.6670    2.9571   -0.9696 C.ar    1  UNL1       -0.0176
     24 C           5.2737    3.0099   -0.9309 C.ar    1  UNL1       -0.0370
     25 H           2.7022   -1.4661   -0.0468 H       1  UNL1        0.0278
     26 H           2.8596   -0.0785    0.9461 H       1  UNL1        0.0278
     27 H           2.8805    0.0194   -0.9274 H       1  UNL1        0.0278
     28 H           0.6745   -2.2196    0.0081 H       1  UNL1        0.0621
     29 H          -1.7633   -2.0829   -0.0001 H       1  UNL1        0.0618
     30 H          -2.8597    0.1416   -0.0156 H       1  UNL1        0.0618
     31 H          -1.5254    2.2131   -0.0035 H       1  UNL1        0.0636
     32 H           0.6060    3.3302   -0.0360 H       1  UNL1        0.1564
     33 H           2.6371    4.6912    0.2930 H       1  UNL1        0.1564
     34 H           4.8526    5.3760    1.4604 H       1  UNL1        0.0637
     35 H           7.3163    5.4633    1.2065 H       1  UNL1        0.0655
     36 H          10.3805    2.0335    0.7950 H       1  UNL1        0.0654
     37 H          11.8074    0.4798   -0.5188 H       1  UNL1        0.0619
     38 H          11.5754    0.3693   -2.9854 H       1  UNL1        0.0618
     39 H          10.0933    1.9750   -4.1626 H       1  UNL1        0.0619
     40 H           8.8236    3.6665   -2.8727 H       1  UNL1        0.0654
     41 H           7.1200    2.2030   -1.6038 H       1  UNL1        0.0655
     42 H           4.7450    2.2746   -1.5341 H       1  UNL1        0.0637
@<TRIPOS>BOND
     1     1     2    1
     2     2     3   ar
     3     3     4   ar
     4     4     5   ar
     5     5     6   ar
     6     6     7   ar
     7     2     7   ar
     8     7     8    1
     9     8     9   am
    10     9    10    2
    11     9    11   am
    12    11    12    1
    13    12    13   ar
    14    13    14   ar
    15    14    15   ar
    16    15    16    1
    17    16    17    1
    18    17    18   ar
    19    18    19   ar
    20    19    20   ar
    21    20    21   ar
    22    21    22   ar
    23    17    22   ar
    24    15    23   ar
    25    23    24   ar
    26    12    24   ar
    27     1    25    1
    28     1    26    1
    29     1    27    1
    30     3    28    1
    31     4    29    1
    32     5    30    1
    33     6    31    1
    34     8    32    1
    35    11    33    1
    36    13    34    1
    37    14    35    1
    38    18    36    1
    39    19    37    1
    40    20    38    1
    41    21    39    1
    42    22    40    1
    43    23    41    1
    44    24    42    1
