@<TRIPOS>MOLECULE
*****
 53 57 0 0 0
SMALL
GASTEIGER

@<TRIPOS>ATOM
      1 N           9.4365   -1.1547    2.5278 N.am    1  UNL1       -0.3293
      2 C           8.9925    0.0343    2.0257 C.2     1  UNL1        0.2105
      3 O           9.7717    0.9207    1.7072 O.2     1  UNL1       -0.2760
      4 C           7.4969    0.1409    1.9553 C.3     1  UNL1        0.0252
      5 C           7.0118    1.5180    1.5533 C.3     1  UNL1       -0.0285
      6 C           5.5093    1.6245    1.7529 C.3     1  UNL1        0.0212
      7 N           5.0964    2.9339    1.2403 N.3     1  UNL1       -0.2953
      8 C           4.4155    3.6637    2.2987 C.3     1  UNL1        0.1357
      9 C           5.2073    4.9856    2.5890 C.2     1  UNL1        0.2428
     10 O           6.3962    5.0998    2.8372 O.2     1  UNL1       -0.2730
     11 N           4.2820    6.0226    2.5258 N.am    1  UNL1       -0.2834
     12 C           3.0584    5.5829    2.0479 C.ar    1  UNL1        0.0390
     13 C           1.9573    6.3487    1.7397 C.ar    1  UNL1       -0.0388
     14 C           0.8403    5.6917    1.2111 C.ar    1  UNL1       -0.0416
     15 C           0.8497    4.2993    1.0170 C.ar    1  UNL1        0.0414
     16 CL         -0.5417    3.5227    0.3652 Cl      1  UNL1       -0.0835
     17 C           1.9711    3.5362    1.3427 C.ar    1  UNL1       -0.0362
     18 C           3.0772    4.2018    1.8561 C.ar    1  UNL1        0.0048
     19 C           4.2512    2.7434    3.4894 C.3     1  UNL1        0.0795
     20 C           4.9161    3.2258    4.7440 C.2     1  UNL1        0.2285
     21 O           5.0592    4.3746    5.0873 O.2     1  UNL1       -0.2748
     22 N           5.2984    2.1531    5.4863 N.am    1  UNL1       -0.2371
     23 C           5.7613    2.5079    6.8629 C.3     1  UNL1        0.0487
     24 C           5.5599    1.5487    8.0159 C.ar    1  UNL1       -0.0113
     25 C           6.4169    0.4480    8.0599 C.ar    1  UNL1       -0.0557
     26 C           6.2396   -0.5659    8.9966 C.ar    1  UNL1       -0.0614
     27 C           5.3133   -0.4217   10.0226 C.ar    1  UNL1       -0.0604
     28 C           4.5875    0.7608   10.1269 C.ar    1  UNL1       -0.0431
     29 C           4.6665    1.7198    9.1011 C.ar    1  UNL1        0.0457
     30 CL          3.6149    3.0854    9.2524 Cl      1  UNL1       -0.0832
     31 C           5.6293    1.1582    4.5945 C.2     1  UNL1        0.2275
     32 O           6.3047    0.1720    4.8576 O.2     1  UNL1       -0.2748
     33 C           4.9348    1.4265    3.1924 C.3     1  UNL1        0.0651
     34 H          10.4294   -1.2221    2.7044 H       1  UNL1        0.1449
     35 H           8.8225   -1.8186    2.9818 H       1  UNL1        0.1449
     36 H           7.1762   -0.0368    2.9662 H       1  UNL1        0.0359
     37 H           7.0513   -0.6539    1.3467 H       1  UNL1        0.0359
     38 H           7.2885    1.7185    0.5045 H       1  UNL1        0.0285
     39 H           7.5046    2.2918    2.1519 H       1  UNL1        0.0285
     40 H           5.0249    0.9039    1.0727 H       1  UNL1        0.0468
     41 H           4.5691    2.9111    0.3690 H       1  UNL1        0.1235
     42 H           4.5429    6.9712    2.7459 H       1  UNL1        0.1549
     43 H           1.9592    7.4230    1.8789 H       1  UNL1        0.0637
     44 H          -0.0402    6.2696    0.9418 H       1  UNL1        0.0633
     45 H           1.9755    2.4609    1.1927 H       1  UNL1        0.0636
     46 H           3.2047    2.5316    3.7396 H       1  UNL1        0.0429
     47 H           5.2482    3.4360    7.1428 H       1  UNL1        0.0519
     48 H           6.8207    2.7857    6.8045 H       1  UNL1        0.0519
     49 H           7.2275    0.3769    7.3385 H       1  UNL1        0.0621
     50 H           6.8326   -1.4706    8.9117 H       1  UNL1        0.0618
     51 H           5.1701   -1.2248   10.7407 H       1  UNL1        0.0618
     52 H           3.9495    0.9112   10.9980 H       1  UNL1        0.0632
     53 H           4.1794    0.6324    3.0816 H       1  UNL1        0.0418
@<TRIPOS>BOND
     1     1     2   am
     2     2     3    2
     3     2     4    1
     4     4     5    1
     5     6     7    1
     6     7     8    1
     7     8     9    1
     8     9    10    2
     9     9    11   am
    10    11    12    1
    11    12    13   ar
    12    13    14   ar
    13    14    15   ar
    14    15    16    1
    15    15    17   ar
    16    17    18   ar
    17    12    18   ar
    18     8    18    1
    19     8    19    1
    20    19    20    1
    21    20    21    2
    22    20    22   am
    23    22    23    1
    24    23    24    1
    25    24    25   ar
    26    25    26   ar
    27    26    27   ar
    28    27    28   ar
    29    28    29   ar
    30    24    29   ar
    31    29    30    1
    32    22    31   am
    33    31    32    2
    34    31    33    1
    35     6    33    1
    36    19    33    1
    37     6     5    1
    38     1    34    1
    39     1    35    1
    40     4    36    1
    41     4    37    1
    42     5    38    1
    43     5    39    1
    44     6    40    1
    45     7    41    1
    46    11    42    1
    47    13    43    1
    48    14    44    1
    49    17    45    1
    50    19    46    1
    51    23    47    1
    52    23    48    1
    53    25    49    1
    54    26    50    1
    55    27    51    1
    56    28    52    1
    57    33    53    1
