REMARK  7 active torsions:
REMARK  status: ('A' for Active; 'I' for Inactive)
REMARK    1  A    between atoms: C_6  and  N_7 
REMARK       I    between atoms: N_7  and  C_8 
REMARK    2  A    between atoms: C_8  and  C_10 
REMARK    3  A    between atoms: C_10  and  N_11 
REMARK    4  A    between atoms: N_11  and  C_12 
REMARK    5  A    between atoms: C_15  and  C_16 
REMARK       I    between atoms: C_16  and  N_18 
REMARK    6  A    between atoms: N_18  and  C_19 
REMARK    7  A    between atoms: C_19  and  C_20 
ROOT
ATOM      1  C   UNL d   1      -1.377   7.536   0.096  0.00  0.00     0.028 A 
ATOM      2  C   UNL d   1      -2.429   7.938   0.913  0.00  0.00     0.030 A 
ATOM      3  C   UNL d   1      -2.891   9.262   0.926  0.00  0.00     0.019 A 
ATOM      4  C   UNL d   1      -2.324  10.231   0.090  0.00  0.00     0.032 A 
ATOM      5  C   UNL d   1      -1.264   9.834  -0.739  0.00  0.00     0.019 A 
ATOM      6  C   UNL d   1      -0.791   8.506  -0.726  0.00  0.00     0.030 A 
ENDROOT
BRANCH   1   7
ATOM      7  N   UNL d   1      -0.974   6.224   0.047  0.00  0.00    -0.381 N 
ATOM      8  H   UNL d   1       0.015   5.998  -0.079  0.00  0.00     0.160 HD
BRANCH   7   9
ATOM      9  C   UNL d   1      -1.882   5.063   0.056  0.00  0.00     0.223 C 
BRANCH   9  10
ATOM     10  C   UNL d   1      -1.029   3.783   0.030  0.00  0.00     0.239 C 
ATOM     11  N   UNL d   1      -1.707   2.559   0.013  0.00  0.00    -0.326 N 
ATOM     12  H   UNL d   1      -2.721   2.556   0.010  0.00  0.00     0.169 HD
ATOM     13  O   UNL d   1       0.198   3.922   0.029  0.00  0.00    -0.271 OA
BRANCH  11  14
ATOM     14  C   UNL d   1      -1.064   1.283   0.003  0.00  0.00     0.035 A 
ATOM     15  C   UNL d   1      -1.805   0.093  -0.005  0.00  0.00     0.029 A 
ATOM     16  C   UNL d   1      -1.146  -1.155  -0.001  0.00  0.00     0.003 A 
ATOM     17  C   UNL d   1       0.249  -1.230   0.004  0.00  0.00     0.007 A 
ATOM     18  C   UNL d   1       0.995  -0.060   0.001  0.00  0.00    -0.060 A 
ATOM     19  C   UNL d   1       2.493  -0.040  -0.013  0.00  0.00     0.048 C 
ATOM     20  C   UNL d   1       0.328   1.168   0.002  0.00  0.00     0.036 A 
ENDBRANCH  11  14
ENDBRANCH   9  10
ENDBRANCH   7   9
ENDBRANCH   1   7
BRANCH   4  21
ATOM     21  C   UNL d   1      -2.814  11.658   0.036  0.00  0.00     0.251 C 
ATOM     22  O   UNL d   1      -2.313  12.459  -0.753  0.00  0.00    -0.268 OA
ATOM     23  N   UNL d   1      -3.834  12.013   0.889  0.00  0.00    -0.351 N 
ATOM     24  H   UNL d   1      -4.175  11.347   1.557  0.00  0.00     0.163 HD
BRANCH  23  25
ATOM     25  C   UNL d   1      -4.419  13.350   0.938  0.00  0.00     0.187 C 
BRANCH  25  26
ATOM     26  C   UNL d   1      -5.537  13.359   1.935  0.00  0.00     0.070 A 
ATOM     27  C   UNL d   1      -6.277  12.351   2.525  0.00  0.00     0.036 A 
ATOM     28  C   UNL d   1      -7.203  12.966   3.394  0.00  0.00     0.027 A 
ATOM     29  C   UNL d   1      -6.997  14.319   3.271  0.00  0.00     0.142 A 
ATOM     30  O   UNL d   1      -5.986  14.571   2.392  0.00  0.00    -0.325 OA
ENDBRANCH  25  26
ENDBRANCH  23  25
ENDBRANCH   4  21
TORSDOF 7
