@<TRIPOS>MOLECULE
*****
 43 47 0 0 0
SMALL
GASTEIGER

@<TRIPOS>ATOM
      1 C           2.2789   -0.1685    0.2099 C.3     1  UNL1       -0.0045
      2 C           0.8355   -0.0328    0.4732 C.ar    1  UNL1        0.1263
      3 O           0.0608   -1.1283    0.1717 O.2     1  UNL1       -0.4402
      4 C          -1.2363   -0.7279    0.3832 C.ar    1  UNL1        0.2277
      5 C          -2.2655   -1.7353    0.1156 C.ar    1  UNL1        0.0369
      6 C          -2.3801   -2.7668    1.0496 C.ar    1  UNL1       -0.0495
      7 C          -3.2904   -3.8083    0.8766 C.ar    1  UNL1       -0.0610
      8 C          -4.1636   -3.8007   -0.2060 C.ar    1  UNL1       -0.0617
      9 C          -4.0809   -2.7786   -1.1519 C.ar    1  UNL1       -0.0610
     10 C          -3.1250   -1.7523   -1.0039 C.ar    1  UNL1       -0.0495
     11 N          -1.3145    0.4937    0.8878 N.ar    1  UNL1       -0.2131
     12 C          -0.0272    1.0325    0.7069 C.ar    1  UNL1        0.0906
     13 C          -0.0011    2.4140    0.0384 C.3     1  UNL1        0.0397
     14 C          -0.6099    2.0665   -1.3370 C.3     1  UNL1        0.0367
     15 C           0.4226    1.5234   -2.2782 C.2     1  UNL1        0.2181
     16 O           0.1122    0.6456   -3.1276 O.2     1  UNL1       -0.2754
     17 N           1.7316    1.8977   -2.1465 N.am    1  UNL1       -0.2851
     18 C           2.2485    2.6126   -1.0437 C.ar    1  UNL1        0.0394
     19 C           3.6249    2.7583   -0.7909 C.ar    1  UNL1       -0.0086
     20 C           4.0634    3.4332    0.3743 C.ar    1  UNL1        0.1407
     21 C           3.2948    4.4834    0.7704 C.ar    1  UNL1        0.0503
     22 C           1.9261    4.0125    0.8628 C.ar    1  UNL1       -0.0447
     23 C           1.3972    3.0297   -0.0423 C.ar    1  UNL1       -0.0161
     24 C           4.1779    5.1090    1.8796 C.3     1  UNL1        0.1956
     25 N           4.0987    3.9019    2.7058 N.2     1  UNL1       -0.1309
     26 N           4.3609    2.8449    1.7190 N.2     1  UNL1       -0.0045
     27 H           2.6201   -1.1999    0.2628 H       1  UNL1        0.0308
     28 H           2.8280    0.4340    0.9393 H       1  UNL1        0.0308
     29 H           2.5654    0.1583   -0.7870 H       1  UNL1        0.0308
     30 H          -1.7487   -2.7453    1.9329 H       1  UNL1        0.0625
     31 H          -3.3137   -4.6207    1.5964 H       1  UNL1        0.0618
     32 H          -4.9083   -4.5887   -0.3024 H       1  UNL1        0.0618
     33 H          -4.7623   -2.7938   -2.0033 H       1  UNL1        0.0618
     34 H          -3.0786   -0.9858   -1.7765 H       1  UNL1        0.0625
     35 H          -0.6435    3.1266    0.5671 H       1  UNL1        0.0419
     36 H          -1.3261    2.7986   -1.7090 H       1  UNL1        0.0368
     37 H          -1.2736    1.1954   -1.2430 H       1  UNL1        0.0368
     38 H           2.3462    1.4063   -2.7899 H       1  UNL1        0.1548
     39 H           4.3462    2.4674   -1.5569 H       1  UNL1        0.0659
     40 H           1.3314    4.1528    1.7719 H       1  UNL1        0.0627
     41 H           3.8981    6.1138    2.2016 H       1  UNL1        0.1104
     42 H           5.2811    5.1332    1.8615 H       1  UNL1        0.1104
     43 H           3.1693    4.2033    3.0680 H       1  UNL1        0.4815
@<TRIPOS>UNITY_ATOM_ATTR
25 1
charge 1
@<TRIPOS>BOND
     1     1     2    1
     2     2     3   ar
     3     3     4   ar
     4     4     5    1
     5     5     6   ar
     6     6     7   ar
     7     7     8   ar
     8     8     9   ar
     9     9    10   ar
    10     5    10   ar
    11     4    11   ar
    12    11    12   ar
    13     2    12   ar
    14    12    13    1
    15    13    14    1
    16    14    15    1
    17    15    16    2
    18    15    17   am
    19    17    18    1
    20    18    19   ar
    21    19    20   ar
    22    20    21   ar
    23    21    22   ar
    24    22    23   ar
    25    18    23   ar
    26    13    23    1
    27    21    24    1
    28    24    25    1
    29    25    26    2
    30    20    26    1
    31     1    27    1
    32     1    28    1
    33     1    29    1
    34     6    30    1
    35     7    31    1
    36     8    32    1
    37     9    33    1
    38    10    34    1
    39    13    35    1
    40    14    36    1
    41    14    37    1
    42    17    38    1
    43    19    39    1
    44    22    40    1
    45    24    41    1
    46    24    42    1
    47    25    43    1
