@<TRIPOS>MOLECULE
*****
 51 54 0 0 0
SMALL
GASTEIGER

@<TRIPOS>ATOM
      1 O           6.4608    5.0816    3.2632 O.2     0  UNK0       -0.2749
      2 C           5.9951    6.1692    2.9167 C.2     0  UNK0        0.2235
      3 C           5.3734    7.0176    4.0126 C.3     0  UNK0        0.0738
      4 S           5.0922    5.8481    5.4722 S.3     0  UNK0       -0.1035
      5 C           4.7415    6.9604    6.8257 C.3     0  UNK0        0.1727
      6 N           5.4152    6.4953    8.0421 N.3     0  UNK0       -0.2179
      7 N           6.5229    7.4294    8.2519 N.3     0  UNK0       -0.2225
      8 C           6.4602    8.3525    7.1122 C.3     0  UNK0        0.1506
      9 C           6.8649    9.7630    7.4803 C.ar    0  UNK0       -0.0017
     10 C           8.1686   10.0078    7.9491 C.ar    0  UNK0       -0.0547
     11 C           8.5835   11.2986    8.2793 C.ar    0  UNK0       -0.0600
     12 C           7.7000   12.3671    8.1467 C.ar    0  UNK0       -0.0434
     13 C           6.4090   12.1408    7.6744 C.ar    0  UNK0        0.0414
     14 CL          5.3183   13.4640    7.5188 Cl      0  UNK0       -0.0835
     15 C           5.9926   10.8538    7.3328 C.ar    0  UNK0       -0.0364
     16 O           5.1422    8.2908    6.5760 O.3     0  UNK0       -0.3280
     17 N           6.0814    6.6481    1.6312 N.am    1  TRP1       -0.3064
     18 CA          6.7290    5.9054    0.4752 C.3     1  TRP1        0.0666
     19 CB          7.4453    4.5944    0.8298 C.3     1  TRP1       -0.0019
     20 CG          6.5837    3.4520    1.3315 C.ar    1  TRP1       -0.0203
     21 CD1         5.2037    3.3500    1.4040 C.ar    1  TRP1        0.0060
     22 NE1         4.8942    2.2413    2.1477 N.ar    1  TRP1       -0.3604
     23 CE2         6.0406    1.5995    2.5565 C.ar    1  TRP1        0.0467
     24 CZ2         6.2217    0.4474    3.3301 C.ar    1  TRP1       -0.0378
     25 CH2         7.5371    0.0813    3.6452 C.ar    1  TRP1       -0.0598
     26 CZ3         8.6210    0.8595    3.2452 C.ar    1  TRP1       -0.0611
     27 CE3         8.4183    2.0093    2.4835 C.ar    1  TRP1       -0.0523
     28 CD2         7.1111    2.3597    2.0929 C.ar    1  TRP1        0.0029
     29 C           7.7377    6.8121   -0.3274 C.2     1  TRP1        0.0623
     30 O           8.9359    6.4263   -0.4255 O.co2   1  TRP1       -0.5479
     31 OXT         7.2115    7.8801   -0.7719 O.co2   1  TRP1       -0.5479
     32 H           4.4215    7.4537    3.7069 H       0  UNK0        0.0472
     33 H           6.1167    7.7800    4.2562 H       0  UNK0        0.0472
     34 H           3.6599    6.9132    6.9717 H       0  UNK0        0.0904
     35 H           5.7296    5.5374    7.8612 H       0  UNK0        0.1442
     36 H           7.4311    6.9616    8.2293 H       0  UNK0        0.1437
     37 H           7.1453    8.0122    6.3244 H       0  UNK0        0.0833
     38 H           8.8721    9.1844    8.0568 H       0  UNK0        0.0622
     39 H           9.5948   11.4674    8.6393 H       0  UNK0        0.0618
     40 H           8.0231   13.3700    8.4097 H       0  UNK0        0.0632
     41 H           4.9864   10.7004    6.9487 H       0  UNK0        0.0636
     42 H           5.9217    7.6274    1.4124 H       1  TRP1        0.1494
     43 HA          5.9127    5.6907   -0.2286 H       1  TRP1        0.0563
     44 HB1         8.0121    4.2006   -0.0218 H       1  TRP1        0.0335
     45 HB2         8.1924    4.8320    1.6035 H       1  TRP1        0.0335
     46 HD1         4.4334    4.0572    1.1264 H       1  TRP1        0.0810
     47 HE1         3.9616    1.9862    2.4351 H       1  TRP1        0.1653
     48 HZ2         5.3799   -0.1418    3.6736 H       1  TRP1        0.0638
     49 HH2         7.7173   -0.8199    4.2235 H       1  TRP1        0.0618
     50 HZ3         9.6337    0.5811    3.5194 H       1  TRP1        0.0618
     51 HE3         9.2525    2.6441    2.1979 H       1  TRP1        0.0624
@<TRIPOS>UNITY_ATOM_ATTR
31 1
charge -1
@<TRIPOS>BOND
     1     1     2    2
     2     2     3    1
     3     3     4    1
     4     5     6    1
     5     6     7    1
     6     7     8    1
     7     9    10   ar
     8    10    11   ar
     9    11    12   ar
    10    12    13   ar
    11    13    14    1
    12    13    15   ar
    13     9    15   ar
    14     8    16    1
    15     5    16    1
    16     2    17   am
    17    19    20    1
    18    20    21   ar
    19    21    22   ar
    20    22    23   ar
    21    23    24   ar
    22    24    25   ar
    23    25    26   ar
    24    26    27   ar
    25    27    28   ar
    26    20    28   ar
    27    23    28   ar
    28    18    29    1
    29    29    30   ar
    30    29    31   ar
    31     8     9    1
    32     5     4    1
    33    18    19    1
    34    18    17    1
    35     3    32    1
    36     3    33    1
    37     5    34    1
    38     6    35    1
    39     7    36    1
    40     8    37    1
    41    10    38    1
    42    11    39    1
    43    12    40    1
    44    15    41    1
    45    17    42    1
    46    18    43    1
    47    19    44    1
    48    19    45    1
    49    21    46    1
    50    22    47    1
    51    24    48    1
    52    25    49    1
    53    26    50    1
    54    27    51    1
