REMARK  4 active torsions:
REMARK  status: ('A' for Active; 'I' for Inactive)
REMARK    1  A    between atoms: C_2  and  C_3 
REMARK    2  A    between atoms: C_3  and  C_4 
REMARK    3  A    between atoms: C_4  and  N_5 
REMARK       I    between atoms: N_5  and  C_6 
REMARK       I    between atoms: C_6  and  N_8 
REMARK    4  A    between atoms: N_8  and  C_9 
ROOT
ATOM      1  N   UNL d   1       5.168   1.754   2.391  0.00  0.00    -0.343 N 
ATOM      2  C   UNL d   1       6.537   1.880   2.510  0.00  0.00     0.321 C 
ATOM      3  O   UNL d   1       7.294   1.331   1.705  0.00  0.00    -0.247 OA
ATOM      4  N   UNL d   1       6.962   2.642   3.578  0.00  0.00    -0.291 N 
ATOM      5  H   UNL d   1       4.549   2.210   3.045  0.00  0.00     0.164 HD
ATOM      6  H   UNL d   1       6.368   2.770   4.382  0.00  0.00     0.172 HD
ENDROOT
BRANCH   1   7
ATOM      7  C   UNL d   1       4.610   0.961   1.296  0.00  0.00     0.124 C 
BRANCH   7   8
ATOM      8  C   UNL d   1       3.081   0.933   1.262  0.00  0.00     0.019 C 
BRANCH   8   9
ATOM      9  C   UNL d   1       2.548   0.097   0.089  0.00  0.00    -0.003 C 
ATOM     10  C   UNL d   1       1.025   0.080   0.066  0.00  0.00     0.005 C 
ENDBRANCH   8   9
ENDBRANCH   7   8
ENDBRANCH   1   7
BRANCH   4  11
ATOM     11  C   UNL d   1       8.323   2.821   3.810  0.00  0.00     0.161 A 
ATOM     12  C   UNL d   1       9.313   3.058   2.829  0.00  0.00     0.087 A 
ATOM     13  C   UNL d   1      10.496   3.141   3.515  0.00  0.00     0.078 A 
ATOM     14  C   UNL d   1      11.893   3.375   3.096  0.00  0.00     0.079 C 
ATOM     15  O   UNL d   1      10.241   2.981   4.844  0.00  0.00    -0.216 OA
ATOM     16  N   UNL d   1       8.864   2.846   5.037  0.00  0.00    -0.110 NA
ENDBRANCH   4  11
TORSDOF 4
