REMARK  7 active torsions:
REMARK  status: ('A' for Active; 'I' for Inactive)
REMARK    1  A    between atoms: C_8  and  N_9 
REMARK       I    between atoms: N_9  and  C_10 
REMARK    2  A    between atoms: C_10  and  C_12 
REMARK    3  A    between atoms: C_12  and  N_13 
REMARK       I    between atoms: N_13  and  C_14 
REMARK    4  A    between atoms: C_14  and  C_16 
REMARK    5  A    between atoms: C_16  and  C_17 
REMARK    6  A    between atoms: C_17  and  C_18 
REMARK    7  A    between atoms: N_24  and  C_25 
ROOT
ATOM      1  C   UNL d   1      -0.631   8.497  -0.051  0.00  0.00     0.110 C 
ENDROOT
BRANCH   1   2
ATOM      2  C   UNL d   1      -1.785   7.490  -0.058  0.00  0.00     0.218 C 
ATOM      3  N   UNL d   1      -1.444   6.171  -0.047  0.00  0.00    -0.352 N 
ATOM      4  H   UNL d   1      -0.467   5.868  -0.031  0.00  0.00     0.162 HD
ATOM      5  O   UNL d   1      -2.964   7.829  -0.074  0.00  0.00    -0.274 OA
BRANCH   3   6
ATOM      6  C   UNL d   1      -2.441   5.059  -0.050  0.00  0.00     0.225 C 
BRANCH   6   7
ATOM      7  C   UNL d   1      -1.601   3.788  -0.027  0.00  0.00     0.239 C 
ATOM      8  N   UNL d   1      -2.205   2.529  -0.027  0.00  0.00    -0.325 N 
ATOM      9  H   UNL d   1      -3.222   2.510  -0.040  0.00  0.00     0.169 HD
ATOM     10  O   UNL d   1      -0.397   4.041  -0.008  0.00  0.00    -0.271 OA
BRANCH   8  11
ATOM     11  C   UNL d   1      -1.572   1.212  -0.011  0.00  0.00     0.042 A 
ATOM     12  C   UNL d   1      -2.419   0.073  -0.012  0.00  0.00     0.030 A 
ATOM     13  C   UNL d   1      -1.901  -1.240   0.004  0.00  0.00     0.004 A 
ATOM     14  C   UNL d   1      -0.530  -1.456   0.013  0.00  0.00     0.024 A 
ATOM     15  C   UNL d   1       0.326  -0.368   0.008  0.00  0.00     0.042 A 
ATOM     16  C   UNL d   1      -0.170   0.955   0.003  0.00  0.00    -0.013 A 
ATOM     17 CL   UNL d   1       2.025  -0.727   0.004  0.00  0.00    -0.084 Cl
ATOM     18  C   UNL d   1       0.848   2.042   0.015  0.00  0.00     0.052 C 
ENDBRANCH   8  11
ENDBRANCH   6   7
ENDBRANCH   3   6
ENDBRANCH   1   2
BRANCH   1  19
ATOM     19  C   UNL d   1      -1.176   9.939  -0.064  0.00  0.00     0.088 C 
BRANCH  19  20
ATOM     20  C   UNL d   1      -0.175  11.096  -0.043  0.00  0.00     0.109 A 
ATOM     21  N   UNL d   1      -0.593  12.339  -0.014  0.00  0.00    -0.215 NA
ATOM     22  C   UNL d   1       0.411  13.274  -0.014  0.00  0.00     0.170 A 
ATOM     23  C   UNL d   1       1.760  12.999  -0.046  0.00  0.00     0.099 A 
ATOM     24  N   UNL d   1       0.322  14.671  -0.084  0.00  0.00    -0.215 N 
ATOM     25  C   UNL d   1       2.416  14.226  -0.100  0.00  0.00     0.160 A 
ATOM     26  C   UNL d   1       2.200  11.643  -0.052  0.00  0.00     0.262 A 
ATOM     27  N   UNL d   1       1.561  15.248  -0.194  0.00  0.00    -0.177 NA
ATOM     28  O   UNL d   1       3.380  11.292  -0.071  0.00  0.00    -0.267 OA
ATOM     29  N   UNL d   1       1.165  10.741  -0.055  0.00  0.00    -0.311 N 
ATOM     30  H   UNL d   1       1.465   9.780  -0.069  0.00  0.00     0.170 HD
BRANCH  24  31
ATOM     31  C   UNL d   1      -0.835  15.488  -0.078  0.00  0.00     0.060 C 
ATOM     32  C   UNL d   1      -1.082  16.356  -1.149  0.00  0.00     0.031 C 
ATOM     33  C   UNL d   1      -2.338  16.961  -1.258  0.00  0.00     0.002 C 
ATOM     34  C   UNL d   1      -3.221  16.933  -0.180  0.00  0.00     0.000 C 
ATOM     35  C   UNL d   1      -2.890  16.211   0.967  0.00  0.00     0.002 C 
ATOM     36  C   UNL d   1      -1.741  15.414   0.983  0.00  0.00     0.031 C 
ENDBRANCH  24  31
ENDBRANCH  19  20
ENDBRANCH   1  19
TORSDOF 7
