@<TRIPOS>MOLECULE
*****
 60 63 0 0 0
SMALL
GASTEIGER

@<TRIPOS>ATOM
      1 C           0.9997   -0.1233    0.0653 C.3     1  UNL1        0.0230
      2 C           2.4965   -0.0879    0.0416 C.ar    1  UNL1        0.2053
      3 C           3.1820    1.1136    0.0008 C.ar    1  UNL1        0.0105
      4 C           4.5615    1.0872   -0.0638 C.ar    1  UNL1       -0.0102
      5 C           5.2249   -0.1188   -0.2103 C.ar    1  UNL1        0.1861
      6 N           6.5882   -0.1599   -0.4628 N.pl3   1  UNL1       -0.3230
      7 C           7.4083    1.0511   -0.6135 C.3     1  UNL1        0.0262
      8 C           8.8888    0.7844   -0.9523 C.3     1  UNL1        0.0272
      9 N           9.7130    1.9993   -1.0503 N.am    1  UNL1       -0.3125
     10 C          11.0730    1.9138   -1.3462 C.2     1  UNL1        0.2302
     11 O          11.6260    0.8351   -1.5293 O.2     1  UNL1       -0.2741
     12 C          11.8419    3.2568   -1.4290 C.3     1  UNL1        0.0881
     13 N          13.2612    3.1337   -1.7986 N.am    1  UNL1       -0.3067
     14 C          14.0116    4.2919   -2.0078 C.2     1  UNL1        0.2139
     15 O          13.5076    5.3834   -1.8320 O.2     1  UNL1       -0.2758
     16 C          15.4835    4.1192   -2.4447 C.3     1  UNL1        0.0296
     17 C          16.4554    5.3988   -2.4504 C.3     1  UNL1       -0.0202
     18 C          16.4438    6.6443   -3.5179 C.3     1  UNL1       -0.0440
     19 C          17.6085    7.6529   -3.1598 C.3     1  UNL1       -0.0400
     20 C          17.2849    8.1770   -1.7515 C.3     1  UNL1       -0.0473
     21 C          17.4015    7.0452   -0.7387 C.3     1  UNL1       -0.0400
     22 C          18.7774    6.3838   -0.8495 C.3     1  UNL1       -0.0473
     23 C          18.9829    5.7710   -2.2422 C.3     1  UNL1       -0.0400
     24 C          18.9213    6.8633   -3.2997 C.3     1  UNL1       -0.0473
     25 C          17.8783    4.7606   -2.5450 C.3     1  UNL1       -0.0440
     26 C          16.3130    6.0225   -1.0355 C.3     1  UNL1       -0.0440
     27 N           4.5316   -1.2740   -0.1163 N.ar    1  UNL1        0.0159
     28 N           3.2024   -1.2343    0.0595 N.ar    1  UNL1       -0.1009
     29 H           0.5859    0.8905   -0.0042 H       1  UNL1        0.0337
     30 H           0.6317   -0.5716    0.9914 H       1  UNL1        0.0337
     31 H           0.6177   -0.6869   -0.7916 H       1  UNL1        0.0337
     32 H           2.6582    2.0658    0.0080 H       1  UNL1        0.0681
     33 H           5.0965    2.0297   -0.0401 H       1  UNL1        0.0656
     34 H           7.0071   -1.0671   -0.6481 H       1  UNL1        0.1477
     35 H           7.3690    1.6137    0.3266 H       1  UNL1        0.0477
     36 H           6.9838    1.6854   -1.4019 H       1  UNL1        0.0477
     37 H           8.9633    0.2535   -1.9084 H       1  UNL1        0.0477
     38 H           9.3354    0.1398   -0.1871 H       1  UNL1        0.0477
     39 H           9.2953    2.9115   -0.9030 H       1  UNL1        0.1488
     40 H          11.7808    3.7666   -0.4601 H       1  UNL1        0.0558
     41 H          11.3655    3.8891   -2.1855 H       1  UNL1        0.0558
     42 H          13.6398    2.1962   -1.8946 H       1  UNL1        0.1492
     43 H          15.5598    3.5222   -3.3606 H       1  UNL1        0.0364
     44 H          15.8907    3.4500   -1.6592 H       1  UNL1        0.0364
     45 H          15.5132    7.2307   -3.5035 H       1  UNL1        0.0273
     46 H          16.6031    6.3508   -4.5667 H       1  UNL1        0.0273
     47 H          17.6862    8.5278   -3.8220 H       1  UNL1        0.0301
     48 H          16.2514    8.5572   -1.7549 H       1  UNL1        0.0271
     49 H          17.9109    9.0240   -1.4536 H       1  UNL1        0.0271
     50 H          17.2452    7.4373    0.2719 H       1  UNL1        0.0301
     51 H          18.8708    5.6048   -0.0847 H       1  UNL1        0.0271
     52 H          19.5554    7.1304   -0.6559 H       1  UNL1        0.0271
     53 H          19.9524    5.2628   -2.2866 H       1  UNL1        0.0301
     54 H          18.9431    6.4011   -4.2985 H       1  UNL1        0.0271
     55 H          19.8124    7.4973   -3.2447 H       1  UNL1        0.0271
     56 H          17.9781    3.9326   -1.8329 H       1  UNL1        0.0273
     57 H          18.0193    4.3235   -3.5440 H       1  UNL1        0.0273
     58 H          15.3412    6.5178   -0.9379 H       1  UNL1        0.0273
     59 H          16.3443    5.2359   -0.2725 H       1  UNL1        0.0273
     60 H           2.7114   -2.1204    0.2042 H       1  UNL1        0.4893
@<TRIPOS>UNITY_ATOM_ATTR
28 1
charge 1
@<TRIPOS>BOND
     1     1     2    1
     2     2     3   ar
     3     3     4   ar
     4     4     5   ar
     5     5     6    1
     6     6     7    1
     7     7     8    1
     8     8     9    1
     9     9    10   am
    10    10    11    2
    11    10    12    1
    12    12    13    1
    13    13    14   am
    14    14    15    2
    15    14    16    1
    16    16    17    1
    17    17    18    1
    18    18    19    1
    19    19    20    1
    20    20    21    1
    21    21    22    1
    22    22    23    1
    23    23    24    1
    24    19    24    1
    25    23    25    1
    26    17    25    1
    27    21    26    1
    28    17    26    1
    29     5    27   ar
    30    27    28   ar
    31     2    28   ar
    32     1    29    1
    33     1    30    1
    34     1    31    1
    35     3    32    1
    36     4    33    1
    37     6    34    1
    38     7    35    1
    39     7    36    1
    40     8    37    1
    41     8    38    1
    42     9    39    1
    43    12    40    1
    44    12    41    1
    45    13    42    1
    46    16    43    1
    47    16    44    1
    48    18    45    1
    49    18    46    1
    50    19    47    1
    51    20    48    1
    52    20    49    1
    53    21    50    1
    54    22    51    1
    55    22    52    1
    56    23    53    1
    57    24    54    1
    58    24    55    1
    59    25    56    1
    60    25    57    1
    61    26    58    1
    62    26    59    1
    63    28    60    1
