REMARK  6 active torsions:
REMARK  status: ('A' for Active; 'I' for Inactive)
REMARK       I    between atoms: C_2  and  N_3 
REMARK    1  A    between atoms: C_2  and  C_25 
REMARK    2  A    between atoms: N_3  and  C_4 
REMARK    3  A    between atoms: C_9  and  C_10 
REMARK    4  A    between atoms: C_13  and  C_14 
REMARK    5  A    between atoms: C_28  and  C_29 
REMARK    6  A    between atoms: C_33  and  N_34 
ROOT
ATOM      1  C   UNL d   1       2.190   0.675   2.364  0.00  0.00     0.037 A 
ATOM      2  C   UNL d   1       1.061  -0.035   2.817  0.00  0.00     0.032 A 
ATOM      3  C   UNL d   1       0.397   0.272   4.022  0.00  0.00     0.042 A 
ATOM      4  C   UNL d   1       0.895   1.357   4.730  0.00  0.00     0.106 A 
ATOM      5  O   UNL d   1       0.449   1.869   5.923  0.00  0.00    -0.289 OA
ATOM      6  C   UNL d   1       1.272   2.948   6.138  0.00  0.00     0.180 A 
ATOM      7  N   UNL d   1       2.183   3.142   5.199  0.00  0.00    -0.221 NA
ATOM      8  C   UNL d   1       1.977   2.114   4.313  0.00  0.00     0.095 A 
ATOM      9  C   UNL d   1       2.666   1.755   3.131  0.00  0.00     0.064 A 
ENDROOT
BRANCH   1  10
ATOM     10  N   UNL d   1       2.861   0.291   1.156  0.00  0.00    -0.321 N 
ATOM     11  C   UNL d   1       2.171  -0.075  -0.004  0.00  0.00     0.280 C 
ATOM     12  O   UNL d   1       0.932  -0.041  -0.055  0.00  0.00    -0.265 OA
ATOM     13  H   UNL d   1       3.836   0.546   1.050  0.00  0.00     0.169 HD
BRANCH  11  14
ATOM     14  C   UNL d   1       2.927  -0.344  -1.228  0.00  0.00     0.144 A 
ATOM     15  C   UNL d   1       2.624   0.094  -2.508  0.00  0.00     0.046 A 
ATOM     16  C   UNL d   1       3.503  -0.546  -3.401  0.00  0.00     0.041 A 
ATOM     17  C   UNL d   1       4.299  -1.374  -2.641  0.00  0.00     0.086 A 
ATOM     18  O   UNL d   1       3.977  -1.245  -1.302  0.00  0.00    -0.304 OA
BRANCH  17  19
ATOM     19  C   UNL d   1       5.385  -2.268  -3.035  0.00  0.00     0.000 A 
ATOM     20  C   UNL d   1       5.340  -3.646  -2.792  0.00  0.00     0.014 A 
ATOM     21  C   UNL d   1       6.401  -4.479  -3.179  0.00  0.00     0.003 A 
ATOM     22  C   UNL d   1       7.492  -3.956  -3.874  0.00  0.00     0.036 A 
ATOM     23  C   UNL d   1       7.525  -2.588  -4.160  0.00  0.00     0.103 A 
ATOM     24  C   UNL d   1       6.473  -1.749  -3.757  0.00  0.00     0.050 A 
BRANCH  23  25
ATOM     25  N   UNL d   1       8.692  -2.014  -4.844  0.00  0.00    -0.116 N 
ATOM     26  O   UNL d   1       9.616  -2.779  -5.152  0.00  0.00    -0.532 OA
ATOM     27  O   UNL d   1       8.689  -0.793  -5.061  0.00  0.00    -0.532 OA
ENDBRANCH  23  25
ENDBRANCH  17  19
ENDBRANCH  11  14
ENDBRANCH   1  10
BRANCH   6  28
ATOM     28  C   UNL d   1       1.103   3.700   7.378  0.00  0.00     0.017 A 
ATOM     29  C   UNL d   1       1.009   5.097   7.337  0.00  0.00     0.017 A 
ATOM     30  C   UNL d   1       1.099   5.852   8.512  0.00  0.00     0.013 A 
ATOM     31  C   UNL d   1       1.207   5.232   9.766  0.00  0.00    -0.026 A 
ATOM     32  C   UNL d   1       1.283   3.833   9.805  0.00  0.00     0.013 A 
ATOM     33  C   UNL d   1       1.223   3.074   8.626  0.00  0.00     0.017 A 
BRANCH  31  34
ATOM     34  C   UNL d   1       1.241   6.045  10.990  0.00  0.00    -0.026 A 
ATOM     35  C   UNL d   1       0.204   6.953  11.273  0.00  0.00     0.012 A 
ATOM     36  C   UNL d   1       0.285   7.819  12.364  0.00  0.00     0.001 A 
ATOM     37  C   UNL d   1       1.369   7.739  13.234  0.00  0.00     0.000 A 
ATOM     38  C   UNL d   1       2.384   6.815  12.996  0.00  0.00     0.001 A 
ATOM     39  C   UNL d   1       2.323   5.978  11.879  0.00  0.00     0.012 A 
ENDBRANCH  31  34
ENDBRANCH   6  28
TORSDOF 6
