@<TRIPOS>MOLECULE
*****
 32 33 0 0 0
SMALL
GASTEIGER

@<TRIPOS>ATOM
      1 N           1.1638    0.0046   -0.1279 N.am    1  UNL1       -0.3253
      2 C           2.5263   -0.0610   -0.0704 C.2     1  UNL1        0.2415
      3 O           3.1339    0.1821    0.9702 O.2     1  UNL1       -0.2704
      4 C           3.2479   -0.4290   -1.3148 C.ar    1  UNL1        0.0365
      5 C           4.3779   -1.2495   -1.2523 C.ar    1  UNL1       -0.0489
      6 C           5.1308   -1.5051   -2.4145 C.ar    1  UNL1       -0.0489
      7 C           4.7354   -0.9929   -3.6666 C.ar    1  UNL1        0.0382
      8 C           5.5070   -1.3900   -4.9060 C.2     1  UNL1        0.2601
      9 O           6.4432   -2.1835   -4.8130 O.2     1  UNL1       -0.2687
     10 N           5.0979   -0.8527   -6.1331 N.am    1  UNL1       -0.2325
     11 N           5.5367   -1.5046   -7.2946 N.pl3   1  UNL1       -0.2642
     12 C           5.2072   -0.9634   -8.5513 C.ar    1  UNL1        0.0446
     13 C           5.1081   -1.8471   -9.6413 C.ar    1  UNL1       -0.0367
     14 C           4.7429   -1.4003  -10.9171 C.ar    1  UNL1       -0.0247
     15 C           4.4240   -0.0647  -11.1053 C.ar    1  UNL1        0.1235
     16 F           4.0077    0.3545  -12.3081 F       1  UNL1       -0.2055
     17 C           4.5172    0.8372  -10.0530 C.ar    1  UNL1       -0.0247
     18 C           4.9107    0.3892   -8.7809 C.ar    1  UNL1       -0.0367
     19 C           3.6080   -0.1599   -3.7064 C.ar    1  UNL1       -0.0489
     20 C           2.8706    0.1198   -2.5430 C.ar    1  UNL1       -0.0489
     21 H           0.6724    0.2207    0.7318 H       1  UNL1        0.1453
     22 H           0.6199   -0.3085   -0.9196 H       1  UNL1        0.1453
     23 H           4.6741   -1.6932   -0.3019 H       1  UNL1        0.0625
     24 H           6.0383   -2.1033   -2.3274 H       1  UNL1        0.0625
     25 H           4.1993   -0.4008   -6.2381 H       1  UNL1        0.1730
     26 H           6.4072   -2.0387   -7.2131 H       1  UNL1        0.1700
     27 H           5.2740   -2.9113   -9.4884 H       1  UNL1        0.0637
     28 H           4.6962   -2.0873  -11.7563 H       1  UNL1        0.0647
     29 H           4.2907    1.8842  -10.2326 H       1  UNL1        0.0647
     30 H           5.0074    1.1203   -7.9837 H       1  UNL1        0.0637
     31 H           3.2783    0.3092   -4.6252 H       1  UNL1        0.0625
     32 H           2.0225    0.7970   -2.6019 H       1  UNL1        0.0625
@<TRIPOS>BOND
     1     1     2   am
     2     2     3    2
     3     2     4    1
     4     4     5   ar
     5     5     6   ar
     6     6     7   ar
     7     7     8    1
     8     8     9    2
     9     8    10   am
    10    10    11    1
    11    11    12    1
    12    12    13   ar
    13    13    14   ar
    14    14    15   ar
    15    15    16    1
    16    15    17   ar
    17    17    18   ar
    18    12    18   ar
    19     7    19   ar
    20    19    20   ar
    21     4    20   ar
    22     1    21    1
    23     1    22    1
    24     5    23    1
    25     6    24    1
    26    10    25    1
    27    11    26    1
    28    13    27    1
    29    14    28    1
    30    17    29    1
    31    18    30    1
    32    19    31    1
    33    20    32    1
