REMARK  6 active torsions:
REMARK  status: ('A' for Active; 'I' for Inactive)
REMARK    1  A    between atoms: C_2  and  C_4 
REMARK    2  A    between atoms: C_4  and  C_5 
REMARK    3  A    between atoms: C_5  and  C_6 
REMARK       I    between atoms: C_6  and  N_8 
REMARK    4  A    between atoms: N_8  and  N_9 
REMARK       I    between atoms: N_9  and  C_10 
REMARK    5  A    between atoms: C_10  and  C_12 
REMARK    6  A    between atoms: C_15  and  N_16 
ROOT
ATOM      1  N   UNL d   1       6.943   4.352  -0.666  0.00  0.00    -0.263 N 
ATOM      2  C   UNL d   1       8.309   4.590  -0.680  0.00  0.00     0.271 C 
ATOM      3  O   UNL d   1       9.150   3.694  -0.594  0.00  0.00    -0.266 OA
ATOM      4  H   UNL d   1       6.244   5.095  -0.703  0.00  0.00     0.190 HD
ENDROOT
BRANCH   2   5
ATOM      5  C   UNL d   1       8.755   6.015  -0.855  0.00  0.00     0.055 A 
ATOM      6  C   UNL d   1       9.821   6.294  -1.740  0.00  0.00     0.021 A 
ATOM      7  C   UNL d   1      10.264   7.615  -1.955  0.00  0.00     0.037 A 
ATOM      8  C   UNL d   1       9.652   8.670  -1.270  0.00  0.00     0.104 A 
ATOM      9  C   UNL d   1       8.622   8.406  -0.359  0.00  0.00     0.060 A 
ATOM     10  C   UNL d   1       8.185   7.086  -0.148  0.00  0.00     0.052 A 
ATOM     11 CL   UNL d   1       6.970   6.863   1.059  0.00  0.00    -0.083 Cl
BRANCH   8  12
ATOM     12  N   UNL d   1      10.082  10.061  -1.498  0.00  0.00    -0.116 N 
ATOM     13  O   UNL d   1      10.991  10.257  -2.316  0.00  0.00    -0.532 OA
ATOM     14  O   UNL d   1       9.503  10.953  -0.862  0.00  0.00    -0.532 OA
ENDBRANCH   8  12
ENDBRANCH   2   5
BRANCH   1  15
ATOM     15  N   UNL d   1       6.426   3.053  -0.427  0.00  0.00    -0.267 N 
ATOM     16  C   UNL d   1       5.046   2.898  -0.384  0.00  0.00     0.236 C 
ATOM     17  O   UNL d   1       4.283   3.852  -0.533  0.00  0.00    -0.272 OA
ATOM     18  H   UNL d   1       7.097   2.296  -0.307  0.00  0.00     0.190 HD
BRANCH  16  19
ATOM     19  C   UNL d   1       4.557   1.468  -0.168  0.00  0.00     0.105 C 
BRANCH  19  20
ATOM     20  C   UNL d   1       3.018   1.370  -0.166  0.00  0.00     0.013 C 
BRANCH  20  21
ATOM     21  C   UNL d   1       2.476  -0.061   0.029  0.00  0.00    -0.022 C 
ATOM     22  C   UNL d   1       0.943  -0.054   0.055  0.00  0.00     0.009 C 
ATOM     23  C   UNL d   1       2.953  -0.999  -1.080  0.00  0.00     0.009 C 
ENDBRANCH  20  21
ENDBRANCH  19  20
ENDBRANCH  16  19
ENDBRANCH   1  15
TORSDOF 6
