@<TRIPOS>MOLECULE
*****
 57 58 0 0 0
SMALL
GASTEIGER

@<TRIPOS>ATOM
      1 C           1.1037   -0.4013    0.1152 C.3     1  UNL1       -0.0369
      2 C           2.5816   -0.2116   -0.0671 C.3     1  UNL1        0.0796
      3 O           3.1215   -1.5322   -0.1229 O.3     1  UNL1       -0.3899
      4 C           2.9756    0.6447   -1.3116 C.3     1  UNL1        0.1508
      5 N           2.3186    2.0617   -1.3550 N.3     1  UNL1       -0.1736
      6 S           0.5972    2.1625   -1.5481 S.O2    1  UNL1        0.0593
      7 O           0.2646    1.4697   -2.7525 O.2     1  UNL1       -0.1530
      8 O          -0.1149    1.9343   -0.2986 O.2     1  UNL1       -0.1530
      9 C           0.1436    3.8461   -1.7289 C.ar    1  UNL1        0.1067
     10 C          -1.2431    4.0883   -1.6395 C.ar    1  UNL1       -0.0339
     11 C          -1.7165    5.3836   -1.5268 C.ar    1  UNL1       -0.0401
     12 C          -0.8007    6.4350   -1.5073 C.ar    1  UNL1        0.0594
     13 CL         -1.4397    8.0334   -1.4107 Cl      1  UNL1       -0.0820
     14 C           0.5833    6.1778   -1.5548 C.ar    1  UNL1        0.0611
     15 CL          1.7605    7.4388   -1.5207 Cl      1  UNL1       -0.0820
     16 C           1.0646    4.8717   -1.6303 C.ar    1  UNL1       -0.0156
     17 C           4.5472    0.7074   -1.2940 C.2     1  UNL1        0.3289
     18 O           5.2617    0.2757   -0.3946 O.2     1  UNL1       -0.2489
     19 O           5.0889    1.2620   -2.4218 O.3     1  UNL1       -0.4540
     20 C           6.5477    1.2489   -2.4589 C.3     1  UNL1        0.1681
     21 C           7.0725    1.9179   -3.7428 C.2     1  UNL1        0.2508
     22 O           6.3066    2.3763   -4.5901 O.2     1  UNL1       -0.2721
     23 N           8.4529    1.9847   -3.8956 N.am    1  UNL1       -0.3122
     24 C           9.0150    2.6205   -5.0825 C.3     1  UNL1        0.0154
     25 C          10.5502    2.6587   -5.1264 C.3     1  UNL1       -0.0161
     26 C          11.0339    3.3185   -6.4013 C.2     1  UNL1       -0.0720
     27 C          11.5632    2.6021   -7.4115 C.2     1  UNL1       -0.0847
     28 C          11.9603    3.1963   -8.7326 C.3     1  UNL1       -0.0345
     29 C          12.0830    4.7184   -8.6910 C.3     1  UNL1       -0.0493
     30 C          10.9158    5.3426   -7.9379 C.3     1  UNL1       -0.0491
     31 C          10.8465    4.8173   -6.5039 C.3     1  UNL1       -0.0317
     32 H           0.7747   -1.0775    0.9013 H       1  UNL1        0.0255
     33 H           0.5996   -0.6686   -0.8230 H       1  UNL1        0.0255
     34 H           0.8079    0.5342    0.5309 H       1  UNL1        0.0255
     35 H           2.9645    0.2867    0.8336 H       1  UNL1        0.0612
     36 H           2.6449   -2.0310   -0.8067 H       1  UNL1        0.2099
     37 H           2.7049    0.1107   -2.2325 H       1  UNL1        0.0619
     38 H           2.7287    2.5296   -2.1732 H       1  UNL1        0.1490
     39 H          -1.9455    3.2532   -1.5655 H       1  UNL1        0.0637
     40 H          -2.7871    5.5526   -1.4361 H       1  UNL1        0.0633
     41 H           2.1271    4.6677   -1.5520 H       1  UNL1        0.0652
     42 H           6.9148    0.2136   -2.4381 H       1  UNL1        0.0796
     43 H           6.9453    1.8008   -1.5977 H       1  UNL1        0.0796
     44 H           9.0815    1.6186   -3.1914 H       1  UNL1        0.1488
     45 H           8.6052    3.6359   -5.1247 H       1  UNL1        0.0465
     46 H           8.6320    2.0872   -5.9621 H       1  UNL1        0.0465
     47 H          10.9413    1.6355   -5.0558 H       1  UNL1        0.0325
     48 H          10.9527    3.1977   -4.2602 H       1  UNL1        0.0325
     49 H          11.6866    1.5254   -7.3154 H       1  UNL1        0.0572
     50 H          11.2012    2.9076   -9.4708 H       1  UNL1        0.0307
     51 H          12.9106    2.7653   -9.0660 H       1  UNL1        0.0307
     52 H          12.1290    5.1167   -9.7103 H       1  UNL1        0.0268
     53 H          13.0211    4.9939   -8.1934 H       1  UNL1        0.0268
     54 H           9.9759    5.1147   -8.4576 H       1  UNL1        0.0268
     55 H          11.0155    6.4337   -7.9240 H       1  UNL1        0.0268
     56 H           9.8809    5.1174   -6.0858 H       1  UNL1        0.0310
     57 H          11.6189    5.3061   -5.8971 H       1  UNL1        0.0310
@<TRIPOS>BOND
     1     1     2    1
     2     2     3    1
     3     2     4    1
     4     4     5    1
     5     5     6    1
     6     6     7    2
     7     6     8    2
     8     6     9    1
     9     9    10   ar
    10    10    11   ar
    11    11    12   ar
    12    12    13    1
    13    12    14   ar
    14    14    15    1
    15    14    16   ar
    16     9    16   ar
    17     4    17    1
    18    17    18    2
    19    17    19    1
    20    19    20    1
    21    20    21    1
    22    21    22    2
    23    21    23   am
    24    23    24    1
    25    24    25    1
    26    25    26    1
    27    26    27    2
    28    27    28    1
    29    28    29    1
    30    29    30    1
    31    30    31    1
    32    26    31    1
    33     1    32    1
    34     1    33    1
    35     1    34    1
    36     2    35    1
    37     3    36    1
    38     4    37    1
    39     5    38    1
    40    10    39    1
    41    11    40    1
    42    16    41    1
    43    20    42    1
    44    20    43    1
    45    23    44    1
    46    24    45    1
    47    24    46    1
    48    25    47    1
    49    25    48    1
    50    27    49    1
    51    28    50    1
    52    28    51    1
    53    29    52    1
    54    29    53    1
    55    30    54    1
    56    30    55    1
    57    31    56    1
    58    31    57    1
