REMARK  10 active torsions:
REMARK  status: ('A' for Active; 'I' for Inactive)
REMARK    1  A    between atoms: C_2  and  N_3 
REMARK    2  A    between atoms: N_3  and  C_4 
REMARK    3  A    between atoms: C_7  and  C_8 
REMARK    4  A    between atoms: C_8  and  O_10 
REMARK    5  A    between atoms: O_10  and  C_11 
REMARK    6  A    between atoms: C_14  and  N_15 
REMARK       I    between atoms: N_15  and  C_16 
REMARK    7  A    between atoms: C_16  and  C_18 
REMARK    8  A    between atoms: C_23  and  N_24 
REMARK    9  A    between atoms: N_24  and  S_25 
REMARK   10  A    between atoms: S_25  and  C_28 
ROOT
ATOM      1  C   UNL d   1       2.756  -2.011   2.194  0.00  0.00     0.059 A 
ATOM      2  C   UNL d   1       1.402  -2.373   2.418  0.00  0.00     0.019 A 
ATOM      3  C   UNL d   1       0.809  -2.399   3.677  0.00  0.00     0.001 A 
ATOM      4  C   UNL d   1       1.572  -2.126   4.794  0.00  0.00     0.002 A 
ATOM      5  C   UNL d   1       2.883  -1.683   4.641  0.00  0.00     0.031 A 
ATOM      6  C   UNL d   1       3.497  -1.569   3.374  0.00  0.00     0.058 A 
ENDROOT
BRANCH   1   7
ATOM      7  C   UNL d   1       3.038  -2.143   0.628  0.00  0.00     0.258 C 
ATOM      8  N   UNL d   1       4.313  -2.142   0.117  0.00  0.00    -0.321 N 
ATOM      9  H   UNL d   1       4.967  -2.590   0.746  0.00  0.00     0.169 HD
ATOM     10  O   UNL d   1       2.101  -2.342  -0.149  0.00  0.00    -0.267 OA
BRANCH   8  11
ATOM     11  C   UNL d   1       4.931  -1.302  -0.881  0.00  0.00     0.057 C 
ATOM     12  C   UNL d   1       6.374  -1.419  -1.055  0.00  0.00     0.049 C 
ATOM     13  C   UNL d   1       7.072  -0.812  -2.106  0.00  0.00     0.041 C 
ATOM     14  C   UNL d   1       6.280  -0.130  -3.025  0.00  0.00     0.019 C 
ATOM     15  C   UNL d   1       4.924   0.159  -2.743  0.00  0.00     0.027 C 
ATOM     16  C   UNL d   1       4.246  -0.321  -1.607  0.00  0.00     0.035 C 
BRANCH  13  17
ATOM     17  C   UNL d   1       8.574  -0.869  -2.352  0.00  0.00     0.293 C 
ATOM     18  O   UNL d   1       9.070  -0.404  -3.372  0.00  0.00    -0.259 OA
BRANCH  17  19
ATOM     19  O   UNL d   1       9.315  -1.443  -1.354  0.00  0.00    -0.318 OA
BRANCH  19  20
ATOM     20  C   UNL d   1      10.749  -1.481  -1.614  0.00  0.00     0.174 C 
ATOM     21  C   UNL d   1      11.487  -2.147  -0.461  0.00  0.00     0.034 C 
ENDBRANCH  19  20
ENDBRANCH  17  19
ENDBRANCH  13  17
BRANCH  16  22
ATOM     22  N   UNL d   1       2.910   0.101  -1.439  0.00  0.00    -0.291 NA
ATOM     23  H   UNL d   1       2.331  -0.663  -1.791  0.00  0.00     0.127 HD
BRANCH  22  24
ATOM     24  C   UNL d   1       2.398   0.536  -0.119  0.00  0.00     0.088 C 
ATOM     25  C   UNL d   1       0.889   0.297  -0.011  0.00  0.00     0.021 C 
ENDBRANCH  22  24
ENDBRANCH  16  22
ENDBRANCH   8  11
ENDBRANCH   1   7
BRANCH   6  26
ATOM     26  N   UNL d   1       4.778  -0.849   3.513  0.00  0.00    -0.280 N 
ATOM     27  H   UNL d   1       5.301  -0.882   4.383  0.00  0.00     0.179 HD
BRANCH  26  28
ATOM     28  S   UNL d   1       5.631  -0.739   2.138  0.00  0.00     0.264 S 
ATOM     29  O   UNL d   1       5.739  -2.161   1.861  0.00  0.00    -0.200 OA
ATOM     30  O   UNL d   1       4.890   0.193   1.351  0.00  0.00    -0.200 OA
BRANCH  28  31
ATOM     31  C   UNL d   1       7.279  -0.220   2.194  0.00  0.00     0.092 C 
ATOM     32  C   UNL d   1       8.319  -1.190   2.214  0.00  0.00    -0.032 C 
ATOM     33  C   UNL d   1       8.238  -2.689   1.901  0.00  0.00     0.050 C 
ATOM     34  C   UNL d   1       9.585  -0.707   2.540  0.00  0.00    -0.054 C 
ATOM     35  C   UNL d   1      10.635  -1.630   3.090  0.00  0.00     0.049 C 
ATOM     36  C   UNL d   1       9.843   0.672   2.517  0.00  0.00     0.014 C 
ATOM     37  C   UNL d   1       8.833   1.609   2.272  0.00  0.00    -0.054 C 
ATOM     38  C   UNL d   1       9.111   3.077   2.368  0.00  0.00     0.049 C 
ATOM     39  C   UNL d   1       7.527   1.172   2.075  0.00  0.00    -0.032 C 
ATOM     40  C   UNL d   1       6.448   2.174   1.692  0.00  0.00     0.050 C 
ENDBRANCH  28  31
ENDBRANCH  26  28
ENDBRANCH   6  26
TORSDOF 10
