@<TRIPOS>MOLECULE
*****
 64 66 0 0 0
SMALL
GASTEIGER

@<TRIPOS>ATOM
      1 C           4.2585  -12.4911    0.0089 C.3     1  UNL1       -0.0645
      2 C           3.7277  -11.0631   -0.0034 C.3     1  UNL1       -0.0464
      3 C           3.8634  -10.4123   -1.3866 C.3     1  UNL1        0.0009
      4 S           3.1790   -8.7167   -1.3258 S.3     1  UNL1       -0.0860
      5 C           3.4516   -8.1664   -2.9890 C.ar    1  UNL1        0.1896
      6 N           2.3915   -8.0537   -3.8053 N.ar    1  UNL1       -0.2295
      7 C           2.5996   -7.5088   -5.0332 C.ar    1  UNL1        0.0455
      8 C           3.8258   -7.0648   -5.4850 C.ar    1  UNL1        0.0916
      9 C           3.9584   -6.5247   -6.8680 C.2     1  UNL1        0.2487
     10 O           2.9772   -6.4613   -7.6086 O.2     1  UNL1       -0.2700
     11 N           5.2054   -6.1235   -7.3054 N.am    1  UNL1       -0.3055
     12 C           5.4395   -5.5554   -8.6339 C.3     1  UNL1        0.0592
     13 C           6.9352   -5.1490   -8.8635 C.3     1  UNL1        0.0209
     14 C           7.0850   -3.6511   -8.6851 C.ar    1  UNL1        0.0054
     15 C           6.4713   -2.7320   -9.5450 C.ar    1  UNL1       -0.0495
     16 C           6.7651   -1.3717   -9.4365 C.ar    1  UNL1       -0.0159
     17 C           7.6008   -0.8925   -8.4175 C.ar    1  UNL1        0.1615
     18 O           7.7263    0.4745   -8.4095 O.3     1  UNL1       -0.4915
     19 C           8.4285    1.0634   -7.3171 C.3     1  UNL1        0.0790
     20 C           8.1994   -1.8078   -7.5363 C.ar    1  UNL1        0.1619
     21 O           9.0686   -1.3325   -6.5987 O.3     1  UNL1       -0.4914
     22 C           9.7139   -2.2435   -5.7273 C.3     1  UNL1        0.0790
     23 C           7.9223   -3.1716   -7.6702 C.ar    1  UNL1       -0.0078
     24 N           7.5167   -5.6467  -10.2152 N.4     1  UNL1        0.2418
     25 C           8.9146   -5.0583  -10.5168 C.3     1  UNL1       -0.0313
     26 C           9.4427   -5.5915  -11.8461 C.3     1  UNL1       -0.0123
     27 C           9.5052   -7.1075  -11.8043 C.3     1  UNL1       -0.0434
     28 C           8.0898   -7.6311  -11.6411 C.3     1  UNL1       -0.0123
     29 C           7.5190   -7.1721  -10.3060 C.3     1  UNL1       -0.0313
     30 C           4.8286   -7.2275   -4.5482 C.ar    1  UNL1        0.1456
     31 CL          6.4815   -6.7833   -4.8030 Cl      1  UNL1       -0.0611
     32 N           4.6816   -7.7648   -3.3175 N.ar    1  UNL1       -0.2095
     33 H           4.1475  -12.9307    1.0066 H       1  UNL1        0.0230
     34 H           5.3204  -12.5185   -0.2543 H       1  UNL1        0.0230
     35 H           3.7095  -13.1205   -0.6984 H       1  UNL1        0.0230
     36 H           4.2782  -10.4830    0.7479 H       1  UNL1        0.0271
     37 H           2.6756  -11.0836    0.3074 H       1  UNL1        0.0271
     38 H           3.3126  -10.9999   -2.1287 H       1  UNL1        0.0381
     39 H           4.9181  -10.3849   -1.6819 H       1  UNL1        0.0381
     40 H           1.7028   -7.4516   -5.6502 H       1  UNL1        0.0839
     41 H           5.9606   -6.1112   -6.6277 H       1  UNL1        0.1492
     42 H           4.7613   -4.7002   -8.7358 H       1  UNL1        0.0522
     43 H           5.0988   -6.2980   -9.3576 H       1  UNL1        0.0522
     44 H           7.5608   -5.6574   -8.1154 H       1  UNL1        0.0920
     45 H           5.7598   -3.0490  -10.3052 H       1  UNL1        0.0623
     46 H           6.3409   -0.6721  -10.1569 H       1  UNL1        0.0655
     47 H           8.3522    2.1508   -7.3913 H       1  UNL1        0.0660
     48 H           9.4939    0.8161   -7.3740 H       1  UNL1        0.0660
     49 H           7.9888    0.7769   -6.3537 H       1  UNL1        0.0660
     50 H          10.3784   -1.6676   -5.0791 H       1  UNL1        0.0660
     51 H          10.3255   -2.9543   -6.2922 H       1  UNL1        0.0660
     52 H           8.9802   -2.7548   -5.0973 H       1  UNL1        0.0660
     53 H           8.3683   -3.8833   -6.9826 H       1  UNL1        0.0660
     54 H           6.8911   -5.2799  -10.9421 H       1  UNL1        0.2040
     55 H           9.5785   -5.3333   -9.6889 H       1  UNL1        0.0814
     56 H           8.8339   -3.9694  -10.5788 H       1  UNL1        0.0814
     57 H          10.4396   -5.1878  -12.0560 H       1  UNL1        0.0317
     58 H           8.7907   -5.2655  -12.6673 H       1  UNL1        0.0317
     59 H          10.1245   -7.4317  -10.9570 H       1  UNL1        0.0269
     60 H           9.9656   -7.5059  -12.7131 H       1  UNL1        0.0269
     61 H           8.0921   -8.7246  -11.6973 H       1  UNL1        0.0317
     62 H           7.4586   -7.2702  -12.4639 H       1  UNL1        0.0317
     63 H           8.1150   -7.5526   -9.4688 H       1  UNL1        0.0814
     64 H           6.4922   -7.5294  -10.2106 H       1  UNL1        0.0814
@<TRIPOS>UNITY_ATOM_ATTR
24 1
charge 1
@<TRIPOS>BOND
     1     1     2    1
     2     2     3    1
     3     3     4    1
     4     4     5    1
     5     5     6   ar
     6     6     7   ar
     7     7     8   ar
     8     8     9    1
     9     9    10    2
    10     9    11   am
    11    11    12    1
    12    14    15   ar
    13    15    16   ar
    14    16    17   ar
    15    17    18    1
    16    18    19    1
    17    17    20   ar
    18    20    21    1
    19    21    22    1
    20    20    23   ar
    21    14    23   ar
    22    13    24    1
    23    24    25    1
    24    25    26    1
    25    26    27    1
    26    27    28    1
    27    28    29    1
    28    24    29    1
    29     8    30   ar
    30    30    31    1
    31    30    32   ar
    32     5    32   ar
    33    13    14    1
    34    13    12    1
    35     1    33    1
    36     1    34    1
    37     1    35    1
    38     2    36    1
    39     2    37    1
    40     3    38    1
    41     3    39    1
    42     7    40    1
    43    11    41    1
    44    12    42    1
    45    12    43    1
    46    13    44    1
    47    15    45    1
    48    16    46    1
    49    19    47    1
    50    19    48    1
    51    19    49    1
    52    22    50    1
    53    22    51    1
    54    22    52    1
    55    23    53    1
    56    24    54    1
    57    25    55    1
    58    25    56    1
    59    26    57    1
    60    26    58    1
    61    27    59    1
    62    27    60    1
    63    28    61    1
    64    28    62    1
    65    29    63    1
    66    29    64    1
