REMARK  5 active torsions:
REMARK  status: ('A' for Active; 'I' for Inactive)
REMARK    1  A    between atoms: C_2  and  C_3 
REMARK       I    between atoms: C_2  and  N_13 
REMARK    2  A    between atoms: C_3  and  C_4 
REMARK    3  A    between atoms: N_13  and  N_14 
REMARK    4  A    between atoms: C_15  and  C_16 
REMARK    5  A    between atoms: C_17  and  C_18 
ROOT
ATOM      1  O   UNL d   1       1.016  -0.174   0.215  0.00  0.00    -0.271 OA
ATOM      2  C   UNL d   1       2.242  -0.045   0.120  0.00  0.00     0.241 C 
ATOM      3  N   UNL d   1       3.046  -1.021   0.679  0.00  0.00    -0.247 N 
ATOM      4  H   UNL d   1       2.549  -1.784   1.128  0.00  0.00     0.192 HD
ENDROOT
BRANCH   2   5
ATOM      5  C   UNL d   1       2.938   1.121  -0.575  0.00  0.00     0.145 C 
BRANCH   5   6
ATOM      6  C   UNL d   1       2.009   2.154  -1.164  0.00  0.00    -0.021 A 
ATOM      7  C   UNL d   1       0.860   1.943  -1.904  0.00  0.00     0.097 A 
ATOM      8  N   UNL d   1       0.312   3.156  -2.225  0.00  0.00    -0.365 N 
ATOM      9  C   UNL d   1       1.129   4.174  -1.790  0.00  0.00     0.042 A 
ATOM     10  H   UNL d   1      -0.552   3.286  -2.732  0.00  0.00     0.165 HD
ATOM     11  C   UNL d   1       1.014   5.562  -1.947  0.00  0.00     0.030 A 
ATOM     12  C   UNL d   1       2.192   3.576  -1.111  0.00  0.00    -0.001 A 
ATOM     13  C   UNL d   1       2.034   6.359  -1.414  0.00  0.00     0.002 A 
ATOM     14  C   UNL d   1       3.102   5.792  -0.724  0.00  0.00     0.001 A 
ATOM     15  C   UNL d   1       3.184   4.407  -0.555  0.00  0.00     0.014 A 
ENDBRANCH   5   6
ENDBRANCH   2   5
BRANCH   3  16
ATOM     16  N   UNL d   1       4.411  -0.988   0.657  0.00  0.00    -0.185 NA
ATOM     17  C   UNL d   1       5.018  -1.985   1.227  0.00  0.00     0.139 C 
BRANCH  17  18
ATOM     18  C   UNL d   1       6.503  -2.043   1.269  0.00  0.00     0.024 C 
ATOM     19  C   UNL d   1       7.199  -3.050   1.822  0.00  0.00     0.039 C 
BRANCH  19  20
ATOM     20  C   UNL d   1       8.629  -3.006   1.851  0.00  0.00     0.074 A 
ATOM     21  C   UNL d   1       9.475  -1.939   2.143  0.00  0.00     0.039 A 
ATOM     22  C   UNL d   1      10.812  -2.382   2.025  0.00  0.00     0.027 A 
ATOM     23  C   UNL d   1      10.734  -3.706   1.678  0.00  0.00     0.142 A 
ATOM     24  O   UNL d   1       9.435  -4.099   1.596  0.00  0.00    -0.323 OA
ENDBRANCH  19  20
ENDBRANCH  17  18
ENDBRANCH   3  16
TORSDOF 5
