@<TRIPOS>MOLECULE
*****
 67 70 0 0 0
SMALL
GASTEIGER

@<TRIPOS>ATOM
      1 C           7.2360   -3.7605    2.4618 C.3     1  UNL1        0.0788
      2 O           6.6422   -2.9131    1.4899 O.3     1  UNL1       -0.4947
      3 C           7.1259   -1.6349    1.3860 C.ar    1  UNL1        0.1261
      4 C           8.4797   -1.3546    1.3829 C.ar    1  UNL1       -0.0190
      5 C           8.9081   -0.0506    1.1454 C.ar    1  UNL1       -0.0506
      6 C           8.0051    0.9858    0.8506 C.ar    1  UNL1       -0.0173
      7 C           8.4802    2.2876    0.6191 C.ar    1  UNL1       -0.0540
      8 C           7.6101    3.3512    0.3777 C.ar    1  UNL1       -0.0612
      9 C           6.2464    3.1290    0.3549 C.ar    1  UNL1       -0.0612
     10 C           5.7638    1.8381    0.5505 C.ar    1  UNL1       -0.0536
     11 C           6.6176    0.7281    0.8130 C.ar    1  UNL1       -0.0090
     12 C           6.1804   -0.6024    1.1374 C.ar    1  UNL1        0.0315
     13 C           4.7023   -1.0316    1.1574 C.3     1  UNL1        0.1362
     14 C           4.5505   -1.6591   -0.2300 C.2     1  UNL1        0.2390
     15 O           4.4669   -2.9008   -0.3414 O.2     1  UNL1       -0.2734
     16 N           4.6199   -0.7865   -1.3043 N.am    1  UNL1       -0.3087
     17 C           4.4582   -1.2096   -2.7038 C.3     1  UNL1        0.0262
     18 C           5.5321   -2.1237   -3.2132 C.3     1  UNL1       -0.0442
     19 C           3.3011   -2.1413   -2.8053 C.3     1  UNL1       -0.0442
     20 C           4.1523    0.0166   -3.5942 C.3     1  UNL1       -0.0442
     21 N           3.6576   -0.0962    1.6930 N.am    1  UNL1       -0.2511
     22 C           2.4308    0.2827    1.0347 C.2     1  UNL1        0.2554
     23 O           1.7599    1.2470    1.4326 O.2     1  UNL1       -0.2695
     24 C           1.8054   -0.3428   -0.1784 C.ar    1  UNL1        0.0822
     25 C           1.5092   -1.7146   -0.2651 C.ar    1  UNL1       -0.0458
     26 C           0.8766   -2.2491   -1.4293 C.ar    1  UNL1       -0.0574
     27 C           0.5619   -1.4163   -2.5446 C.ar    1  UNL1       -0.0165
     28 C           0.8592   -0.0490   -2.4607 C.ar    1  UNL1        0.1590
     29 O           0.8840    0.7493   -3.5872 O.3     1  UNL1       -0.5033
     30 C           1.4404    0.4816   -1.2794 C.ar    1  UNL1        0.1706
     31 O           1.8565    1.7959   -1.3109 O.3     1  UNL1       -0.5028
     32 C           3.9132    0.5037    3.0330 C.ar    1  UNL1        0.0377
     33 C           2.8468    0.8792    3.8541 C.ar    1  UNL1       -0.0402
     34 C           3.0257    1.7269    4.9582 C.ar    1  UNL1       -0.0600
     35 C           4.2925    2.1616    5.3265 C.ar    1  UNL1       -0.0616
     36 C           5.3810    1.7107    4.6125 C.ar    1  UNL1       -0.0600
     37 C           5.1853    0.8443    3.5315 C.ar    1  UNL1       -0.0402
     38 H           6.7397   -4.7355    2.3968 H       1  UNL1        0.0660
     39 H           7.0663   -3.3630    3.4665 H       1  UNL1        0.0660
     40 H           8.2985   -3.9274    2.2743 H       1  UNL1        0.0660
     41 H           9.2177   -2.1359    1.5236 H       1  UNL1        0.0654
     42 H           9.9762    0.1492    1.1816 H       1  UNL1        0.0625
     43 H           9.5481    2.4887    0.6421 H       1  UNL1        0.0624
     44 H           7.9968    4.3533    0.2214 H       1  UNL1        0.0618
     45 H           5.5459    3.9486    0.2115 H       1  UNL1        0.0618
     46 H           4.6822    1.7494    0.5700 H       1  UNL1        0.0624
     47 H           4.6067   -1.8612    1.8772 H       1  UNL1        0.0653
     48 H           4.4515    0.1949   -1.0858 H       1  UNL1        0.1493
     49 H           5.5851   -3.0156   -2.5741 H       1  UNL1        0.0250
     50 H           6.4957   -1.6358   -3.2351 H       1  UNL1        0.0250
     51 H           5.2381   -2.4766   -4.2107 H       1  UNL1        0.0250
     52 H           3.3468   -3.0609   -2.2167 H       1  UNL1        0.0250
     53 H           2.9191   -2.3756   -3.7963 H       1  UNL1        0.0250
     54 H           2.6484   -1.4845   -2.3251 H       1  UNL1        0.0250
     55 H           5.0301    0.6411   -3.7526 H       1  UNL1        0.0250
     56 H           3.4037    0.6863   -3.1529 H       1  UNL1        0.0250
     57 H           3.7360   -0.2886   -4.5621 H       1  UNL1        0.0250
     58 H           1.9567   -2.4077    0.4481 H       1  UNL1        0.0626
     59 H           0.9993   -3.3272   -1.6084 H       1  UNL1        0.0619
     60 H           0.4770   -1.8866   -3.5325 H       1  UNL1        0.0655
     61 H           0.8975    0.1988   -4.3937 H       1  UNL1        0.2923
     62 H           1.4508    2.1942   -2.1048 H       1  UNL1        0.2923
     63 H           1.8386    0.5394    3.6330 H       1  UNL1        0.0636
     64 H           2.1554    2.0834    5.4989 H       1  UNL1        0.0618
     65 H           4.4339    2.8350    6.1646 H       1  UNL1        0.0618
     66 H           6.3879    2.0526    4.8459 H       1  UNL1        0.0618
     67 H           6.1176    0.5607    3.0828 H       1  UNL1        0.0636
@<TRIPOS>BOND
     1     1     2    1
     2     2     3    1
     3     3     4   ar
     4     4     5   ar
     5     5     6   ar
     6     6     7   ar
     7     7     8   ar
     8     8     9   ar
     9     9    10   ar
    10    10    11   ar
    11     6    11   ar
    12    11    12   ar
    13     3    12   ar
    14    14    15    2
    15    14    16   am
    16    16    17    1
    17    17    18    1
    18    17    19    1
    19    17    20    1
    20    13    21    1
    21    21    22   am
    22    22    23    2
    23    22    24    1
    24    24    25   ar
    25    25    26   ar
    26    26    27   ar
    27    27    28   ar
    28    28    29    1
    29    28    30   ar
    30    24    30   ar
    31    30    31    1
    32    21    32    1
    33    32    33   ar
    34    33    34   ar
    35    34    35   ar
    36    35    36   ar
    37    36    37   ar
    38    32    37   ar
    39    13    14    1
    40    13    12    1
    41     1    38    1
    42     1    39    1
    43     1    40    1
    44     4    41    1
    45     5    42    1
    46     7    43    1
    47     8    44    1
    48     9    45    1
    49    10    46    1
    50    13    47    1
    51    16    48    1
    52    18    49    1
    53    18    50    1
    54    18    51    1
    55    19    52    1
    56    19    53    1
    57    19    54    1
    58    20    55    1
    59    20    56    1
    60    20    57    1
    61    25    58    1
    62    26    59    1
    63    27    60    1
    64    29    61    1
    65    31    62    1
    66    33    63    1
    67    34    64    1
    68    35    65    1
    69    36    66    1
    70    37    67    1
