@<TRIPOS>MOLECULE
*****
 50 51 0 0 0
SMALL
GASTEIGER

@<TRIPOS>ATOM
      1 C          -0.3398    2.5458   -0.0040 C.3     1  UNL1       -0.0382
      2 C           0.3925    1.2322    0.0042 C.ar    1  UNL1       -0.0284
      3 C           1.8020    1.2431    0.0068 C.ar    1  UNL1       -0.0156
      4 C           2.5330    0.0585   -0.0051 C.ar    1  UNL1        0.1218
      5 O           3.9036   -0.0259   -0.0172 O.3     1  UNL1       -0.4827
      6 C           4.6817    1.1838   -0.0272 C.3     1  UNL1        0.1666
      7 C           6.2161    0.8810   -0.0552 C.2     1  UNL1        0.2667
      8 O           6.6789   -0.2605   -0.0727 O.2     1  UNL1       -0.2705
      9 N           7.0577    1.9908   -0.0596 N.am    1  UNL1       -0.2323
     10 N           8.5186    1.8452   -0.0841 N.am    1  UNL1       -0.2454
     11 C           9.3223    3.0036   -0.0850 C.2     1  UNL1        0.1533
     12 S           8.5679    4.5162   -0.0609 S.2     1  UNL1       -0.0170
     13 N          10.7280    2.7924   -0.1051 N.am    1  UNL1       -0.2632
     14 C          11.7181    3.7973   -0.1013 C.2     1  UNL1        0.2424
     15 O          11.4777    5.0083   -0.1048 O.2     1  UNL1       -0.2704
     16 C          13.1715    3.3941   -0.1051 C.2     1  UNL1        0.0011
     17 C          14.1188    4.3657   -0.0823 C.2     1  UNL1       -0.0497
     18 C          15.5840    4.1647   -0.1539 C.ar    1  UNL1       -0.0245
     19 C          16.4757    4.9540    0.5996 C.ar    1  UNL1       -0.0482
     20 C          17.8687    4.8182    0.4498 C.ar    1  UNL1        0.0161
     21 C          18.3762    3.8446   -0.4183 C.ar    1  UNL1        0.2732
     22 N          19.8225    3.5829   -0.4748 N.pl3   1  UNL1        0.0796
     23 O          20.5634    4.2668    0.2441 O.2     1  UNL1        0.0414
     24 O          20.2129    2.6702   -1.2191 O.co2   1  UNL1       -0.5760
     25 C          17.5041    3.0744   -1.1941 C.ar    1  UNL1        0.0161
     26 C          16.1208    3.2495   -1.0677 C.ar    1  UNL1       -0.0482
     27 C           1.8334   -1.1599   -0.0063 C.ar    1  UNL1       -0.0156
     28 C           0.4214   -1.2057    0.0002 C.ar    1  UNL1       -0.0284
     29 C          -0.2935   -2.5325    0.0084 C.3     1  UNL1       -0.0382
     30 C          -0.2929    0.0041    0.0006 C.ar    1  UNL1        0.0470
     31 CL         -2.0304   -0.0118   -0.0035 Cl      1  UNL1       -0.0830
     32 H           0.3580    3.3893    0.0166 H       1  UNL1        0.0278
     33 H          -0.9826    2.6316    0.8775 H       1  UNL1        0.0278
     34 H          -0.9403    2.6391   -0.9145 H       1  UNL1        0.0278
     35 H           2.3047    2.2035    0.0170 H       1  UNL1        0.0657
     36 H           4.4610    1.7652    0.8773 H       1  UNL1        0.0795
     37 H           4.4304    1.7733   -0.9187 H       1  UNL1        0.0795
     38 H           6.7201    2.9541   -0.0459 H       1  UNL1        0.1729
     39 H           8.8413    0.8779   -0.0953 H       1  UNL1        0.1718
     40 H          11.0515    1.8345   -0.1147 H       1  UNL1        0.1568
     41 H          13.4431    2.3490   -0.1359 H       1  UNL1        0.0670
     42 H          13.8264    5.4195   -0.0523 H       1  UNL1        0.0625
     43 H          16.1039    5.6755    1.3273 H       1  UNL1        0.0626
     44 H          18.5381    5.4660    1.0154 H       1  UNL1        0.0685
     45 H          17.8781    2.3367   -1.9007 H       1  UNL1        0.0685
     46 H          15.4619    2.6623   -1.7015 H       1  UNL1        0.0626
     47 H           2.3982   -2.0914   -0.0116 H       1  UNL1        0.0657
     48 H           0.4071   -3.3729    0.0116 H       1  UNL1        0.0278
     49 H          -0.9252   -2.6345   -0.8813 H       1  UNL1        0.0278
     50 H          -0.9187   -2.6241    0.9041 H       1  UNL1        0.0278
@<TRIPOS>UNITY_ATOM_ATTR
22 1
charge 1
24 1
charge -1
@<TRIPOS>BOND
     1     1     2    1
     2     2     3   ar
     3     3     4   ar
     4     4     5    1
     5     5     6    1
     6     6     7    1
     7     7     8    2
     8     7     9   am
     9     9    10    1
    10    10    11    1
    11    11    12    2
    12    11    13    1
    13    13    14   am
    14    14    15    2
    15    14    16    1
    16    16    17    2
    17    17    18    1
    18    18    19   ar
    19    19    20   ar
    20    20    21   ar
    21    21    22    1
    22    22    23    2
    23    22    24    1
    24    21    25   ar
    25    25    26   ar
    26    18    26   ar
    27     4    27   ar
    28    27    28   ar
    29    28    29    1
    30    28    30   ar
    31     2    30   ar
    32    30    31    1
    33     1    32    1
    34     1    33    1
    35     1    34    1
    36     3    35    1
    37     6    36    1
    38     6    37    1
    39     9    38    1
    40    10    39    1
    41    13    40    1
    42    16    41    1
    43    17    42    1
    44    19    43    1
    45    20    44    1
    46    25    45    1
    47    26    46    1
    48    27    47    1
    49    29    48    1
    50    29    49    1
    51    29    50    1
