@<TRIPOS>MOLECULE
*****
 60 63 0 0 0
SMALL
GASTEIGER

@<TRIPOS>ATOM
      1 C           1.2363   -0.7235   -0.3792 C.3     1  UNL1        0.0790
      2 O           2.6315   -0.4329   -0.3132 O.3     1  UNL1       -0.4914
      3 C           3.1389    0.7771   -0.7169 C.ar    1  UNL1        0.1617
      4 C           4.2769    0.7591   -1.5535 C.ar    1  UNL1       -0.0131
      5 C           5.0170    1.9450   -1.9161 C.ar    1  UNL1       -0.0195
      6 C           4.7009    3.1791   -1.3660 C.ar    1  UNL1        0.1035
      7 N           5.1467    4.4612   -1.8548 N.pl3   1  UNL1       -0.2449
      8 C           4.5990    5.7460   -1.6181 C.2     1  UNL1        0.3842
      9 N           3.5596    6.1196   -0.9209 N.am    1  UNL1        0.0007
     10 C           2.5071    5.2435   -0.8154 C.2     1  UNL1        0.3433
     11 O           2.1060    4.5851   -1.7480 O.2     1  UNL1       -0.2483
     12 C           1.6462    5.3526    0.4090 C.ar    1  UNL1        0.0912
     13 C           1.6721    4.6358    1.6361 C.ar    1  UNL1       -0.0453
     14 C           0.4831    4.4634    2.3703 C.ar    1  UNL1       -0.0608
     15 C          -0.6654    5.1350    1.9785 C.ar    1  UNL1       -0.0590
     16 C          -0.6388    5.9377    0.8416 C.ar    1  UNL1       -0.0256
     17 C           0.4990    6.0232    0.0617 C.ar    1  UNL1        0.1370
     18 F           0.4666    6.7406   -1.0704 F       1  UNL1       -0.2046
     19 N           5.2747    6.8326   -2.2092 N.pl3   1  UNL1       -0.2767
     20 C           4.6715    8.1903   -2.1044 C.3     1  UNL1        0.0684
     21 C           5.4243    9.2948   -2.8426 C.3     1  UNL1        0.0059
     22 C           4.9294   10.7104   -2.6366 C.2     1  UNL1        0.0106
     23 C           5.5434   11.7533   -3.2033 C.ar    1  UNL1        0.0510
     24 C           6.6729   11.8268   -4.0610 C.ar    1  UNL1       -0.0482
     25 C           7.1583   13.0339   -4.3730 C.ar    1  UNL1       -0.0608
     26 C           6.4822   14.2521   -3.9544 C.ar    1  UNL1       -0.0555
     27 C           5.3846   14.2667   -3.1694 C.ar    1  UNL1        0.0098
     28 C           4.8473   12.9591   -2.7341 C.ar    1  UNL1        0.2086
     29 N           3.8486   12.6676   -1.9908 N.2     1  UNL1       -0.2369
     30 C           3.7631   11.1846   -1.8028 C.3     1  UNL1        0.1661
     31 C           3.8318    3.0425   -0.2990 C.ar    1  UNL1        0.0222
     32 C           2.8711    1.9974   -0.1539 C.ar    1  UNL1        0.1647
     33 O           1.7587    2.4501    0.4751 O.3     1  UNL1       -0.4913
     34 C           0.7536    1.6292    0.9819 C.3     1  UNL1        0.0790
     35 H           1.0800   -1.7952   -0.2504 H       1  UNL1        0.0660
     36 H           0.7679   -0.3423   -1.2895 H       1  UNL1        0.0660
     37 H           0.6656   -0.4270    0.4944 H       1  UNL1        0.0660
     38 H           4.5943   -0.1978   -1.9596 H       1  UNL1        0.0656
     39 H           5.8652    1.8462   -2.5867 H       1  UNL1        0.0653
     40 H           5.7824    4.3790   -2.6364 H       1  UNL1        0.2646
     41 H           2.5015    4.0021    1.9626 H       1  UNL1        0.0626
     42 H           0.4142    3.7066    3.1594 H       1  UNL1        0.0618
     43 H          -1.5849    5.0214    2.5437 H       1  UNL1        0.0618
     44 H          -1.5139    6.4699    0.5038 H       1  UNL1        0.0646
     45 H           5.8935    6.6778   -2.9974 H       1  UNL1        0.2577
     46 H           4.6601    8.4600   -1.0434 H       1  UNL1        0.0658
     47 H           3.6342    8.2025   -2.4694 H       1  UNL1        0.0658
     48 H           5.4007    9.0946   -3.9224 H       1  UNL1        0.0343
     49 H           6.4791    9.2639   -2.5391 H       1  UNL1        0.0343
     50 H           7.1332   10.9133   -4.4201 H       1  UNL1        0.0626
     51 H           8.0725   13.1128   -4.9562 H       1  UNL1        0.0618
     52 H           6.9077   15.1761   -4.3437 H       1  UNL1        0.0620
     53 H           4.9212   15.2033   -2.8815 H       1  UNL1        0.0683
     54 H           3.2242   13.3811   -1.6143 H       1  UNL1        0.4459
     55 H           2.7983   10.8396   -2.1843 H       1  UNL1        0.1077
     56 H           3.8689   10.9664   -0.7355 H       1  UNL1        0.1077
     57 H           3.8038    3.8601    0.4026 H       1  UNL1        0.0690
     58 H           0.0369    2.1072    1.6521 H       1  UNL1        0.0660
     59 H           1.2496    0.8952    1.6179 H       1  UNL1        0.0660
     60 H           0.1140    1.3290    0.1487 H       1  UNL1        0.0660
@<TRIPOS>UNITY_ATOM_ATTR
29 1
charge 1
@<TRIPOS>BOND
     1     1     2    1
     2     2     3    1
     3     3     4   ar
     4     4     5   ar
     5     5     6   ar
     6     6     7    1
     7     7     8    1
     8     8     9    2
     9     9    10    1
    10    10    11    2
    11    10    12    1
    12    12    13   ar
    13    13    14   ar
    14    14    15   ar
    15    15    16   ar
    16    16    17   ar
    17    12    17   ar
    18    17    18    1
    19     8    19    1
    20    19    20    1
    21    20    21    1
    22    21    22    1
    23    22    23    2
    24    23    24   ar
    25    24    25   ar
    26    25    26   ar
    27    26    27   ar
    28    27    28   ar
    29    23    28   ar
    30    28    29    2
    31    29    30    1
    32    22    30    1
    33     6    31   ar
    34    31    32   ar
    35     3    32   ar
    36    32    33    1
    37    33    34    1
    38     1    35    1
    39     1    36    1
    40     1    37    1
    41     4    38    1
    42     5    39    1
    43     7    40    1
    44    13    41    1
    45    14    42    1
    46    15    43    1
    47    16    44    1
    48    19    45    1
    49    20    46    1
    50    20    47    1
    51    21    48    1
    52    21    49    1
    53    24    50    1
    54    25    51    1
    55    26    52    1
    56    27    53    1
    57    29    54    1
    58    30    55    1
    59    30    56    1
    60    31    57    1
    61    34    58    1
    62    34    59    1
    63    34    60    1
