@<TRIPOS>MOLECULE
*****
 73 76 0 0 0
SMALL
GASTEIGER

@<TRIPOS>ATOM
      1 C           0.9591    0.1830    0.3431 C.3     1  UNL1       -0.0652
      2 C           2.4604    0.2478    0.3830 C.3     1  UNL1       -0.0538
      3 C           3.0555   -1.1042    0.0530 C.3     1  UNL1       -0.0256
      4 C           4.5343   -1.2933   -0.2218 C.3     1  UNL1        0.1073
      5 C           4.9701   -1.1457    1.2108 C.2     1  UNL1        0.2342
      6 O           5.1407   -2.1299    1.9236 O.2     1  UNL1       -0.2738
      7 N           5.0241    0.1621    1.6692 N.am    1  UNL1       -0.3109
      8 C           5.2806    0.4019    3.0604 C.3     1  UNL1        0.0232
      9 C           6.5212   -0.3671    3.4706 C.3     1  UNL1       -0.0345
     10 C           7.0588    0.3660    4.6608 C.3     1  UNL1       -0.0513
     11 C           6.6222    1.8143    4.4801 C.3     1  UNL1       -0.0513
     12 C           5.6720    1.8526    3.2897 C.3     1  UNL1       -0.0345
     13 N           4.9230   -2.5965   -0.9247 N.am    1  UNL1       -0.2551
     14 C           4.0159   -3.6334   -1.4091 C.2     1  UNL1        0.2614
     15 O           4.4441   -4.7552   -1.6913 O.2     1  UNL1       -0.2689
     16 C           2.5782   -3.3772   -1.5963 C.ar    1  UNL1        0.1156
     17 S           1.4347   -4.3367   -0.7510 S.2     1  UNL1        0.0190
     18 N           0.1316   -3.3592   -1.0432 N.ar    1  UNL1       -0.2031
     19 C           0.4728   -2.3577   -1.8762 C.ar    1  UNL1        0.1556
     20 C          -0.5447   -1.2727   -2.1030 C.2     1  UNL1        0.2651
     21 O          -1.6722   -1.4023   -1.6846 O.2     1  UNL1       -0.2684
     22 N          -0.0648   -0.0618   -2.6821 N.am    1  UNL1       -0.3072
     23 C          -0.8044    1.1892   -2.8821 C.3     1  UNL1        0.0235
     24 C          -2.1463    1.1480   -2.1822 C.3     1  UNL1       -0.0345
     25 C          -2.9881    2.3653   -2.4389 C.3     1  UNL1       -0.0514
     26 C          -2.2576    3.6260   -2.0230 C.3     1  UNL1       -0.0529
     27 C          -0.9041    3.7284   -2.7244 C.3     1  UNL1       -0.0514
     28 C          -0.0355    2.4816   -2.4664 C.3     1  UNL1       -0.0345
     29 C           1.8664   -2.4070   -2.3072 C.ar    1  UNL1        0.0765
     30 N           2.5127   -1.3910   -2.9872 N.pl3   1  UNL1       -0.3551
     31 C           6.3807   -2.8331   -1.0486 C.ar    1  UNL1        0.0376
     32 C           7.3181   -2.4292   -0.0727 C.ar    1  UNL1       -0.0375
     33 C           8.6910   -2.6900   -0.1626 C.ar    1  UNL1       -0.0247
     34 C           9.1804   -3.3224   -1.2808 C.ar    1  UNL1        0.1235
     35 F          10.4938   -3.5628   -1.3801 F       1  UNL1       -0.2055
     36 C           8.3133   -3.6956   -2.2980 C.ar    1  UNL1       -0.0247
     37 C           6.9259   -3.4630   -2.1798 C.ar    1  UNL1       -0.0375
     38 H           0.5128    1.1147    0.6810 H       1  UNL1        0.0230
     39 H           0.5544   -0.6713    0.8913 H       1  UNL1        0.0230
     40 H           0.6847    0.0823   -0.6819 H       1  UNL1        0.0230
     41 H           2.6949    0.5695    1.3867 H       1  UNL1        0.0263
     42 H           2.8131    0.9705   -0.3668 H       1  UNL1        0.0263
     43 H           2.6742   -1.1785   -0.9046 H       1  UNL1        0.0288
     44 H           2.6521   -1.9122    0.6731 H       1  UNL1        0.0288
     45 H           4.9260   -0.4876   -0.8616 H       1  UNL1        0.0600
     46 H           4.5393    0.9023    1.1774 H       1  UNL1        0.1490
     47 H           4.3959    0.1285    3.6534 H       1  UNL1        0.0498
     48 H           7.2484   -0.3482    2.6478 H       1  UNL1        0.0283
     49 H           6.3151   -1.4126    3.7139 H       1  UNL1        0.0283
     50 H           8.1442    0.2513    4.7031 H       1  UNL1        0.0266
     51 H           6.6284   -0.0617    5.5716 H       1  UNL1        0.0266
     52 H           7.4858    2.4575    4.2904 H       1  UNL1        0.0266
     53 H           6.1254    2.1691    5.3873 H       1  UNL1        0.0266
     54 H           6.1973    2.2465    2.4094 H       1  UNL1        0.0283
     55 H           4.8080    2.5064    3.4563 H       1  UNL1        0.0283
     56 H           0.8642   -0.0341   -3.0336 H       1  UNL1        0.1493
     57 H          -0.9337    1.2517   -3.9689 H       1  UNL1        0.0498
     58 H          -1.9834    1.0249   -1.1019 H       1  UNL1        0.0283
     59 H          -2.7174    0.2989   -2.5597 H       1  UNL1        0.0283
     60 H          -3.9240    2.2525   -1.8842 H       1  UNL1        0.0266
     61 H          -3.2310    2.3978   -3.5069 H       1  UNL1        0.0266
     62 H          -2.1069    3.6227   -0.9362 H       1  UNL1        0.0265
     63 H          -2.8831    4.4899   -2.2658 H       1  UNL1        0.0265
     64 H          -0.3917    4.6392   -2.3922 H       1  UNL1        0.0266
     65 H          -1.0665    3.8322   -3.8047 H       1  UNL1        0.0266
     66 H           0.2405    2.4614   -1.4039 H       1  UNL1        0.0283
     67 H           0.9073    2.5858   -3.0201 H       1  UNL1        0.0283
     68 H           2.3543   -0.4615   -2.5996 H       1  UNL1        0.1424
     69 H           3.5316   -1.4572   -2.9765 H       1  UNL1        0.1424
     70 H           7.0575   -1.9601    0.8594 H       1  UNL1        0.0637
     71 H           9.3547   -2.4109    0.6517 H       1  UNL1        0.0647
     72 H           8.7229   -4.1752   -3.1810 H       1  UNL1        0.0647
     73 H           6.2932   -3.7672   -3.0097 H       1  UNL1        0.0637
@<TRIPOS>BOND
     1     1     2    1
     2     2     3    1
     3     3     4    1
     4     4     5    1
     5     5     6    2
     6     5     7   am
     7     7     8    1
     8     8     9    1
     9     9    10    1
    10    10    11    1
    11    11    12    1
    12     8    12    1
    13     4    13    1
    14    13    14   am
    15    14    15    2
    16    14    16    1
    17    16    17   ar
    18    17    18   ar
    19    18    19   ar
    20    19    20    1
    21    20    21    2
    22    20    22   am
    23    22    23    1
    24    23    24    1
    25    24    25    1
    26    25    26    1
    27    26    27    1
    28    27    28    1
    29    23    28    1
    30    19    29   ar
    31    16    29   ar
    32    29    30    1
    33    13    31    1
    34    31    32   ar
    35    32    33   ar
    36    33    34   ar
    37    34    35    1
    38    34    36   ar
    39    36    37   ar
    40    31    37   ar
    41     1    38    1
    42     1    39    1
    43     1    40    1
    44     2    41    1
    45     2    42    1
    46     3    43    1
    47     3    44    1
    48     4    45    1
    49     7    46    1
    50     8    47    1
    51     9    48    1
    52     9    49    1
    53    10    50    1
    54    10    51    1
    55    11    52    1
    56    11    53    1
    57    12    54    1
    58    12    55    1
    59    22    56    1
    60    23    57    1
    61    24    58    1
    62    24    59    1
    63    25    60    1
    64    25    61    1
    65    26    62    1
    66    26    63    1
    67    27    64    1
    68    27    65    1
    69    28    66    1
    70    28    67    1
    71    30    68    1
    72    30    69    1
    73    32    70    1
    74    33    71    1
    75    36    72    1
    76    37    73    1
