REMARK  12 active torsions:
REMARK  status: ('A' for Active; 'I' for Inactive)
REMARK    1  A    between atoms: C_2  and  C_3 
REMARK    2  A    between atoms: C_3  and  C_4 
REMARK    3  A    between atoms: C_4  and  C_5 
REMARK    4  A    between atoms: C_5  and  C_6 
REMARK    5  A    between atoms: C_6  and  O_7 
REMARK    6  A    between atoms: O_7  and  C_8 
REMARK    7  A    between atoms: C_13  and  C_14 
REMARK       I    between atoms: C_14  and  N_16 
REMARK    8  A    between atoms: N_16  and  C_17 
REMARK    9  A    between atoms: C_17  and  N_19 
REMARK   10  A    between atoms: N_19  and  N_20 
REMARK       I    between atoms: N_20  and  C_21 
REMARK   11  A    between atoms: C_21  and  C_23 
REMARK   12  A    between atoms: C_23  and  N_24 
ROOT
ATOM      1  C   UNL d   1       6.700   0.686   2.892  0.00  0.00     0.193 C 
ATOM      2  S   UNL d   1       7.636   2.069   2.722  0.00  0.00    -0.039 SA
ENDROOT
BRANCH   1   3
ATOM      3  N   UNL d   1       7.280  -0.626   3.183  0.00  0.00    -0.298 N 
ATOM      4  C   UNL d   1       8.689  -1.028   3.114  0.00  0.00     0.260 C 
ATOM      5  O   UNL d   1       9.607  -0.217   3.186  0.00  0.00    -0.267 OA
ATOM      6  H   UNL d   1       6.663  -1.415   3.326  0.00  0.00     0.171 HD
BRANCH   4   7
ATOM      7  C   UNL d   1       9.162  -2.485   2.963  0.00  0.00     0.065 A 
ATOM      8  C   UNL d   1      10.546  -2.751   3.207  0.00  0.00     0.020 A 
ATOM      9  C   UNL d   1      11.105  -4.044   3.155  0.00  0.00     0.001 A 
ATOM     10  C   UNL d   1      10.292  -5.123   2.854  0.00  0.00     0.003 A 
ATOM     11  C   UNL d   1       8.956  -4.883   2.517  0.00  0.00     0.038 A 
ATOM     12  C   UNL d   1       8.395  -3.578   2.555  0.00  0.00     0.084 A 
BRANCH  12  13
ATOM     13  O   UNL d   1       7.058  -3.524   2.302  0.00  0.00    -0.350 OA
BRANCH  13  14
ATOM     14  C   UNL d   1       6.649  -2.658   1.244  0.00  0.00     0.175 C 
BRANCH  14  15
ATOM     15  C   UNL d   1       5.149  -2.493   1.454  0.00  0.00     0.027 C 
BRANCH  15  16
ATOM     16  C   UNL d   1       4.595  -1.401   0.561  0.00  0.00     0.002 C 
BRANCH  16  17
ATOM     17  C   UNL d   1       3.088  -1.286   0.730  0.00  0.00    -0.000 C 
BRANCH  17  18
ATOM     18  C   UNL d   1       2.553  -0.165  -0.150  0.00  0.00    -0.005 C 
ATOM     19  C   UNL d   1       1.044  -0.065  -0.025  0.00  0.00     0.005 C 
ENDBRANCH  17  18
ENDBRANCH  16  17
ENDBRANCH  15  16
ENDBRANCH  14  15
ENDBRANCH  13  14
ENDBRANCH  12  13
ENDBRANCH   4   7
ENDBRANCH   1   3
BRANCH   1  20
ATOM     20  N   UNL d   1       5.251   0.795   2.749  0.00  0.00    -0.273 N 
ATOM     21  H   UNL d   1       4.629  -0.008   2.692  0.00  0.00     0.189 HD
BRANCH  20  22
ATOM     22  N   UNL d   1       4.565   2.203   2.103  0.00  0.00    -0.266 N 
ATOM     23  C   UNL d   1       3.080   2.451   1.920  0.00  0.00     0.264 C 
ATOM     24  O   UNL d   1       2.328   1.554   2.219  0.00  0.00    -0.270 OA
ATOM     25  H   UNL d   1       5.227   2.956   2.263  0.00  0.00     0.190 HD
BRANCH  23  26
ATOM     26  C   UNL d   1       2.508   4.094   1.364  0.00  0.00     0.379 C 
BRANCH  26  27
ATOM     27  N   UNL d   1       0.870   4.671   1.060  0.00  0.00     0.129 NA
ATOM     28  C   UNL d   1       0.311   4.654   2.346  0.00  0.00     0.286 C 
ATOM     29  C   UNL d   1      -0.828   4.117   1.826  0.00  0.00     0.021 C 
ATOM     30  C   UNL d   1      -1.287   5.295   1.268  0.00  0.00    -0.014 A 
ATOM     31  C   UNL d   1      -2.676   5.726   1.501  0.00  0.00     0.010 A 
ATOM     32  C   UNL d   1       0.026   6.015   0.572  0.00  0.00     0.249 A 
ATOM     33  C   UNL d   1      -3.282   6.899   1.177  0.00  0.00     0.000 A 
ATOM     34  C   UNL d   1      -2.398   7.703   0.553  0.00  0.00    -0.001 A 
ATOM     35  C   UNL d   1      -0.963   7.230   0.267  0.00  0.00     0.023 A 
ENDBRANCH  26  27
ENDBRANCH  23  26
ENDBRANCH  20  22
ENDBRANCH   1  20
TORSDOF 12
