REMARK  7 active torsions:
REMARK  status: ('A' for Active; 'I' for Inactive)
REMARK    1  A    between atoms: C_2  and  N_5 
REMARK       I    between atoms: N_5  and  C_6 
REMARK    2  A    between atoms: C_6  and  C_8 
REMARK    3  A    between atoms: C_8  and  C_9 
REMARK    4  A    between atoms: C_8  and  N_19 
REMARK    5  A    between atoms: C_11  and  N_12 
REMARK       I    between atoms: N_19  and  C_20 
REMARK    6  A    between atoms: N_19  and  C_29 
REMARK    7  A    between atoms: C_20  and  C_22 
ROOT
ATOM      1  C   UNL d   1       4.933  -1.795   2.601  0.00  0.00     0.220 C 
ENDROOT
BRANCH   1   2
ATOM      2  C   UNL d   1       4.245  -1.351   1.274  0.00  0.00     0.246 C 
ATOM      3  N   UNL d   1       2.933  -0.863   1.271  0.00  0.00    -0.351 N 
ATOM      4  H   UNL d   1       2.363  -0.858   2.106  0.00  0.00     0.163 HD
ATOM      5  O   UNL d   1       4.799  -1.685   0.237  0.00  0.00    -0.271 OA
BRANCH   3   6
ATOM      6  C   UNL d   1       2.333  -0.213   0.077  0.00  0.00     0.022 C 
ATOM      7  C   UNL d   1       0.812  -0.241   0.084  0.00  0.00     0.037 C 
ATOM      8  C   UNL d   1       2.835  -0.815  -1.252  0.00  0.00     0.037 C 
ATOM      9  C   UNL d   1       2.641   1.262   0.204  0.00  0.00     0.037 C 
ENDBRANCH   3   6
ENDBRANCH   1   2
BRANCH   1  10
ATOM     10  C   UNL d   1       4.523  -3.283   2.576  0.00  0.00    -0.002 C 
ATOM     11  C   UNL d   1       3.130  -3.546   2.668  0.00  0.00     0.047 C 
ATOM     12  C   UNL d   1       2.628  -4.834   2.550  0.00  0.00     0.103 C 
ATOM     13  C   UNL d   1       3.503  -5.910   2.587  0.00  0.00     0.038 C 
ATOM     14  C   UNL d   1       4.872  -5.670   2.531  0.00  0.00     0.027 C 
ATOM     15  C   UNL d   1       5.358  -4.383   2.319  0.00  0.00     0.043 C 
ATOM     16 CL   UNL d   1       6.979  -4.317   1.722  0.00  0.00    -0.084 Cl
BRANCH  12  17
ATOM     17  N   UNL d   1       1.191  -5.049   2.357  0.00  0.00    -0.116 N 
ATOM     18  O   UNL d   1       0.470  -4.032   2.254  0.00  0.00    -0.532 OA
ATOM     19  O   UNL d   1       0.786  -6.206   2.291  0.00  0.00    -0.532 OA
ENDBRANCH  12  17
ENDBRANCH   1  10
BRANCH   1  20
ATOM     20  N   UNL d   1       6.419  -1.470   2.776  0.00  0.00    -0.296 N 
ATOM     21  C   UNL d   1       7.256  -0.923   1.705  0.00  0.00     0.259 C 
ATOM     22  O   UNL d   1       8.481  -1.092   1.640  0.00  0.00    -0.267 OA
BRANCH  21  23
ATOM     23  C   UNL d   1       6.764  -0.048   0.581  0.00  0.00     0.032 C 
ATOM     24  C   UNL d   1       5.975   1.069   0.830  0.00  0.00     0.018 C 
ATOM     25  C   UNL d   1       5.498   1.858  -0.244  0.00  0.00     0.025 C 
ATOM     26  C   UNL d   1       5.626   1.422  -1.559  0.00  0.00     0.034 C 
ATOM     27 CL   UNL d   1       4.602   2.071  -2.791  0.00  0.00    -0.084 Cl
ATOM     28  C   UNL d   1       6.467   0.358  -1.833  0.00  0.00     0.025 C 
ATOM     29  C   UNL d   1       7.091  -0.329  -0.769  0.00  0.00     0.018 C 
ENDBRANCH  21  23
BRANCH  20  30
ATOM     30  C   UNL d   1       7.143  -2.078   3.952  0.00  0.00     0.038 C 
ATOM     31  C   UNL d   1       8.423  -1.633   4.304  0.00  0.00     0.030 C 
ATOM     32  C   UNL d   1       9.297  -2.410   5.089  0.00  0.00     0.002 C 
ATOM     33  C   UNL d   1       8.911  -3.657   5.561  0.00  0.00     0.000 C 
ATOM     34  C   UNL d   1       7.614  -4.073   5.329  0.00  0.00     0.002 C 
ATOM     35  C   UNL d   1       6.713  -3.225   4.656  0.00  0.00     0.030 C 
ENDBRANCH  20  30
ENDBRANCH   1  20
TORSDOF 7
