@<TRIPOS>MOLECULE
*****
 45 46 0 0 0
SMALL
GASTEIGER

@<TRIPOS>ATOM
      1 C           1.0626    0.1981   -0.0606 C.3     1  UNL1       -0.0190
      2 C           2.5884    0.0583    0.0505 C.3     1  UNL1        0.1741
      3 O           3.0700   -1.1642    0.6455 O.3     1  UNL1       -0.4798
      4 C           2.6667   -1.5604    1.8992 C.ar    1  UNL1        0.1216
      5 C           3.6083   -2.2180    2.6990 C.ar    1  UNL1       -0.0199
      6 C           3.2229   -2.8356    3.9045 C.ar    1  UNL1       -0.0583
      7 C           1.9164   -2.7230    4.3756 C.ar    1  UNL1       -0.0615
      8 C           0.9825   -2.0539    3.6080 C.ar    1  UNL1       -0.0583
      9 C           1.3521   -1.5356    2.3657 C.ar    1  UNL1       -0.0199
     10 C           3.1293    0.2061   -1.4167 C.2     1  UNL1        0.2695
     11 O           2.3811    0.3394   -2.3934 O.2     1  UNL1       -0.2702
     12 N           4.5008    0.2505   -1.5928 N.am    1  UNL1       -0.2311
     13 N           5.0107    0.4172   -2.9160 N.am    1  UNL1       -0.2303
     14 C           6.3770    0.3619   -3.1391 C.2     1  UNL1        0.2602
     15 O           7.1923    0.1986   -2.2266 O.2     1  UNL1       -0.2687
     16 C           6.8637    0.5316   -4.5445 C.ar    1  UNL1        0.0399
     17 C           7.9632   -0.1968   -4.9990 C.ar    1  UNL1       -0.0495
     18 C           8.5061    0.0849   -6.2497 C.ar    1  UNL1       -0.0593
     19 C           7.9247    1.0609   -7.0671 C.ar    1  UNL1       -0.0406
     20 C           6.8242    1.8331   -6.6548 C.ar    1  UNL1        0.0299
     21 N           6.2880    2.8404   -7.4455 N.pl3   1  UNL1       -0.3360
     22 C           6.8223    3.2028   -8.7624 C.3     1  UNL1        0.0004
     23 C           5.1968    3.7034   -6.9911 C.3     1  UNL1        0.0004
     24 C           6.3150    1.5255   -5.3717 C.ar    1  UNL1       -0.0285
     25 H           0.5973    0.4088    0.9028 H       1  UNL1        0.0270
     26 H           0.6193   -0.7086   -0.4924 H       1  UNL1        0.0270
     27 H           0.7651    1.0568   -0.6679 H       1  UNL1        0.0270
     28 H           2.9818    0.9018    0.6314 H       1  UNL1        0.0829
     29 H           4.6461   -2.2927    2.3831 H       1  UNL1        0.0654
     30 H           3.9361   -3.4326    4.4675 H       1  UNL1        0.0619
     31 H           1.6122   -3.1813    5.3124 H       1  UNL1        0.0618
     32 H          -0.0555   -1.9810    3.9233 H       1  UNL1        0.0619
     33 H           0.5188   -1.2042    1.7737 H       1  UNL1        0.0654
     34 H           5.1803    0.1065   -0.8485 H       1  UNL1        0.1729
     35 H           4.3153    0.4594   -3.6622 H       1  UNL1        0.1731
     36 H           8.4081   -0.9746   -4.3854 H       1  UNL1        0.0625
     37 H           9.3980   -0.4320   -6.5984 H       1  UNL1        0.0618
     38 H           8.3874    1.1911   -8.0399 H       1  UNL1        0.0636
     39 H           7.6594    2.6019   -9.1191 H       1  UNL1        0.0428
     40 H           7.1719    4.2418   -8.7573 H       1  UNL1        0.0428
     41 H           6.0354    3.1095   -9.5189 H       1  UNL1        0.0428
     42 H           4.8008    3.4837   -6.0005 H       1  UNL1        0.0428
     43 H           4.3508    3.6229   -7.6806 H       1  UNL1        0.0428
     44 H           5.5288    4.7466   -6.9583 H       1  UNL1        0.0428
     45 H           5.4944    2.0882   -4.9501 H       1  UNL1        0.0643
@<TRIPOS>BOND
     1     1     2    1
     2     2     3    1
     3     3     4    1
     4     4     5   ar
     5     5     6   ar
     6     6     7   ar
     7     7     8   ar
     8     8     9   ar
     9     4     9   ar
    10     2    10    1
    11    10    11    2
    12    10    12   am
    13    12    13    1
    14    13    14   am
    15    14    15    2
    16    14    16    1
    17    16    17   ar
    18    17    18   ar
    19    18    19   ar
    20    19    20   ar
    21    20    21    1
    22    21    22    1
    23    21    23    1
    24    20    24   ar
    25    16    24   ar
    26     1    25    1
    27     1    26    1
    28     1    27    1
    29     2    28    1
    30     5    29    1
    31     6    30    1
    32     7    31    1
    33     8    32    1
    34     9    33    1
    35    12    34    1
    36    13    35    1
    37    17    36    1
    38    18    37    1
    39    19    38    1
    40    22    39    1
    41    22    40    1
    42    22    41    1
    43    23    42    1
    44    23    43    1
    45    23    44    1
    46    24    45    1
