@<TRIPOS>MOLECULE
*****
 43 44 0 0 0
SMALL
GASTEIGER

@<TRIPOS>ATOM
      1 C           0.9826   -0.0564   -0.2532 C.3     1  UNL1        0.0789
      2 O           2.3619    0.0848   -0.5952 O.3     1  UNL1       -0.4933
      3 C           3.0201   -1.0992   -0.7278 C.ar    1  UNL1        0.1412
      4 C           2.7635   -1.7525   -1.9280 C.ar    1  UNL1       -0.0179
      5 C           3.4853   -2.8723   -2.2923 C.ar    1  UNL1       -0.0553
      6 C           4.4933   -3.3590   -1.4588 C.ar    1  UNL1       -0.0485
      7 C           5.2359   -4.5911   -1.8998 C.3     1  UNL1       -0.0396
      8 C           4.7686   -2.6877   -0.2406 C.ar    1  UNL1       -0.0340
      9 C           4.0276   -1.5379    0.1482 C.ar    1  UNL1        0.0759
     10 N           4.3458   -0.8970    1.3908 N.am    1  UNL1       -0.2810
     11 C           3.7638    0.2547    1.9220 C.2     1  UNL1        0.2374
     12 O           2.8386    0.9291    1.4565 O.2     1  UNL1       -0.2734
     13 C           4.3056    0.7780    3.2526 C.3     1  UNL1        0.0972
     14 C           5.7978    0.8978    3.0964 C.3     1  UNL1       -0.0381
     15 N           3.6108    2.0981    3.4823 N.am    1  UNL1       -0.3003
     16 C           3.6245    2.9141    4.5925 C.2     1  UNL1        0.2447
     17 O           2.5773    3.2845    5.1214 O.2     1  UNL1       -0.2702
     18 C           4.9316    3.4390    5.0789 C.ar    1  UNL1        0.0368
     19 C           5.1003    3.9496    6.3627 C.ar    1  UNL1       -0.0483
     20 C           6.3827    4.3354    6.7892 C.ar    1  UNL1       -0.0427
     21 C           7.4958    4.1140    5.9744 C.ar    1  UNL1        0.0410
     22 CL          9.0786    4.5244    6.4987 Cl      1  UNL1       -0.0835
     23 C           7.3206    3.6446    4.6881 C.ar    1  UNL1       -0.0427
     24 C           6.0234    3.4901    4.2154 C.ar    1  UNL1       -0.0483
     25 H           0.6726    0.8534    0.2744 H       1  UNL1        0.0660
     26 H           0.7744   -0.9092    0.4052 H       1  UNL1        0.0660
     27 H           0.4001   -0.1174   -1.1729 H       1  UNL1        0.0660
     28 H           2.0160   -1.3388   -2.5960 H       1  UNL1        0.0655
     29 H           3.2595   -3.3407   -3.2460 H       1  UNL1        0.0621
     30 H           4.8680   -4.9414   -2.8745 H       1  UNL1        0.0278
     31 H           5.0785   -5.4062   -1.1882 H       1  UNL1        0.0278
     32 H           6.3048   -4.3916   -2.0135 H       1  UNL1        0.0278
     33 H           5.5771   -3.0765    0.3796 H       1  UNL1        0.0640
     34 H           5.1068   -1.3257    1.9065 H       1  UNL1        0.1550
     35 H           4.0125    0.0997    4.0597 H       1  UNL1        0.0592
     36 H           6.0107    1.6292    2.3071 H       1  UNL1        0.0252
     37 H           6.3191   -0.0064    2.7925 H       1  UNL1        0.0252
     38 H           6.2256    1.1619    4.0587 H       1  UNL1        0.0252
     39 H           2.7009    2.1131    3.0140 H       1  UNL1        0.1498
     40 H           4.2400    4.0887    7.0134 H       1  UNL1        0.0625
     41 H           6.5096    4.8093    7.7570 H       1  UNL1        0.0632
     42 H           8.1606    3.4222    4.0354 H       1  UNL1        0.0632
     43 H           5.8724    3.3435    3.1549 H       1  UNL1        0.0625
@<TRIPOS>BOND
     1     1     2    1
     2     2     3    1
     3     3     4   ar
     4     4     5   ar
     5     5     6   ar
     6     6     7    1
     7     6     8   ar
     8     8     9   ar
     9     3     9   ar
    10     9    10    1
    11    10    11   am
    12    11    12    2
    13    11    13    1
    14    13    14    1
    15    13    15    1
    16    15    16   am
    17    16    17    2
    18    16    18    1
    19    18    19   ar
    20    19    20   ar
    21    20    21   ar
    22    21    22    1
    23    21    23   ar
    24    23    24   ar
    25    18    24   ar
    26     1    25    1
    27     1    26    1
    28     1    27    1
    29     4    28    1
    30     5    29    1
    31     7    30    1
    32     7    31    1
    33     7    32    1
    34     8    33    1
    35    10    34    1
    36    13    35    1
    37    14    36    1
    38    14    37    1
    39    14    38    1
    40    15    39    1
    41    19    40    1
    42    20    41    1
    43    23    42    1
    44    24    43    1
