REMARK  7 active torsions:
REMARK  status: ('A' for Active; 'I' for Inactive)
REMARK    1  A    between atoms: C_2  and  C_4 
REMARK    2  A    between atoms: C_4  and  C_5 
REMARK    3  A    between atoms: C_5  and  C_6 
REMARK       I    between atoms: C_6  and  N_8 
REMARK    4  A    between atoms: N_8  and  N_9 
REMARK       I    between atoms: N_9  and  C_10 
REMARK    5  A    between atoms: C_10  and  C_12 
REMARK    6  A    between atoms: C_13  and  C_14 
REMARK    7  A    between atoms: C_19  and  N_20 
ROOT
ATOM      1  N   UNL d   1       7.095   4.020  -2.042  0.00  0.00    -0.264 N 
ATOM      2  C   UNL d   1       8.467   4.187  -2.124  0.00  0.00     0.259 C 
ATOM      3  O   UNL d   1       9.265   3.344  -1.712  0.00  0.00    -0.267 OA
ATOM      4  H   UNL d   1       6.406   4.692  -2.374  0.00  0.00     0.190 HD
ENDROOT
BRANCH   2   5
ATOM      5  C   UNL d   1       8.929   5.476  -2.754  0.00  0.00     0.076 C 
ATOM      6  C   UNL d   1      10.243   5.754  -2.906  0.00  0.00     0.017 C 
BRANCH   6   7
ATOM      7  C   UNL d   1      10.817   6.982  -3.514  0.00  0.00    -0.034 A 
ATOM      8  C   UNL d   1      10.313   8.254  -3.228  0.00  0.00     0.013 A 
ATOM      9  C   UNL d   1      10.899   9.404  -3.778  0.00  0.00     0.027 A 
ATOM     10  C   UNL d   1      12.014   9.326  -4.625  0.00  0.00     0.067 A 
ATOM     11 CL   UNL d   1      12.582  10.846  -5.226  0.00  0.00    -0.082 Cl
ATOM     12  C   UNL d   1      12.555   8.066  -4.904  0.00  0.00     0.125 A 
ATOM     13  C   UNL d   1      11.954   6.903  -4.344  0.00  0.00     0.049 A 
BRANCH  12  14
ATOM     14  N   UNL d   1      13.747   7.883  -5.756  0.00  0.00    -0.114 N 
ATOM     15  O   UNL d   1      14.144   6.722  -5.932  0.00  0.00    -0.532 OA
ATOM     16  O   UNL d   1      14.301   8.869  -6.254  0.00  0.00    -0.532 OA
ENDBRANCH  12  14
ENDBRANCH   6   7
ENDBRANCH   2   5
BRANCH   1  17
ATOM     17  N   UNL d   1       6.556   2.835  -1.452  0.00  0.00    -0.267 N 
ATOM     18  C   UNL d   1       5.177   2.688  -1.375  0.00  0.00     0.236 C 
ATOM     19  O   UNL d   1       4.411   3.553  -1.800  0.00  0.00    -0.272 OA
ATOM     20  H   UNL d   1       7.226   2.139  -1.126  0.00  0.00     0.190 HD
BRANCH  18  21
ATOM     21  C   UNL d   1       4.690   1.381  -0.743  0.00  0.00     0.105 C 
BRANCH  21  22
ATOM     22  C   UNL d   1       3.150   1.283  -0.708  0.00  0.00     0.013 C 
BRANCH  22  23
ATOM     23  C   UNL d   1       2.608  -0.024  -0.091  0.00  0.00    -0.022 C 
ATOM     24  C   UNL d   1       1.074  -0.011  -0.068  0.00  0.00     0.009 C 
ATOM     25  C   UNL d   1       3.084  -1.252  -0.866  0.00  0.00     0.009 C 
ENDBRANCH  22  23
ENDBRANCH  21  22
ENDBRANCH  18  21
ENDBRANCH   1  17
TORSDOF 7
