REMARK  7 active torsions:
REMARK  status: ('A' for Active; 'I' for Inactive)
REMARK    1  A    between atoms: C_2  and  C_3 
REMARK    2  A    between atoms: C_7  and  C_8 
REMARK       I    between atoms: C_8  and  N_9 
REMARK    3  A    between atoms: N_15  and  C_16 
REMARK    4  A    between atoms: C_16  and  C_17 
REMARK       I    between atoms: C_17  and  N_19 
REMARK    5  A    between atoms: N_19  and  C_20 
REMARK    6  A    between atoms: C_24  and  O_25 
REMARK    7  A    between atoms: O_25  and  C_26 
ROOT
ATOM      1  C   UNL d   1       0.949   0.158   0.033  0.00  0.00     0.054 C 
ATOM      2  C   UNL d   1       2.475   0.150  -0.026  0.00  0.00     0.140 C 
ATOM      3  N   UNL d   1       3.121   1.094   0.842  0.00  0.00    -0.321 N 
ATOM      4  C   UNL d   1       4.305   0.551   1.315  0.00  0.00     0.326 C 
ATOM      5  O   UNL d   1       5.273   1.220   1.644  0.00  0.00    -0.247 OA
ATOM      6  N   UNL d   1       4.165  -0.810   1.330  0.00  0.00    -0.259 N 
ATOM      7  C   UNL d   1       3.034  -1.107   0.606  0.00  0.00     0.261 C 
ATOM      8  O   UNL d   1       2.482  -2.173   0.344  0.00  0.00    -0.270 OA
ATOM      9  H   UNL d   1       2.935   2.087   0.845  0.00  0.00     0.165 HD
ENDROOT
BRANCH   6  10
ATOM     10  C   UNL d   1       5.056  -1.708   2.113  0.00  0.00     0.240 C 
BRANCH  10  11
ATOM     11  C   UNL d   1       4.606  -3.175   2.211  0.00  0.00     0.240 C 
ATOM     12  O   UNL d   1       3.526  -3.541   1.754  0.00  0.00    -0.271 OA
ATOM     13  N   UNL d   1       5.349  -4.114   2.904  0.00  0.00    -0.326 N 
ATOM     14  H   UNL d   1       6.012  -3.838   3.614  0.00  0.00     0.169 HD
BRANCH  13  15
ATOM     15  C   UNL d   1       4.899  -5.473   2.874  0.00  0.00     0.037 A 
ATOM     16  C   UNL d   1       4.896  -6.283   4.000  0.00  0.00     0.029 A 
ATOM     17  C   UNL d   1       4.510  -7.630   3.885  0.00  0.00     0.005 A 
ATOM     18  C   UNL d   1       4.088  -8.160   2.655  0.00  0.00     0.037 A 
ATOM     19  C   UNL d   1       4.059  -7.346   1.528  0.00  0.00     0.078 A 
ATOM     20  C   UNL d   1       4.441  -6.014   1.665  0.00  0.00     0.066 A 
BRANCH  19  21
ATOM     21  O   UNL d   1       3.640  -7.901   0.335  0.00  0.00    -0.311 OA
BRANCH  21  22
ATOM     22  C   UNL d   1       3.810  -7.178  -0.832  0.00  0.00     0.076 A 
ATOM     23  C   UNL d   1       2.700  -7.025  -1.662  0.00  0.00     0.037 A 
ATOM     24  C   UNL d   1       2.828  -6.342  -2.874  0.00  0.00     0.003 A 
ATOM     25  C   UNL d   1       4.039  -5.739  -3.217  0.00  0.00     0.000 A 
ATOM     26  C   UNL d   1       5.148  -5.881  -2.387  0.00  0.00     0.003 A 
ATOM     27  C   UNL d   1       5.046  -6.640  -1.220  0.00  0.00     0.037 A 
ENDBRANCH  21  22
ENDBRANCH  19  21
ENDBRANCH  13  15
ENDBRANCH  10  11
ENDBRANCH   6  10
BRANCH   2  28
ATOM     28  C   UNL d   1       2.926   0.242  -1.487  0.00  0.00    -0.020 A 
ATOM     29  C   UNL d   1       3.634   1.353  -1.957  0.00  0.00     0.010 A 
ATOM     30  C   UNL d   1       3.871   1.509  -3.317  0.00  0.00     0.002 A 
ATOM     31  C   UNL d   1       3.487   0.518  -4.220  0.00  0.00     0.017 A 
ATOM     32  C   UNL d   1       2.819  -0.627  -3.780  0.00  0.00     0.032 A 
ATOM     33  C   UNL d   1       2.551  -0.762  -2.413  0.00  0.00     0.027 A 
BRANCH  32  34
ATOM     34  C   UNL d   1       2.318  -1.676  -4.719  0.00  0.00     0.249 C 
ATOM     35  N   UNL d   1       2.559  -1.513  -6.055  0.00  0.00    -0.366 N 
ATOM     36  H   UNL d   1       3.038  -0.731  -6.467  0.00  0.00     0.159 HD
ATOM     37  H   UNL d   1       2.184  -2.215  -6.679  0.00  0.00     0.159 HD
ATOM     38  O   UNL d   1       1.685  -2.651  -4.329  0.00  0.00    -0.268 OA
ENDBRANCH  32  34
ENDBRANCH   2  28
TORSDOF 7
