@<TRIPOS>MOLECULE
*****
 43 46 0 0 0
SMALL
GASTEIGER

@<TRIPOS>ATOM
      1 C           1.0831   -0.0465    0.0940 C.3     1  UNL1       -0.0544
      2 C           2.6245   -0.0281    0.0301 C.3     1  UNL1        0.0303
      3 C           3.1126   -1.4538   -0.1959 C.3     1  UNL1       -0.0544
      4 C           3.0733    0.9358   -1.0857 C.2     1  UNL1        0.2198
      5 O           2.2174    1.5323   -1.7412 O.2     1  UNL1       -0.2752
      6 N           4.4464    1.0812   -1.3006 N.am    1  UNL1       -0.2853
      7 C           4.9475    1.9645   -2.3112 C.ar    1  UNL1        0.0334
      8 C           5.9877    1.6101   -3.1829 C.ar    1  UNL1       -0.0397
      9 C           6.3818    2.4684   -4.2557 C.ar    1  UNL1       -0.0450
     10 C           5.7137    3.6633   -4.5171 C.ar    1  UNL1        0.0698
     11 C           5.9359    4.5135   -5.8040 C.2     1  UNL1        0.3646
     12 N           5.7154    5.7818   -5.6265 N.2     1  UNL1       -0.0367
     13 C           5.8584    6.6348   -6.7292 C.ar    1  UNL1        0.1882
     14 C           5.8909    8.0188   -6.5283 C.ar    1  UNL1       -0.0101
     15 C           6.0799    8.8821   -7.6094 C.ar    1  UNL1       -0.0571
     16 C           6.1792    8.3479   -8.8881 C.ar    1  UNL1       -0.0536
     17 C           6.0218    6.9731   -9.1016 C.ar    1  UNL1       -0.0097
     18 C           5.9044    6.4162  -10.3626 C.ar    1  UNL1       -0.0536
     19 C           5.5191    5.0939  -10.4646 C.ar    1  UNL1       -0.0572
     20 C           6.1534    4.2830   -9.5265 C.ar    1  UNL1       -0.0121
     21 C           6.1358    4.6939   -8.1578 C.ar    1  UNL1        0.1784
     22 C           5.9711    6.0863   -7.9928 C.ar    1  UNL1        0.0814
     23 N           6.2925    3.9084   -7.0077 N.pl3   1  UNL1       -0.0063
     24 C           4.7894    4.0805   -3.5264 C.ar    1  UNL1       -0.0450
     25 C           4.4018    3.2372   -2.4575 C.ar    1  UNL1       -0.0397
     26 H           0.7127   -0.7101    0.8825 H       1  UNL1        0.0237
     27 H           0.6570   -0.3915   -0.8571 H       1  UNL1        0.0237
     28 H           0.6823    0.9559    0.2834 H       1  UNL1        0.0237
     29 H           3.0006    0.3475    0.9897 H       1  UNL1        0.0389
     30 H           2.7597   -1.8368   -1.1596 H       1  UNL1        0.0237
     31 H           2.7388   -2.1243    0.5879 H       1  UNL1        0.0237
     32 H           4.2036   -1.5101   -0.1896 H       1  UNL1        0.0237
     33 H           5.0903    0.4181   -0.8905 H       1  UNL1        0.1548
     34 H           6.4419    0.6253   -3.1378 H       1  UNL1        0.0636
     35 H           7.2105    2.1999   -4.9033 H       1  UNL1        0.0627
     36 H           5.8327    8.4087   -5.5186 H       1  UNL1        0.0661
     37 H           6.1488    9.9521   -7.4509 H       1  UNL1        0.0619
     38 H           6.3719    9.0056   -9.7325 H       1  UNL1        0.0624
     39 H           6.1406    6.9897  -11.2512 H       1  UNL1        0.0624
     40 H           4.4248    4.9763  -10.2240 H       1  UNL1        0.0619
     41 H           6.7142    3.5038  -10.0491 H       1  UNL1        0.0659
     42 H           4.3181    5.0596   -3.5815 H       1  UNL1        0.0627
     43 H           3.6458    3.5779   -1.7518 H       1  UNL1        0.0636
@<TRIPOS>UNITY_ATOM_ATTR
23 1
charge -1
@<TRIPOS>BOND
     1     1     2    1
     2     2     3    1
     3     2     4    1
     4     4     5    2
     5     4     6   am
     6     6     7    1
     7     7     8   ar
     8     8     9   ar
     9     9    10   ar
    10    10    11    1
    11    11    12    2
    12    12    13    1
    13    13    14   ar
    14    14    15   ar
    15    15    16   ar
    16    16    17   ar
    17    17    18   ar
    18    18    19   ar
    19    19    20   ar
    20    20    21   ar
    21    21    22   ar
    22    13    22   ar
    23    17    22   ar
    24    21    23    1
    25    11    23    1
    26    10    24   ar
    27    24    25   ar
    28     7    25   ar
    29     1    26    1
    30     1    27    1
    31     1    28    1
    32     2    29    1
    33     3    30    1
    34     3    31    1
    35     3    32    1
    36     6    33    1
    37     8    34    1
    38     9    35    1
    39    14    36    1
    40    15    37    1
    41    16    38    1
    42    18    39    1
    43    19    40    1
    44    20    41    1
    45    24    42    1
    46    25    43    1
