@<TRIPOS>MOLECULE
*****
 51 52 0 0 0
SMALL
GASTEIGER

@<TRIPOS>ATOM
      1 C           1.0634   -0.2024   -0.0073 C.3     1  UNL1       -0.0542
      2 C           2.6038   -0.3000    0.0197 C.3     1  UNL1        0.0300
      3 C           3.0683    0.4813    1.2582 C.3     1  UNL1       -0.0542
      4 C           3.1371   -1.7508   -0.0234 C.ar    1  UNL1        0.2017
      5 N           4.3783   -2.2230   -0.1573 N.ar    1  UNL1       -0.2004
      6 C           4.2210   -3.6140   -0.1472 C.ar    1  UNL1        0.2020
      7 C           5.2594   -4.5981   -0.2481 C.1     1  UNL1        0.1245
      8 N           5.9852   -5.5121   -0.3172 N.1     1  UNL1       -0.1891
      9 C           2.8878   -3.9394   -0.0201 C.ar    1  UNL1        0.2406
     10 N           2.2192   -5.1179    0.0389 N.pl3   1  UNL1       -0.2319
     11 N           0.8253   -5.2401    0.1696 N.am    1  UNL1       -0.2342
     12 C           0.2786   -6.5181    0.2150 C.2     1  UNL1        0.2291
     13 O           0.9755   -7.5299    0.1425 O.2     1  UNL1       -0.2743
     14 C          -1.2472   -6.5715    0.3608 C.3     1  UNL1        0.0268
     15 C          -1.7774   -8.0247    0.4035 C.3     1  UNL1       -0.0290
     16 C          -3.3043   -8.1145    0.5493 C.3     1  UNL1        0.0152
     17 N          -3.8295   -9.4792    0.5908 N.am    1  UNL1       -0.2811
     18 C          -5.1821   -9.7275    0.7192 C.2     1  UNL1        0.4006
     19 O          -6.0276   -8.8470    0.8045 O.2     1  UNL1       -0.2265
     20 O          -5.4660  -11.0626    0.7359 O.3     1  UNL1       -0.4456
     21 C          -6.8801  -11.3850    0.8640 C.3     1  UNL1        0.1191
     22 C          -7.1010  -12.8896    0.8998 C.ar    1  UNL1       -0.0103
     23 C          -8.0626  -13.4704    1.7471 C.ar    1  UNL1       -0.0554
     24 C          -8.1571  -14.8626    1.8702 C.ar    1  UNL1       -0.0614
     25 C          -7.3876  -15.6897    1.0560 C.ar    1  UNL1       -0.0617
     26 C          -6.4880  -15.1257    0.1553 C.ar    1  UNL1       -0.0614
     27 C          -6.3485  -13.7372    0.0769 C.ar    1  UNL1       -0.0554
     28 O           2.1907   -2.7586    0.0558 O.2     1  UNL1       -0.4233
     29 H           0.7256    0.8446    0.0199 H       1  UNL1        0.0237
     30 H           0.6176   -0.6953    0.8645 H       1  UNL1        0.0237
     31 H           0.6407   -0.6495   -0.9114 H       1  UNL1        0.0237
     32 H           2.9724    0.2392   -0.8653 H       1  UNL1        0.0390
     33 H           2.7031    0.0144    2.1791 H       1  UNL1        0.0237
     34 H           2.6756    1.5107    1.2501 H       1  UNL1        0.0237
     35 H           4.1572    0.5552    1.3089 H       1  UNL1        0.0237
     36 H           2.7082   -6.0233   -0.0143 H       1  UNL1        0.1731
     37 H           0.2986   -4.3753    0.2255 H       1  UNL1        0.1728
     38 H          -1.6979   -6.0383   -0.4847 H       1  UNL1        0.0359
     39 H          -1.5287   -6.0481    1.2823 H       1  UNL1        0.0359
     40 H          -1.3019   -8.5561    1.2374 H       1  UNL1        0.0285
     41 H          -1.4693   -8.5464   -0.5111 H       1  UNL1        0.0285
     42 H          -3.7899   -7.6014   -0.2886 H       1  UNL1        0.0463
     43 H          -3.6217   -7.6119    1.4701 H       1  UNL1        0.0463
     44 H          -3.2060  -10.2742    0.5320 H       1  UNL1        0.1520
     45 H          -7.4400  -10.9701    0.0167 H       1  UNL1        0.0749
     46 H          -7.2574  -10.9528    1.7995 H       1  UNL1        0.0749
     47 H          -8.7378  -12.8509    2.3344 H       1  UNL1        0.0621
     48 H          -8.8162  -15.3053    2.6141 H       1  UNL1        0.0618
     49 H          -7.4920  -16.7701    1.1195 H       1  UNL1        0.0618
     50 H          -5.8716  -15.7663   -0.4694 H       1  UNL1        0.0618
     51 H          -5.6337  -13.3140   -0.6239 H       1  UNL1        0.0621
@<TRIPOS>BOND
     1     1     2    1
     2     2     3    1
     3     2     4    1
     4     4     5   ar
     5     5     6   ar
     6     6     7    1
     7     7     8    3
     8     6     9   ar
     9     9    10    1
    10    10    11    1
    11    11    12   am
    12    12    13    2
    13    12    14    1
    14    14    15    1
    15    15    16    1
    16    16    17    1
    17    17    18   am
    18    18    19    2
    19    18    20    1
    20    20    21    1
    21    21    22    1
    22    22    23   ar
    23    23    24   ar
    24    24    25   ar
    25    25    26   ar
    26    26    27   ar
    27    22    27   ar
    28     9    28   ar
    29     4    28   ar
    30     1    29    1
    31     1    30    1
    32     1    31    1
    33     2    32    1
    34     3    33    1
    35     3    34    1
    36     3    35    1
    37    10    36    1
    38    11    37    1
    39    14    38    1
    40    14    39    1
    41    15    40    1
    42    15    41    1
    43    16    42    1
    44    16    43    1
    45    17    44    1
    46    21    45    1
    47    21    46    1
    48    23    47    1
    49    24    48    1
    50    25    49    1
    51    26    50    1
    52    27    51    1
