@<TRIPOS>MOLECULE
*****
 46 48 0 0 0
SMALL
GASTEIGER

@<TRIPOS>ATOM
      1 C           2.4997   -0.0226   -0.0127 C.3     1  UNL1       -0.0397
      2 C           1.0020   -0.0258    0.0029 C.ar    1  UNL1       -0.0504
      3 C           0.2538   -1.2081    0.0042 C.ar    1  UNL1       -0.0586
      4 C          -1.1531   -1.1705   -0.0019 C.ar    1  UNL1       -0.0575
      5 C          -1.8425    0.0552   -0.0099 C.ar    1  UNL1       -0.0371
      6 C          -3.3775    0.0899   -0.0398 C.3     1  UNL1        0.0254
      7 S          -4.0341    1.7931   -0.0508 S.3     1  UNL1       -0.0923
      8 C          -5.7606    1.7222   -0.0957 C.ar    1  UNL1        0.1596
      9 N          -6.4832    0.6295   -0.1114 N.ar    1  UNL1       -0.1339
     10 N          -7.8416    0.9289   -0.1562 N.ar    1  UNL1       -0.1339
     11 C          -8.0899    2.2280   -0.1741 C.ar    1  UNL1        0.1597
     12 S          -9.7434    2.8034   -0.2439 S.3     1  UNL1       -0.0876
     13 C          -9.7324    4.6439   -0.2652 C.3     1  UNL1        0.0784
     14 C         -11.1888    5.1800   -0.3364 C.2     1  UNL1        0.2424
     15 O         -12.1647    4.4208   -0.3735 O.2     1  UNL1       -0.2732
     16 N         -11.3431    6.5776   -0.3573 N.am    1  UNL1       -0.2063
     17 N         -12.6328    7.0824   -0.4153 N.2     1  UNL1       -0.1877
     18 C         -12.8392    8.3644   -0.4370 C.2     1  UNL1        0.0528
     19 C         -14.2319    8.9292   -0.4919 C.ar    1  UNL1       -0.0052
     20 C         -14.4595   10.3162   -0.5227 C.ar    1  UNL1       -0.0497
     21 C         -15.7737   10.8271   -0.5567 C.ar    1  UNL1       -0.0196
     22 C         -16.8548    9.9502   -0.5597 C.ar    1  UNL1        0.1169
     23 O         -18.1481   10.3841   -0.5798 O.3     1  UNL1       -0.5068
     24 C         -16.6412    8.5776   -0.5390 C.ar    1  UNL1       -0.0196
     25 C         -15.3361    8.0680   -0.5049 C.ar    1  UNL1       -0.0497
     26 S          -6.6787    3.1844   -0.1254 S.2     1  UNL1       -0.0330
     27 C          -1.0611    1.2256    0.0023 C.ar    1  UNL1       -0.0575
     28 C           0.3302    1.1913    0.0064 C.ar    1  UNL1       -0.0586
     29 H           2.9060   -1.0373    0.0005 H       1  UNL1        0.0278
     30 H           2.8827    0.5111    0.8639 H       1  UNL1        0.0278
     31 H           2.8604    0.4787   -0.9177 H       1  UNL1        0.0278
     32 H           0.7635   -2.1698    0.0054 H       1  UNL1        0.0620
     33 H          -1.6952   -2.1148   -0.0043 H       1  UNL1        0.0621
     34 H          -3.7544   -0.4421    0.8415 H       1  UNL1        0.0429
     35 H          -3.7164   -0.4380   -0.9391 H       1  UNL1        0.0429
     36 H          -9.1784    4.9962   -1.1408 H       1  UNL1        0.0476
     37 H          -9.2589    5.0150    0.6490 H       1  UNL1        0.0476
     38 H         -10.5597    7.2195   -0.3253 H       1  UNL1        0.1772
     39 H         -12.0090    9.0917   -0.4129 H       1  UNL1        0.0851
     40 H         -13.6312   11.0196   -0.5190 H       1  UNL1        0.0625
     41 H         -15.9355   11.9020   -0.5791 H       1  UNL1        0.0654
     42 H         -18.1741   11.3545   -0.5740 H       1  UNL1        0.2921
     43 H         -17.4904    7.8988   -0.5461 H       1  UNL1        0.0654
     44 H         -15.1923    6.9899   -0.4847 H       1  UNL1        0.0625
     45 H          -1.5075    2.2145    0.0042 H       1  UNL1        0.0621
     46 H           0.8770    2.1313    0.0071 H       1  UNL1        0.0620
@<TRIPOS>BOND
     1     1     2    1
     2     2     3   ar
     3     3     4   ar
     4     4     5   ar
     5     5     6    1
     6     6     7    1
     7     7     8    1
     8     8     9   ar
     9     9    10   ar
    10    10    11   ar
    11    11    12    1
    12    12    13    1
    13    13    14    1
    14    14    15    2
    15    14    16   am
    16    16    17    1
    17    17    18    2
    18    18    19    1
    19    19    20   ar
    20    20    21   ar
    21    21    22   ar
    22    22    23    1
    23    22    24   ar
    24    24    25   ar
    25    19    25   ar
    26    11    26   ar
    27     8    26   ar
    28     5    27   ar
    29    27    28   ar
    30     2    28   ar
    31     1    29    1
    32     1    30    1
    33     1    31    1
    34     3    32    1
    35     4    33    1
    36     6    34    1
    37     6    35    1
    38    13    36    1
    39    13    37    1
    40    16    38    1
    41    18    39    1
    42    20    40    1
    43    21    41    1
    44    23    42    1
    45    24    43    1
    46    25    44    1
    47    27    45    1
    48    28    46    1
