@<TRIPOS>MOLECULE
*****
 47 49 0 0 0
SMALL
GASTEIGER

@<TRIPOS>ATOM
      1 C           3.1155    0.3868    1.4450 C.3     1  UNL1       -0.0411
      2 C           2.6137    0.0465    0.0416 C.3     1  UNL1        0.0827
      3 N           1.1207    0.0899    0.0423 N.3     1  UNL1       -0.2993
      4 C           0.4779   -1.2303    0.2124 C.3     1  UNL1        0.0313
      5 C           0.9407   -1.9435    1.5041 C.3     1  UNL1       -0.0455
      6 C          -1.0292   -1.2473    0.1902 C.ar    1  UNL1       -0.0230
      7 C          -1.7428   -0.0989    0.5394 C.ar    1  UNL1       -0.0565
      8 C          -3.1197   -0.1347    0.5998 C.ar    1  UNL1       -0.0609
      9 C          -3.7931   -1.3163    0.3016 C.ar    1  UNL1       -0.0540
     10 C          -3.1070   -2.4743   -0.1040 C.ar    1  UNL1       -0.0176
     11 C          -3.8067   -3.6412   -0.4550 C.ar    1  UNL1       -0.0540
     12 C          -3.1398   -4.7978   -0.8650 C.ar    1  UNL1       -0.0612
     13 C          -1.7568   -4.8102   -0.9314 C.ar    1  UNL1       -0.0612
     14 C          -1.0502   -3.6618   -0.5834 C.ar    1  UNL1       -0.0537
     15 C          -1.7024   -2.4631   -0.1651 C.ar    1  UNL1       -0.0132
     16 C           3.2091   -1.3094   -0.4547 C.2     1  UNL1        0.2340
     17 O           2.5519   -2.3483   -0.5635 O.2     1  UNL1       -0.2738
     18 N           4.5607   -1.4270   -0.6870 N.am    1  UNL1       -0.2831
     19 C           5.0073   -2.6814   -1.2122 C.ar    1  UNL1        0.0509
     20 C           6.0744   -3.3464   -0.5940 C.ar    1  UNL1       -0.0392
     21 C           6.5215   -4.5720   -1.1071 C.ar    1  UNL1       -0.0599
     22 C           5.9298   -5.1235   -2.2446 C.ar    1  UNL1       -0.0604
     23 C           4.8498   -4.4873   -2.8457 C.ar    1  UNL1       -0.0425
     24 C           4.3650   -3.2860   -2.3288 C.ar    1  UNL1        0.0729
     25 C           3.2161   -2.7123   -2.9986 C.1     1  UNL1        0.1010
     26 N           2.2808   -2.2651   -3.5122 N.1     1  UNL1       -0.1908
     27 H           4.2051    0.4068    1.4743 H       1  UNL1        0.0249
     28 H           2.8039   -0.3448    2.1928 H       1  UNL1        0.0249
     29 H           2.7301    1.3538    1.7857 H       1  UNL1        0.0249
     30 H           2.9411    0.8388   -0.6451 H       1  UNL1        0.0554
     31 H           0.8071    0.6950    0.7949 H       1  UNL1        0.1232
     32 H           0.6729   -1.7490   -0.7252 H       1  UNL1        0.0508
     33 H           0.6409   -1.3713    2.3867 H       1  UNL1        0.0248
     34 H           2.0221   -2.0773    1.5790 H       1  UNL1        0.0248
     35 H           0.5516   -2.9595    1.5922 H       1  UNL1        0.0248
     36 H          -1.2297    0.8300    0.7595 H       1  UNL1        0.0621
     37 H          -3.6582    0.7639    0.8783 H       1  UNL1        0.0618
     38 H          -4.8753   -1.3226    0.3802 H       1  UNL1        0.0624
     39 H          -4.8925   -3.6487   -0.4228 H       1  UNL1        0.0624
     40 H          -3.7027   -5.6849   -1.1369 H       1  UNL1        0.0618
     41 H          -1.2209   -5.6974   -1.2586 H       1  UNL1        0.0618
     42 H           0.0362   -3.7199   -0.6589 H       1  UNL1        0.0624
     43 H           5.1926   -0.8470   -0.1532 H       1  UNL1        0.1549
     44 H           6.5291   -2.9665    0.3181 H       1  UNL1        0.0636
     45 H           7.3378   -5.1062   -0.6243 H       1  UNL1        0.0618
     46 H           6.3001   -6.0536   -2.6676 H       1  UNL1        0.0618
     47 H           4.3827   -4.9191   -3.7281 H       1  UNL1        0.0631
@<TRIPOS>BOND
     1     3     4    1
     2     4     5    1
     3     4     6    1
     4     6     7   ar
     5     7     8   ar
     6     8     9   ar
     7     9    10   ar
     8    10    11   ar
     9    11    12   ar
    10    12    13   ar
    11    13    14   ar
    12    14    15   ar
    13     6    15   ar
    14    10    15   ar
    15     2    16    1
    16    16    17    2
    17    16    18   am
    18    18    19    1
    19    19    20   ar
    20    20    21   ar
    21    21    22   ar
    22    22    23   ar
    23    23    24   ar
    24    19    24   ar
    25    24    25    1
    26    25    26    3
    27     2     3    1
    28     2     1    1
    29     1    27    1
    30     1    28    1
    31     1    29    1
    32     2    30    1
    33     3    31    1
    34     4    32    1
    35     5    33    1
    36     5    34    1
    37     5    35    1
    38     7    36    1
    39     8    37    1
    40     9    38    1
    41    11    39    1
    42    12    40    1
    43    13    41    1
    44    14    42    1
    45    18    43    1
    46    20    44    1
    47    21    45    1
    48    22    46    1
    49    23    47    1
