REMARK  13 active torsions:
REMARK  status: ('A' for Active; 'I' for Inactive)
REMARK    1  A    between atoms: C_2  and  O_3 
REMARK    2  A    between atoms: O_3  and  C_4 
REMARK    3  A    between atoms: C_6  and  C_7 
REMARK    4  A    between atoms: N_8  and  N_9 
REMARK       I    between atoms: N_9  and  C_10 
REMARK    5  A    between atoms: C_10  and  C_12 
REMARK    6  A    between atoms: C_12  and  O_13 
REMARK    7  A    between atoms: O_13  and  C_14 
REMARK    8  A    between atoms: C_17  and  O_18 
REMARK    9  A    between atoms: O_18  and  C_19 
REMARK   10  A    between atoms: C_19  and  C_20 
REMARK   11  A    between atoms: C_30  and  O_31 
REMARK   12  A    between atoms: O_31  and  C_32 
REMARK   13  A    between atoms: C_32  and  C_34 
ROOT
ATOM      1  C   UNL d   1       6.758  -2.946   3.188  0.00  0.00     0.150 C 
ATOM      2  N   UNL d   1       7.976  -2.896   3.642  0.00  0.00    -0.184 NA
ENDROOT
BRANCH   2   3
ATOM      3  N   UNL d   1       8.449  -3.895   4.477  0.00  0.00    -0.246 N 
ATOM      4  C   UNL d   1       9.767  -3.788   4.958  0.00  0.00     0.261 C 
ATOM      5  O   UNL d   1      10.511  -2.851   4.657  0.00  0.00    -0.269 OA
ATOM      6  H   UNL d   1       7.835  -4.655   4.742  0.00  0.00     0.192 HD
BRANCH   4   7
ATOM      7  C   UNL d   1      10.250  -4.938   5.885  0.00  0.00     0.280 C 
BRANCH   7   8
ATOM      8  O   UNL d   1      11.558  -4.636   6.389  0.00  0.00    -0.342 OA
BRANCH   8   9
ATOM      9  C   UNL d   1      12.275  -5.584   7.063  0.00  0.00     0.069 A 
ATOM     10  C   UNL d   1      13.225  -5.090   7.966  0.00  0.00     0.039 A 
ATOM     11  C   UNL d   1      14.136  -5.950   8.595  0.00  0.00     0.039 A 
ATOM     12  C   UNL d   1      14.065  -7.327   8.383  0.00  0.00     0.069 A 
ATOM     13  C   UNL d   1      13.109  -7.822   7.497  0.00  0.00     0.039 A 
ATOM     14  C   UNL d   1      12.220  -6.956   6.838  0.00  0.00     0.039 A 
BRANCH  12  15
ATOM     15  O   UNL d   1      14.966  -8.083   9.079  0.00  0.00    -0.347 OA
BRANCH  15  16
ATOM     16  C   UNL d   1      14.837  -9.508   8.993  0.00  0.00     0.214 C 
BRANCH  16  17
ATOM     17  C   UNL d   1      15.764 -10.202   9.969  0.00  0.00    -0.034 A 
ATOM     18  C   UNL d   1      15.742 -11.602  10.079  0.00  0.00     0.009 A 
ATOM     19  C   UNL d   1      16.452 -12.241  11.098  0.00  0.00     0.001 A 
ATOM     20  C   UNL d   1      17.263 -11.500  11.956  0.00  0.00     0.000 A 
ATOM     21  C   UNL d   1      17.340 -10.118  11.817  0.00  0.00     0.001 A 
ATOM     22  C   UNL d   1      16.592  -9.473  10.834  0.00  0.00     0.009 A 
ENDBRANCH  16  17
ENDBRANCH  15  16
ENDBRANCH  12  15
ENDBRANCH   8   9
ENDBRANCH   7   8
ENDBRANCH   4   7
ENDBRANCH   2   3
BRANCH   1  23
ATOM     23  C   UNL d   1       6.201  -1.840   2.328  0.00  0.00    -0.014 A 
ATOM     24  C   UNL d   1       4.869  -1.852   1.873  0.00  0.00     0.052 A 
ATOM     25  C   UNL d   1       4.300  -0.741   1.190  0.00  0.00     0.103 A 
ATOM     26  C   UNL d   1       5.083   0.411   0.999  0.00  0.00     0.112 A 
ATOM     27  C   UNL d   1       6.434   0.397   1.397  0.00  0.00     0.041 A 
ATOM     28  C   UNL d   1       6.992  -0.729   2.030  0.00  0.00     0.016 A 
BRANCH  25  29
ATOM     29  O   UNL d   1       2.969  -0.908   0.894  0.00  0.00    -0.349 OA
BRANCH  29  30
ATOM     30  C   UNL d   1       2.433  -0.416  -0.336  0.00  0.00     0.171 C 
ATOM     31  C   UNL d   1       0.935  -0.167  -0.166  0.00  0.00     0.034 C 
ENDBRANCH  29  30
ENDBRANCH  25  29
BRANCH  26  32
ATOM     32  O   UNL d   1       4.640   1.600   0.351  0.00  0.00    -0.272 OA
BRANCH  32  33
ATOM     33  C   UNL d   1       3.413   2.110   0.738  0.00  0.00     0.298 C 
ATOM     34  O   UNL d   1       2.782   1.765   1.743  0.00  0.00    -0.259 OA
BRANCH  33  35
ATOM     35  C   UNL d   1       2.786   3.037  -0.260  0.00  0.00     0.039 C 
ATOM     36  C   UNL d   1       1.464   3.415   0.036  0.00  0.00     0.017 C 
ATOM     37  C   UNL d   1       0.798   4.380  -0.708  0.00  0.00     0.001 C 
ATOM     38  C   UNL d   1       1.462   5.005  -1.753  0.00  0.00     0.000 C 
ATOM     39  C   UNL d   1       2.723   4.546  -2.150  0.00  0.00     0.001 C 
ATOM     40  C   UNL d   1       3.377   3.529  -1.430  0.00  0.00     0.017 C 
ENDBRANCH  33  35
ENDBRANCH  32  33
ENDBRANCH  26  32
ENDBRANCH   1  23
TORSDOF 13
