REMARK  6 active torsions:
REMARK  status: ('A' for Active; 'I' for Inactive)
REMARK    1  A    between atoms: N_4  and  C_5 
REMARK    2  A    between atoms: C_7  and  N_8 
REMARK    3  A    between atoms: N_11  and  C_12 
REMARK    4  A    between atoms: C_12  and  C_13 
REMARK    5  A    between atoms: C_22  and  N_23 
REMARK    6  A    between atoms: C_24  and  N_25 
ROOT
ATOM      1  C   UNL d   1       1.769   1.468  -3.305  0.00  0.00     0.182 A 
ATOM      2  N   UNL d   1       0.527   0.995  -3.644  0.00  0.00    -0.042 NA
ATOM      3  C   UNL d   1      -0.290   1.752  -4.399  0.00  0.00     0.728 A 
ATOM      4  N   UNL d   1       0.047   2.970  -4.821  0.00  0.00    -0.043 NA
ATOM      5  C   UNL d   1       1.253   3.466  -4.470  0.00  0.00     0.177 A 
ATOM      6  C   UNL d   1       2.178   2.720  -3.742  0.00  0.00     0.195 A 
ENDROOT
BRANCH   3   7
ATOM      7  N   UNL d   1      -1.512   1.262  -4.793  0.00  0.00    -0.211 N 
ATOM      8  C   UNL d   1      -1.865   1.222  -6.213  0.00  0.00     0.169 C 
ATOM      9  C   UNL d   1      -2.308  -0.219  -6.600  0.00  0.00     0.255 C 
ATOM     10  N   UNL d   1      -3.422  -0.710  -5.670  0.00  0.00    -0.064 N 
ATOM     11  C   UNL d   1      -2.853  -0.705  -4.240  0.00  0.00     0.255 C 
ATOM     12  H   UNL d   1      -3.640  -1.687  -5.906  0.00  0.00     0.280 HD
ATOM     13  C   UNL d   1      -2.472   0.738  -3.830  0.00  0.00     0.169 C 
BRANCH  10  14
ATOM     14  C   UNL d   1      -4.711   0.069  -5.889  0.00  0.00     0.273 C 
BRANCH  14  15
ATOM     15  C   UNL d   1      -5.874  -0.364  -5.046  0.00  0.00    -0.033 C 
ATOM     16  C   UNL d   1      -7.080  -0.754  -5.631  0.00  0.00     0.009 C 
ATOM     17  C   UNL d   1      -8.183  -1.026  -4.818  0.00  0.00     0.001 C 
ATOM     18  C   UNL d   1      -8.056  -1.050  -3.428  0.00  0.00     0.000 C 
ATOM     19  C   UNL d   1      -6.858  -0.697  -2.838  0.00  0.00     0.001 C 
ATOM     20  C   UNL d   1      -5.817  -0.276  -3.645  0.00  0.00     0.009 C 
ENDBRANCH  14  15
ENDBRANCH  10  14
ENDBRANCH   3   7
BRANCH   1  21
ATOM     21  N   UNL d   1       2.527   0.667  -2.478  0.00  0.00    -0.358 N 
ATOM     22  C   UNL d   1       2.895   1.064  -1.109  0.00  0.00     0.156 C 
ATOM     23  C   UNL d   1       2.388   0.022  -0.092  0.00  0.00     0.136 C 
ATOM     24  C   UNL d   1       0.897   0.166   0.219  0.00  0.00     0.041 C 
ATOM     25  O   UNL d   1       2.758  -1.321  -0.467  0.00  0.00    -0.378 OA
ATOM     26  C   UNL d   1       2.455  -1.691  -1.828  0.00  0.00     0.136 C 
ATOM     27  C   UNL d   1       2.986  -0.672  -2.854  0.00  0.00     0.156 C 
ATOM     28  C   UNL d   1       0.958  -1.868  -2.022  0.00  0.00     0.041 C 
ENDBRANCH   1  21
BRANCH   5  29
ATOM     29  N   UNL d   1       1.431   4.782  -4.829  0.00  0.00    -0.381 N 
ATOM     30  H   UNL d   1       0.710   5.253  -5.354  0.00  0.00     0.157 HD
ATOM     31  H   UNL d   1       2.341   5.227  -4.715  0.00  0.00     0.157 HD
ENDBRANCH   5  29
BRANCH   6  32
ATOM     32  N   UNL d   1       3.542   3.226  -3.558  0.00  0.00    -0.108 N 
ATOM     33  O   UNL d   1       4.407   2.485  -3.056  0.00  0.00    -0.532 OA
ATOM     34  O   UNL d   1       3.804   4.370  -3.940  0.00  0.00    -0.532 OA
ENDBRANCH   6  32
TORSDOF 6
