REMARK  13 active torsions:
REMARK  status: ('A' for Active; 'I' for Inactive)
REMARK    1  A    between atoms: O_2  and  C_3 
REMARK    2  A    between atoms: C_3  and  C_4 
REMARK    3  A    between atoms: C_4  and  O_5 
REMARK    4  A    between atoms: O_5  and  C_6 
REMARK    5  A    between atoms: C_12  and  C_13 
REMARK       I    between atoms: C_13  and  N_15 
REMARK    6  A    between atoms: N_15  and  C_16 
REMARK    7  A    between atoms: C_16  and  N_18 
REMARK    8  A    between atoms: N_18  and  C_19 
REMARK    9  A    between atoms: C_24  and  C_25 
REMARK       I    between atoms: C_25  and  N_27 
REMARK   10  A    between atoms: N_27  and  C_28 
REMARK   11  A    between atoms: C_28  and  C_29 
REMARK   12  A    between atoms: C_29  and  C_30 
REMARK   13  A    between atoms: C_30  and  O_31 
ROOT
ATOM      1  C   UNL d   1       3.711   0.092   5.735  0.00  0.00     0.179 C 
ATOM      2  S   UNL d   1       4.296  -0.716   7.094  0.00  0.00    -0.040 SA
ENDROOT
BRANCH   1   3
ATOM      3  N   UNL d   1       4.529   0.590   4.682  0.00  0.00    -0.299 N 
ATOM      4  C   UNL d   1       5.948   0.644   4.673  0.00  0.00     0.260 C 
ATOM      5  O   UNL d   1       6.652   0.291   5.620  0.00  0.00    -0.267 OA
ATOM      6  H   UNL d   1       4.081   1.088   3.921  0.00  0.00     0.171 HD
BRANCH   4   7
ATOM      7  C   UNL d   1       6.714   1.276   3.550  0.00  0.00     0.067 A 
ATOM      8  C   UNL d   1       8.102   1.488   3.755  0.00  0.00     0.039 A 
ATOM      9  C   UNL d   1       8.918   1.983   2.741  0.00  0.00     0.012 A 
ATOM     10  C   UNL d   1       8.383   2.212   1.484  0.00  0.00     0.022 A 
ATOM     11 BR   UNL d   1      10.739   2.364   3.080  0.00  0.00    -0.051 Br
ATOM     12  C   UNL d   1       7.008   2.046   1.280  0.00  0.00     0.039 A 
ATOM     13  C   UNL d   1       6.165   1.620   2.320  0.00  0.00     0.084 A 
BRANCH  13  14
ATOM     14  O   UNL d   1       4.804   1.620   2.191  0.00  0.00    -0.348 OA
BRANCH  14  15
ATOM     15  C   UNL d   1       4.356   0.839   1.084  0.00  0.00     0.201 C 
BRANCH  15  16
ATOM     16  C   UNL d   1       2.836   0.846   1.113  0.00  0.00     0.193 C 
BRANCH  16  17
ATOM     17  O   UNL d   1       2.338   0.061   0.039  0.00  0.00    -0.394 OA
ATOM     18  C   UNL d   1       0.917   0.060   0.026  0.00  0.00     0.201 C 
ENDBRANCH  16  17
ENDBRANCH  15  16
ENDBRANCH  14  15
ENDBRANCH  13  14
ENDBRANCH   4   7
ENDBRANCH   1   3
BRANCH   1  19
ATOM     19  N   UNL d   1       2.335   0.435   5.579  0.00  0.00    -0.332 N 
ATOM     20  H   UNL d   1       1.935   0.370   4.649  0.00  0.00     0.168 HD
BRANCH  19  21
ATOM     21  C   UNL d   1       1.371   0.314   6.655  0.00  0.00     0.050 A 
ATOM     22  C   UNL d   1       0.290  -0.588   6.510  0.00  0.00     0.030 A 
ATOM     23  C   UNL d   1      -0.661  -0.759   7.534  0.00  0.00     0.002 A 
ATOM     24  C   UNL d   1      -0.526  -0.069   8.732  0.00  0.00     0.001 A 
ATOM     25  C   UNL d   1       0.524   0.839   8.883  0.00  0.00     0.019 A 
ATOM     26  C   UNL d   1       1.466   1.067   7.852  0.00  0.00     0.058 A 
BRANCH  26  27
ATOM     27  C   UNL d   1       2.498   2.129   8.128  0.00  0.00     0.253 C 
ATOM     28  O   UNL d   1       2.662   2.547   9.282  0.00  0.00    -0.268 OA
ATOM     29  N   UNL d   1       3.240   2.619   7.073  0.00  0.00    -0.357 N 
ATOM     30  H   UNL d   1       3.064   2.213   6.166  0.00  0.00     0.162 HD
BRANCH  29  31
ATOM     31  C   UNL d   1       4.503   3.307   7.294  0.00  0.00     0.125 C 
BRANCH  31  32
ATOM     32  C   UNL d   1       5.375   3.345   6.055  0.00  0.00     0.046 C 
BRANCH  32  33
ATOM     33  C   UNL d   1       6.631   4.176   6.186  0.00  0.00     0.165 C 
BRANCH  33  34
ATOM     34  O   UNL d   1       7.323   4.186   4.944  0.00  0.00    -0.401 OA
ATOM     35  H   UNL d   1       7.906   3.410   4.963  0.00  0.00     0.209 HD
ENDBRANCH  33  34
ENDBRANCH  32  33
ENDBRANCH  31  32
ENDBRANCH  29  31
ENDBRANCH  26  27
ENDBRANCH  19  21
ENDBRANCH   1  19
TORSDOF 13
