@<TRIPOS>MOLECULE
*****
 53 56 0 0 0
SMALL
GASTEIGER

@<TRIPOS>ATOM
      1 O           1.0000   -0.1044    0.2118 O.2     1  UNL1       -0.2739
      2 C           2.2244   -0.0691    0.0842 C.2     1  UNL1        0.2333
      3 C           2.9660    0.7360   -0.9701 C.3     1  UNL1        0.0505
      4 C           2.0385    1.4747   -1.9022 C.ar    1  UNL1       -0.0386
      5 C           2.1431    2.8609   -2.0591 C.ar    1  UNL1       -0.0581
      6 C           1.1803    3.5534   -2.7924 C.ar    1  UNL1       -0.0615
      7 C           0.1607    2.8600   -3.4438 C.ar    1  UNL1       -0.0617
      8 C           0.0778    1.4751   -3.3336 C.ar    1  UNL1       -0.0615
      9 C           1.0159    0.7854   -2.5722 C.ar    1  UNL1       -0.0581
     10 N           2.9686   -0.8291    0.9365 N.am    1  UNL1       -0.2361
     11 N           4.3476   -0.7713    1.0768 N.pl3   1  UNL1       -0.2609
     12 C           4.9838   -1.5916    1.9809 C.2     1  UNL1        0.0935
     13 C           4.5737   -2.8431    2.1760 C.2     1  UNL1       -0.0084
     14 C           5.0767   -3.7797    3.2008 C.2     1  UNL1        0.0914
     15 N           4.6147   -4.9800    3.3820 N.2     1  UNL1       -0.1288
     16 S           3.4124   -5.5118    2.4072 S.O2    1  UNL1        0.0992
     17 O           2.2109   -4.7565    2.6878 O.2     1  UNL1       -0.1463
     18 O           3.9386   -5.5609    1.0495 O.2     1  UNL1       -0.1463
     19 C           3.1027   -7.1780    2.8873 C.ar    1  UNL1        0.1125
     20 C           2.7282   -7.4615    4.2005 C.ar    1  UNL1       -0.0348
     21 C           2.6597   -8.7936    4.6019 C.ar    1  UNL1       -0.0599
     22 C           2.8726   -9.8186    3.6751 C.ar    1  UNL1       -0.0616
     23 C           3.1812   -9.5207    2.3482 C.ar    1  UNL1       -0.0599
     24 C           3.2993   -8.1957    1.9505 C.ar    1  UNL1       -0.0348
     25 C           6.1712   -3.2179    4.0577 C.2     1  UNL1       -0.0095
     26 C           6.6285   -1.9615    3.8634 C.2     1  UNL1        0.0104
     27 C           7.7315   -1.3576    4.6858 C.3     1  UNL1       -0.0054
     28 C           8.5199   -2.3768    5.4521 C.2     1  UNL1       -0.0832
     29 C           8.0798   -3.6283    5.6513 C.2     1  UNL1       -0.0832
     30 C           6.7548   -4.1175    5.1230 C.3     1  UNL1       -0.0070
     31 C           6.0981   -1.0665    2.8008 C.2     1  UNL1        0.2049
     32 O           6.5398    0.0675    2.6180 O.2     1  UNL1       -0.2856
     33 H           3.6051    0.0661   -1.5564 H       1  UNL1        0.0407
     34 H           3.6119    1.4510   -0.4452 H       1  UNL1        0.0407
     35 H           2.9525    3.4137   -1.5884 H       1  UNL1        0.0620
     36 H           1.2107    4.6384   -2.8360 H       1  UNL1        0.0618
     37 H          -0.5745    3.3999   -4.0326 H       1  UNL1        0.0618
     38 H          -0.7351    0.9319   -3.8066 H       1  UNL1        0.0618
     39 H           0.9083   -0.2914   -2.4509 H       1  UNL1        0.0620
     40 H           2.4337   -1.2950    1.6682 H       1  UNL1        0.1727
     41 H           4.9253   -0.1193    0.5465 H       1  UNL1        0.1701
     42 H           3.7861   -3.1795    1.5168 H       1  UNL1        0.0659
     43 H           2.5065   -6.6629    4.9046 H       1  UNL1        0.0637
     44 H           2.4590   -9.0390    5.6415 H       1  UNL1        0.0618
     45 H           2.7952  -10.8566    3.9876 H       1  UNL1        0.0618
     46 H           3.3566  -10.3164    1.6295 H       1  UNL1        0.0618
     47 H           3.5600   -7.9635    0.9198 H       1  UNL1        0.0637
     48 H           7.3003   -0.6363    5.3910 H       1  UNL1        0.0357
     49 H           8.4279   -0.8203    4.0331 H       1  UNL1        0.0357
     50 H           9.4807   -2.0572    5.8462 H       1  UNL1        0.0572
     51 H           8.6897   -4.3291    6.2154 H       1  UNL1        0.0572
     52 H           6.0508   -4.1942    5.9613 H       1  UNL1        0.0356
     53 H           6.9069   -5.1251    4.7211 H       1  UNL1        0.0356
@<TRIPOS>BOND
     1     1     2    2
     2     2     3    1
     3     3     4    1
     4     4     5   ar
     5     5     6   ar
     6     6     7   ar
     7     7     8   ar
     8     8     9   ar
     9     4     9   ar
    10     2    10   am
    11    10    11    1
    12    11    12    1
    13    12    13    2
    14    13    14    1
    15    14    15    2
    16    15    16    1
    17    16    17    2
    18    16    18    2
    19    16    19    1
    20    19    20   ar
    21    20    21   ar
    22    21    22   ar
    23    22    23   ar
    24    23    24   ar
    25    19    24   ar
    26    14    25    1
    27    25    26    2
    28    26    27    1
    29    27    28    1
    30    28    29    2
    31    29    30    1
    32    25    30    1
    33    26    31    1
    34    12    31    1
    35    31    32    2
    36     3    33    1
    37     3    34    1
    38     5    35    1
    39     6    36    1
    40     7    37    1
    41     8    38    1
    42     9    39    1
    43    10    40    1
    44    11    41    1
    45    13    42    1
    46    20    43    1
    47    21    44    1
    48    22    45    1
    49    23    46    1
    50    24    47    1
    51    27    48    1
    52    27    49    1
    53    28    50    1
    54    29    51    1
    55    30    52    1
    56    30    53    1
