REMARK  8 active torsions:
REMARK  status: ('A' for Active; 'I' for Inactive)
REMARK    1  A    between atoms: C_2  and  C_3 
REMARK    2  A    between atoms: C_2  and  C_27 
REMARK    3  A    between atoms: N_4  and  N_5 
REMARK       I    between atoms: N_5  and  C_6 
REMARK    4  A    between atoms: C_6  and  C_8 
REMARK    5  A    between atoms: N_11  and  C_12 
REMARK    6  A    between atoms: C_16  and  N_17 
REMARK    7  A    between atoms: C_18  and  C_19 
REMARK    8  A    between atoms: C_19  and  N_20 
ROOT
ATOM      1  C   UNL d   1       3.247   0.451   6.419  0.00  0.00     0.170 C 
ATOM      2  N   UNL d   1       2.748   0.535   7.704  0.00  0.00    -0.152 NA
ATOM      3  N   UNL d   1       3.717   0.296   8.587  0.00  0.00     0.012 NA
ATOM      4  N   UNL d   1       4.903   0.246   7.952  0.00  0.00    -0.215 N 
ATOM      5  C   UNL d   1       4.675   0.495   6.586  0.00  0.00     0.096 C 
ENDROOT
BRANCH   1   6
ATOM      6  C   UNL d   1       2.254   0.585   5.175  0.00  0.00     0.293 C 
ATOM      7  N   UNL d   1       2.075  -0.531   4.092  0.00  0.00    -0.242 N 
ATOM      8  H   UNL d   1       2.569  -1.404   4.231  0.00  0.00     0.192 HD
ATOM      9  O   UNL d   1       1.716   1.737   5.072  0.00  0.00    -0.264 OA
BRANCH   7  10
ATOM     10  N   UNL d   1       1.608  -0.324   2.562  0.00  0.00    -0.188 NA
ATOM     11  C   UNL d   1       2.239  -0.803   1.464  0.00  0.00     0.120 C 
BRANCH  11  12
ATOM     12  C   UNL d   1       2.215  -0.120  -0.029  0.00  0.00     0.057 C 
ATOM     13  C   UNL d   1       0.749   0.135  -0.230  0.00  0.00     0.020 C 
BRANCH  12  14
ATOM     14  C   UNL d   1       2.857  -1.071  -1.042  0.00  0.00    -0.049 A 
ATOM     15  C   UNL d   1       2.435  -2.397  -0.941  0.00  0.00     0.008 A 
ATOM     16  C   UNL d   1       2.992  -3.401  -1.707  0.00  0.00     0.001 A 
ATOM     17  C   UNL d   1       3.924  -3.082  -2.683  0.00  0.00     0.000 A 
ATOM     18  C   UNL d   1       4.375  -1.767  -2.819  0.00  0.00     0.001 A 
ATOM     19  C   UNL d   1       3.865  -0.755  -1.984  0.00  0.00     0.008 A 
ENDBRANCH  12  14
ENDBRANCH  11  12
ENDBRANCH   7  10
ENDBRANCH   1   6
BRANCH   5  20
ATOM     20  C   UNL d   1       5.886   0.554   5.715  0.00  0.00     0.296 C 
BRANCH  20  21
ATOM     21  N   UNL d   1       5.631   1.039   4.353  0.00  0.00    -0.066 N 
ATOM     22  C   UNL d   1       5.078   2.461   4.305  0.00  0.00     0.235 C 
ATOM     23  C   UNL d   1       5.021   3.033   2.882  0.00  0.00     0.028 C 
ATOM     24  C   UNL d   1       3.668   2.959   2.236  0.00  0.00     0.002 C 
ATOM     25  C   UNL d   1       3.159   1.589   2.417  0.00  0.00     0.002 C 
ATOM     26  C   UNL d   1       4.248   0.434   2.527  0.00  0.00     0.028 C 
ATOM     27  C   UNL d   1       4.877  -0.018   3.778  0.00  0.00     0.235 C 
ATOM     28  H   UNL d   1       6.508   1.031   3.817  0.00  0.00     0.280 HD
ENDBRANCH  20  21
ENDBRANCH   5  20
BRANCH   4  29
ATOM     29  C   UNL d   1       6.173   0.003   8.573  0.00  0.00     0.225 A 
ATOM     30  N   UNL d   1       6.420  -1.173   9.155  0.00  0.00    -0.081 NA
ATOM     31  O   UNL d   1       7.804  -1.148   9.399  0.00  0.00    -0.103 OA
ATOM     32  N   UNL d   1       8.383   0.019   8.903  0.00  0.00    -0.083 NA
ATOM     33  C   UNL d   1       7.371   0.732   8.420  0.00  0.00     0.201 A 
BRANCH  33  34
ATOM     34  N   UNL d   1       7.497   1.932   7.813  0.00  0.00    -0.379 N 
ATOM     35  H   UNL d   1       8.388   2.421   7.892  0.00  0.00     0.158 HD
ATOM     36  H   UNL d   1       6.710   2.564   7.699  0.00  0.00     0.158 HD
ENDBRANCH  33  34
ENDBRANCH   4  29
TORSDOF 8
