@<TRIPOS>MOLECULE
*****
 67 69 0 0 0
SMALL
GASTEIGER

@<TRIPOS>ATOM
      1 C           4.6713   -7.3107    2.6833 C.1     1  UNL1       -0.1169
      2 C           4.7200   -6.4363    3.5168 C.1     1  UNL1       -0.0773
      3 C           4.7276   -5.4135    4.5543 C.3     1  UNL1        0.1081
      4 O           5.6643   -4.3746    4.2300 O.3     1  UNL1       -0.3646
      5 C           5.6274   -3.3769    5.2603 C.3     1  UNL1        0.0798
      6 C           6.1178   -2.0613    4.6807 C.3     1  UNL1        0.1180
      7 O           5.5126   -1.9286    3.3952 O.3     1  UNL1       -0.3842
      8 C           7.6490   -2.0565    4.6254 C.3     1  UNL1       -0.0024
      9 N           8.2230   -0.7483    4.1092 N.4     1  UNL1        0.2447
     10 C           7.7468   -0.4199    2.6946 C.3     1  UNL1        0.0278
     11 C           7.6560    1.0566    2.4389 C.ar    1  UNL1        0.1564
     12 N           7.8690    1.8685    3.4241 N.ar    1  UNL1       -0.2211
     13 C           7.9877    3.1596    3.0523 C.ar    1  UNL1        0.1166
     14 S           8.5895    4.3073    4.1291 S.2     1  UNL1       -0.0617
     15 C           8.3404    5.5841    3.0049 C.ar    1  UNL1        0.1018
     16 C           8.6106    6.9192    3.5076 C.2     1  UNL1        0.3465
     17 O           8.9557    7.1762    4.6544 O.2     1  UNL1       -0.2444
     18 O           8.4246    7.8551    2.5362 O.3     1  UNL1       -0.4581
     19 C           8.6675    9.2244    2.8986 C.3     1  UNL1        0.0978
     20 C          10.1399    9.4225    3.2354 C.3     1  UNL1       -0.0280
     21 C           8.3096   10.1147    1.7076 C.3     1  UNL1       -0.0280
     22 C           7.8890    5.1074    1.7753 C.ar    1  UNL1       -0.0149
     23 C           7.5538    5.9153    0.5664 C.3     1  UNL1       -0.0376
     24 C           7.7339    3.6798    1.8084 C.ar    1  UNL1        0.0756
     25 C           7.3226    2.7503    0.7720 C.ar    1  UNL1        0.2602
     26 O           6.9604    3.0628   -0.3541 O.2     1  UNL1       -0.2671
     27 N           7.3796    1.4317    1.1545 N.ar    1  UNL1       -0.3061
     28 C           9.7537   -0.7269    4.1748 C.3     1  UNL1       -0.0203
     29 C          10.2979    0.6375    3.7475 C.3     1  UNL1       -0.0096
     30 C          11.7972    0.7497    3.8348 C.3     1  UNL1       -0.0480
     31 C          12.2533    0.4227    5.2423 C.3     1  UNL1       -0.0527
     32 C          11.7534   -0.9514    5.6641 C.3     1  UNL1       -0.0480
     33 C          10.2368   -1.0498    5.5885 C.3     1  UNL1       -0.0096
     34 H           4.6178   -8.0875    1.9617 H       1  UNL1        0.1229
     35 H           5.0119   -5.8441    5.5198 H       1  UNL1        0.0697
     36 H           3.7266   -4.9739    4.6439 H       1  UNL1        0.0697
     37 H           6.2499   -3.7075    6.0965 H       1  UNL1        0.0588
     38 H           4.5990   -3.2219    5.5974 H       1  UNL1        0.0588
     39 H           5.7890   -1.2235    5.3048 H       1  UNL1        0.0670
     40 H           5.7960   -2.7068    2.8689 H       1  UNL1        0.2101
     41 H           8.0599   -2.8464    3.9898 H       1  UNL1        0.0841
     42 H           7.9993   -2.1803    5.6538 H       1  UNL1        0.0841
     43 H           7.8812    0.0333    4.7000 H       1  UNL1        0.2042
     44 H           8.3850   -0.9572    1.9890 H       1  UNL1        0.0897
     45 H           6.7348   -0.7213    2.5233 H       1  UNL1        0.0897
     46 H           8.0179    9.4867    3.7417 H       1  UNL1        0.0728
     47 H          10.7674    9.1300    2.3867 H       1  UNL1        0.0265
     48 H          10.4561    8.8009    4.0753 H       1  UNL1        0.0265
     49 H          10.3416   10.4614    3.5018 H       1  UNL1        0.0265
     50 H           8.9119    9.8601    0.8273 H       1  UNL1        0.0265
     51 H           8.4853   11.1689    1.9483 H       1  UNL1        0.0265
     52 H           7.2608    9.9955    1.4173 H       1  UNL1        0.0265
     53 H           7.6975    6.9816    0.7054 H       1  UNL1        0.0278
     54 H           6.4994    5.7756    0.3096 H       1  UNL1        0.0278
     55 H           8.1829    5.6183   -0.2766 H       1  UNL1        0.0278
     56 H           7.0673    0.7691    0.4562 H       1  UNL1        0.1702
     57 H          10.0937   -1.4993    3.4751 H       1  UNL1        0.0851
     58 H           9.8883    1.4068    4.4106 H       1  UNL1        0.0320
     59 H          10.0470    0.8536    2.7071 H       1  UNL1        0.0320
     60 H          12.0884    1.7706    3.5627 H       1  UNL1        0.0267
     61 H          12.2439    0.0670    3.1052 H       1  UNL1        0.0267
     62 H          11.8684    1.1799    5.9378 H       1  UNL1        0.0265
     63 H          13.3437    0.4548    5.2807 H       1  UNL1        0.0265
     64 H          12.0784   -1.1744    6.6832 H       1  UNL1        0.0267
     65 H          12.1834   -1.7127    5.0014 H       1  UNL1        0.0267
     66 H           9.7702   -0.3705    6.3141 H       1  UNL1        0.0320
     67 H           9.9726   -2.0724    5.8715 H       1  UNL1        0.0320
@<TRIPOS>UNITY_ATOM_ATTR
9 1
charge 1
@<TRIPOS>BOND
     1     1     2    3
     2     2     3    1
     3     3     4    1
     4     4     5    1
     5     6     8    1
     6    10    11    1
     7    11    12   ar
     8    12    13   ar
     9    13    14   ar
    10    14    15   ar
    11    15    16    1
    12    16    17    2
    13    16    18    1
    14    18    19    1
    15    19    20    1
    16    19    21    1
    17    15    22   ar
    18    22    23    1
    19    22    24   ar
    20    13    24   ar
    21    24    25   ar
    22    25    26    2
    23    25    27   ar
    24    11    27   ar
    25     9    28    1
    26    28    29    1
    27    29    30    1
    28    30    31    1
    29    31    32    1
    30    32    33    1
    31    28    33    1
    32     6     7    1
    33     6     5    1
    34     9    10    1
    35     9     8    1
    36     1    34    1
    37     3    35    1
    38     3    36    1
    39     5    37    1
    40     5    38    1
    41     6    39    1
    42     7    40    1
    43     8    41    1
    44     8    42    1
    45     9    43    1
    46    10    44    1
    47    10    45    1
    48    19    46    1
    49    20    47    1
    50    20    48    1
    51    20    49    1
    52    21    50    1
    53    21    51    1
    54    21    52    1
    55    23    53    1
    56    23    54    1
    57    23    55    1
    58    27    56    1
    59    28    57    1
    60    29    58    1
    61    29    59    1
    62    30    60    1
    63    30    61    1
    64    31    62    1
    65    31    63    1
    66    32    64    1
    67    32    65    1
    68    33    66    1
    69    33    67    1
