@<TRIPOS>MOLECULE
*****
 68 69 0 0 0
SMALL
GASTEIGER

@<TRIPOS>ATOM
      1 C           1.0517   -0.0249   -0.0831 C.3     1  UNL1       -0.0653
      2 C           2.5654   -0.0238   -0.0860 C.3     1  UNL1       -0.0559
      3 C           3.0911   -0.1087    1.3327 C.3     1  UNL1       -0.0533
      4 C           4.6118   -0.1078    1.3249 C.3     1  UNL1       -0.0516
      5 C           5.0813   -0.2231    2.7541 C.3     1  UNL1       -0.0371
      6 C           6.5915   -0.2488    2.8777 C.3     1  UNL1        0.0166
      7 N           7.0925   -0.2256    4.2547 N.am    1  UNL1       -0.2751
      8 C           6.1642   -0.3783    5.2998 C.2     1  UNL1        0.2923
      9 O           5.2280   -1.1677    5.2689 O.2     1  UNL1       -0.2604
     10 C           6.2069    0.4924    6.4523 C.1     1  UNL1       -0.0025
     11 C           6.2624    1.1588    7.4444 C.1     1  UNL1       -0.0566
     12 C           6.4841    1.9037    8.6483 C.ar    1  UNL1        0.0254
     13 C           6.4422    1.2455    9.8778 C.ar    1  UNL1       -0.0463
     14 C           6.6152    1.9654   11.0582 C.ar    1  UNL1       -0.0606
     15 C           6.8504    3.3388   11.0075 C.ar    1  UNL1       -0.0617
     16 C           6.9598    3.9859    9.7764 C.ar    1  UNL1       -0.0606
     17 C           6.7939    3.2646    8.5938 C.ar    1  UNL1       -0.0463
     18 C           8.5743   -0.1581    4.4881 C.3     1  UNL1        0.1350
     19 C           9.3489    1.0564    3.8267 C.2     1  UNL1        0.2384
     20 O          10.2505    1.6973    4.3744 O.2     1  UNL1       -0.2734
     21 N           9.1368    1.3126    2.4877 N.am    1  UNL1       -0.3135
     22 C           9.7262    2.5088    1.9381 C.3     1  UNL1        0.0116
     23 C           9.4855    2.6183    0.4512 C.3     1  UNL1       -0.0376
     24 C          10.1123    3.8960   -0.0898 C.3     1  UNL1       -0.0545
     25 C           9.8829    3.9979   -1.5838 C.3     1  UNL1       -0.0652
     26 C           8.9462   -0.3620    5.9592 C.ar    1  UNL1        0.0648
     27 C           8.9357   -1.6141    6.6026 C.ar    1  UNL1        0.1292
     28 O           8.6495   -2.7985    5.9769 O.3     1  UNL1       -0.5062
     29 C           9.1560   -1.7181    7.9852 C.ar    1  UNL1        0.0219
     30 C           9.4169   -0.5737    8.7332 C.ar    1  UNL1        0.1238
     31 O           9.6040   -0.5984   10.0831 O.3     1  UNL1       -0.5065
     32 C           9.4341    0.6703    8.1349 C.ar    1  UNL1        0.0219
     33 C           9.1462    0.7676    6.7815 C.ar    1  UNL1        0.1292
     34 O           8.8081    2.0114    6.2999 O.3     1  UNL1       -0.5062
     35 H           0.6751    0.0373   -1.1065 H       1  UNL1        0.0230
     36 H           0.6666    0.8292    0.4831 H       1  UNL1        0.0230
     37 H           0.6672   -0.9418    0.3751 H       1  UNL1        0.0230
     38 H           2.9367    0.8905   -0.5622 H       1  UNL1        0.0263
     39 H           2.9370   -0.8745   -0.6683 H       1  UNL1        0.0263
     40 H           2.7211   -1.0223    1.8175 H       1  UNL1        0.0265
     41 H           2.7208    0.7372    1.9270 H       1  UNL1        0.0265
     42 H           4.9933    0.8114    0.8670 H       1  UNL1        0.0266
     43 H           4.9897   -0.9577    0.7458 H       1  UNL1        0.0266
     44 H           4.6623   -1.1474    3.1564 H       1  UNL1        0.0280
     45 H           4.6925    0.6262    3.3328 H       1  UNL1        0.0280
     46 H           6.9079    0.6813    2.4043 H       1  UNL1        0.0465
     47 H           7.0331   -1.0870    2.3254 H       1  UNL1        0.0465
     48 H           6.2869    0.1699    9.9180 H       1  UNL1        0.0630
     49 H           6.5551    1.4548   12.0150 H       1  UNL1        0.0618
     50 H           6.9509    3.9037   11.9302 H       1  UNL1        0.0618
     51 H           7.1570    5.0537    9.7399 H       1  UNL1        0.0618
     52 H           6.9063    3.7657    7.6352 H       1  UNL1        0.0630
     53 H           8.9876   -1.0263    3.9456 H       1  UNL1        0.0650
     54 H           8.7448    0.6202    1.8673 H       1  UNL1        0.1487
     55 H          10.8002    2.5070    2.1574 H       1  UNL1        0.0462
     56 H           9.2800    3.3602    2.4683 H       1  UNL1        0.0462
     57 H           8.4078    2.6084    0.2484 H       1  UNL1        0.0280
     58 H           9.9157    1.7440   -0.0518 H       1  UNL1        0.0280
     59 H          11.1890    3.9039    0.1191 H       1  UNL1        0.0263
     60 H           9.6781    4.7694    0.4113 H       1  UNL1        0.0263
     61 H          10.3299    3.1427   -2.1005 H       1  UNL1        0.0230
     62 H          10.3328    4.9134   -1.9757 H       1  UNL1        0.0230
     63 H           8.8116    4.0136   -1.8079 H       1  UNL1        0.0230
     64 H           8.3619   -2.6618    5.0614 H       1  UNL1        0.2922
     65 H           9.0915   -2.6918    8.4615 H       1  UNL1        0.0691
     66 H           9.5876   -1.5175   10.3900 H       1  UNL1        0.2921
     67 H           9.5312    1.5619    8.7445 H       1  UNL1        0.0691
     68 H           9.1886    2.6939    6.8739 H       1  UNL1        0.2922
@<TRIPOS>BOND
     1     1     2    1
     2     2     3    1
     3     3     4    1
     4     4     5    1
     5     5     6    1
     6     6     7    1
     7     7     8   am
     8     8     9    2
     9     8    10    1
    10    10    11    3
    11    11    12    1
    12    12    13   ar
    13    13    14   ar
    14    14    15   ar
    15    15    16   ar
    16    16    17   ar
    17    12    17   ar
    18     7    18    1
    19    18    19    1
    20    19    20    2
    21    19    21   am
    22    21    22    1
    23    22    23    1
    24    23    24    1
    25    24    25    1
    26    18    26    1
    27    26    27   ar
    28    27    28    1
    29    27    29   ar
    30    29    30   ar
    31    30    31    1
    32    30    32   ar
    33    32    33   ar
    34    26    33   ar
    35    33    34    1
    36     1    35    1
    37     1    36    1
    38     1    37    1
    39     2    38    1
    40     2    39    1
    41     3    40    1
    42     3    41    1
    43     4    42    1
    44     4    43    1
    45     5    44    1
    46     5    45    1
    47     6    46    1
    48     6    47    1
    49    13    48    1
    50    14    49    1
    51    15    50    1
    52    16    51    1
    53    17    52    1
    54    18    53    1
    55    21    54    1
    56    22    55    1
    57    22    56    1
    58    23    57    1
    59    23    58    1
    60    24    59    1
    61    24    60    1
    62    25    61    1
    63    25    62    1
    64    25    63    1
    65    28    64    1
    66    29    65    1
    67    31    66    1
    68    32    67    1
    69    34    68    1
