REMARK  4 active torsions:
REMARK  status: ('A' for Active; 'I' for Inactive)
REMARK    1  A    between atoms: C_4  and  C_3 
REMARK    2  A    between atoms: C_4  and  C_12 
REMARK    3  A    between atoms: C_4  and  C_5 
REMARK    4  A    between atoms: C_19  and  O_20 
ROOT
ATOM      1  C   UNL d   1       2.901  -2.555  -0.054  0.00  0.00     0.095 C 
ENDROOT
BRANCH   1   2
ATOM      2  C   UNL d   1       4.131  -3.453   0.034  0.00  0.00     0.050 A 
ATOM      3  C   UNL d   1       5.236  -3.540  -0.868  0.00  0.00     0.063 A 
ATOM      4  C   UNL d   1       5.519  -2.751  -2.080  0.00  0.00     0.073 C 
ATOM      5  N   UNL d   1       6.106  -4.487  -0.509  0.00  0.00    -0.176 NA
ATOM      6  N   UNL d   1       5.591  -4.945   0.644  0.00  0.00    -0.243 N 
ATOM      7  C   UNL d   1       4.414  -4.372   1.046  0.00  0.00     0.270 A 
ATOM      8  H   UNL d   1       6.075  -5.672   1.147  0.00  0.00     0.192 HD
ATOM      9  O   UNL d   1       3.925  -4.768   2.096  0.00  0.00    -0.266 OA
ENDBRANCH   1   2
BRANCH   1  10
ATOM     10  C   UNL d   1       3.407  -1.181   0.357  0.00  0.00    -0.045 C 
ATOM     11  C   UNL d   1       3.979  -0.164  -0.427  0.00  0.00     0.009 C 
ATOM     12  C   UNL d   1       4.834   0.774   0.165  0.00  0.00     0.007 C 
ATOM     13  C   UNL d   1       5.093   0.708   1.536  0.00  0.00    -0.062 C 
ATOM     14  C   UNL d   1       6.111   1.560   2.209  0.00  0.00     0.048 C 
ATOM     15  C   UNL d   1       4.415  -0.212   2.325  0.00  0.00     0.007 C 
ATOM     16  C   UNL d   1       3.539  -1.097   1.749  0.00  0.00     0.009 C 
ENDBRANCH   1  10
BRANCH   1  17
ATOM     17  C   UNL d   1       2.080  -2.805  -1.252  0.00  0.00     0.010 A 
ATOM     18  C   UNL d   1       1.447  -3.950  -1.537  0.00  0.00     0.060 A 
ATOM     19  C   UNL d   1       1.453  -5.219  -0.745  0.00  0.00     0.072 C 
ATOM     20  N   UNL d   1       0.682  -3.843  -2.668  0.00  0.00    -0.157 NA
ATOM     21  N   UNL d   1       0.721  -2.655  -3.099  0.00  0.00    -0.155 NA
ATOM     22  C   UNL d   1       1.645  -1.839  -2.271  0.00  0.00     0.296 A 
BRANCH  22  23
ATOM     23  O   UNL d   1       2.750  -1.355  -3.006  0.00  0.00    -0.369 OA
ATOM     24  H   UNL d   1       3.194  -2.171  -3.293  0.00  0.00     0.212 HD
ENDBRANCH  22  23
ENDBRANCH   1  17
TORSDOF 4
