REMARK  4 active torsions:
REMARK  status: ('A' for Active; 'I' for Inactive)
REMARK    1  A    between atoms: C_6  and  N_7 
REMARK       I    between atoms: N_7  and  C_8 
REMARK    2  A    between atoms: C_8  and  C_10 
REMARK    3  A    between atoms: C_10  and  N_12 
REMARK       I    between atoms: N_12  and  C_13 
REMARK    4  A    between atoms: C_13  and  C_15 
ROOT
ATOM      1  C   UNL d   1       1.890  -5.034  -0.002  0.00  0.00     0.173 C 
ATOM      2  C   UNL d   1       2.778  -5.059   1.233  0.00  0.00     0.042 C 
ENDROOT
BRANCH   1   3
ATOM      3  C   UNL d   1       1.019  -3.755  -0.012  0.00  0.00     0.245 C 
ATOM      4  N   UNL d   1       1.657  -2.517  -0.019  0.00  0.00    -0.310 N 
ATOM      5  H   UNL d   1       2.667  -2.442  -0.041  0.00  0.00     0.170 HD
ATOM      6  O   UNL d   1      -0.207  -3.918  -0.014  0.00  0.00    -0.271 OA
BRANCH   4   7
ATOM      7  C   UNL d   1       0.998  -1.259  -0.001  0.00  0.00     0.130 A 
ATOM      8  N   UNL d   1       1.758  -0.139  -0.008  0.00  0.00    -0.243 NA
ATOM      9  C   UNL d   1       1.100   1.062   0.004  0.00  0.00     0.119 A 
ATOM     10  C   UNL d   1      -0.282   1.209   0.009  0.00  0.00     0.026 A 
ATOM     11  C   UNL d   1      -1.045   0.056   0.009  0.00  0.00    -0.057 A 
ATOM     12  C   UNL d   1      -2.541   0.040  -0.018  0.00  0.00     0.048 C 
ATOM     13  C   UNL d   1      -0.386  -1.171   0.019  0.00  0.00     0.057 A 
ENDBRANCH   4   7
ENDBRANCH   1   3
BRANCH   1  14
ATOM     14  N   UNL d   1       0.967  -6.199  -0.009  0.00  0.00    -0.344 N 
ATOM     15  C   UNL d   1       1.400  -7.504  -0.000  0.00  0.00     0.252 C 
ATOM     16  O   UNL d   1       2.593  -7.815  -0.019  0.00  0.00    -0.268 OA
ATOM     17  H   UNL d   1      -0.027  -5.979   0.044  0.00  0.00     0.163 HD
BRANCH  15  18
ATOM     18  C   UNL d   1       0.386  -8.591   0.036  0.00  0.00     0.032 A 
ATOM     19  C   UNL d   1       0.643  -9.733   0.811  0.00  0.00     0.017 A 
ATOM     20  C   UNL d   1      -0.175 -10.862   0.702  0.00  0.00     0.001 A 
ATOM     21  C   UNL d   1      -1.288 -10.834  -0.136  0.00  0.00     0.000 A 
ATOM     22  C   UNL d   1      -1.562  -9.691  -0.890  0.00  0.00     0.001 A 
ATOM     23  C   UNL d   1      -0.726  -8.570  -0.811  0.00  0.00     0.017 A 
ENDBRANCH  15  18
ENDBRANCH   1  14
TORSDOF 4
