REMARK  12 active torsions:
REMARK  status: ('A' for Active; 'I' for Inactive)
REMARK    1  A    between atoms: O_2  and  C_3 
REMARK    2  A    between atoms: C_5  and  C_6 
REMARK    3  A    between atoms: C_6  and  C_7 
REMARK    4  A    between atoms: C_7  and  C_8 
REMARK       I    between atoms: C_8  and  N_10 
REMARK    5  A    between atoms: N_10  and  N_11 
REMARK    6  A    between atoms: N_11  and  C_12 
REMARK    7  A    between atoms: C_12  and  N_14 
REMARK    8  A    between atoms: N_14  and  C_15 
REMARK    9  A    between atoms: C_15  and  C_16 
REMARK   10  A    between atoms: C_16  and  C_17 
REMARK   11  A    between atoms: C_21  and  O_22 
REMARK   12  A    between atoms: C_24  and  O_25 
ROOT
ATOM      1  C   UNL d   1       9.035  -1.559   3.072  0.00  0.00     0.236 C 
ATOM      2  O   UNL d   1       9.434  -0.437   2.822  0.00  0.00    -0.272 OA
ATOM      3  N   UNL d   1       9.860  -2.551   3.592  0.00  0.00    -0.268 N 
ATOM      4  H   UNL d   1       9.547  -3.496   3.808  0.00  0.00     0.190 HD
ENDROOT
BRANCH   1   5
ATOM      5  C   UNL d   1       7.590  -2.010   2.846  0.00  0.00     0.109 C 
BRANCH   5   6
ATOM      6  C   UNL d   1       6.683  -0.886   2.290  0.00  0.00     0.048 C 
BRANCH   6   7
ATOM      7  C   UNL d   1       5.239  -1.283   2.000  0.00  0.00    -0.052 A 
ATOM      8  C   UNL d   1       4.353  -0.386   1.356  0.00  0.00     0.047 A 
ATOM      9  C   UNL d   1       3.099  -0.800   0.829  0.00  0.00     0.104 A 
ATOM     10  C   UNL d   1       2.709  -2.140   1.036  0.00  0.00     0.135 A 
ATOM     11  C   UNL d   1       3.564  -3.024   1.744  0.00  0.00     0.104 A 
ATOM     12  C   UNL d   1       4.792  -2.583   2.235  0.00  0.00     0.047 A 
BRANCH   9  13
ATOM     13  O   UNL d   1       2.584   0.096  -0.087  0.00  0.00    -0.353 OA
ATOM     14  C   UNL d   1       1.239   0.565  -0.045  0.00  0.00     0.210 C 
ENDBRANCH   9  13
BRANCH  10  15
ATOM     15  O   UNL d   1       1.612  -2.796   0.592  0.00  0.00    -0.351 OA
ATOM     16  C   UNL d   1       0.567  -2.158  -0.046  0.00  0.00     0.210 C 
ENDBRANCH  10  15
BRANCH  11  17
ATOM     17  O   UNL d   1       3.367  -4.377   1.970  0.00  0.00    -0.353 OA
ATOM     18  C   UNL d   1       2.202  -4.989   1.420  0.00  0.00     0.210 C 
ENDBRANCH  11  17
ENDBRANCH   6   7
ENDBRANCH   5   6
ENDBRANCH   1   5
BRANCH   3  19
ATOM     19  N   UNL d   1      11.229  -2.262   3.873  0.00  0.00    -0.274 N 
ATOM     20  H   UNL d   1      11.528  -1.314   3.658  0.00  0.00     0.189 HD
BRANCH  19  21
ATOM     21  C   UNL d   1      12.061  -3.238   4.413  0.00  0.00     0.186 C 
ATOM     22  S   UNL d   1      11.509  -4.795   4.745  0.00  0.00    -0.040 SA
BRANCH  21  23
ATOM     23  N   UNL d   1      13.365  -2.810   4.653  0.00  0.00    -0.366 N 
ATOM     24  H   UNL d   1      13.636  -1.871   4.393  0.00  0.00     0.161 HD
BRANCH  23  25
ATOM     25  C   UNL d   1      14.408  -3.695   5.187  0.00  0.00     0.122 C 
BRANCH  25  26
ATOM     26  C   UNL d   1      15.800  -3.075   5.348  0.00  0.00     0.023 C 
BRANCH  26  27
ATOM     27  C   UNL d   1      16.825  -4.088   5.919  0.00  0.00    -0.021 C 
ATOM     28  C   UNL d   1      16.988  -5.314   5.015  0.00  0.00     0.009 C 
ATOM     29  C   UNL d   1      18.191  -3.424   6.107  0.00  0.00     0.009 C 
ENDBRANCH  26  27
ENDBRANCH  25  26
ENDBRANCH  23  25
ENDBRANCH  21  23
ENDBRANCH  19  21
ENDBRANCH   3  19
TORSDOF 12
