@<TRIPOS>MOLECULE
*****
 54 56 0 0 0
SMALL
GASTEIGER

@<TRIPOS>ATOM
      1 C          -2.4923    1.8475   -0.0218 C.3     1  UNL1       -0.0379
      2 C          -1.6561    0.6150    0.0111 C.ar    1  UNL1       -0.0279
      3 C          -0.2677    0.8783    0.0263 C.ar    1  UNL1       -0.0387
      4 C           0.6582   -0.1436    0.0115 C.ar    1  UNL1        0.0413
      5 CL          2.3337    0.2436    0.0061 Cl      1  UNL1       -0.0835
      6 C           0.2089   -1.4549   -0.0093 C.ar    1  UNL1       -0.0416
      7 C          -1.1835   -1.7348   -0.0024 C.ar    1  UNL1       -0.0388
      8 C          -2.1604   -0.7050    0.0133 C.ar    1  UNL1        0.0368
      9 N          -3.5655   -1.0732    0.0348 N.am    1  UNL1       -0.2775
     10 C          -4.7029   -0.2453    0.0483 C.2     1  UNL1        0.3048
     11 O          -4.7845    0.9817    0.0161 O.2     1  UNL1       -0.2648
     12 C          -6.1005   -0.8706    0.1092 C.2     1  UNL1        0.3184
     13 O          -6.2328   -2.0870    0.1228 O.2     1  UNL1       -0.2634
     14 N          -7.0929    0.1283    0.1365 N.am    1  UNL1       -0.1992
     15 N          -8.4210   -0.1765    0.1939 N.2     1  UNL1       -0.1873
     16 C          -9.2839    0.7921    0.1282 C.2     1  UNL1        0.0528
     17 C         -10.7371    0.4806    0.2203 C.ar    1  UNL1       -0.0052
     18 C         -11.7004    1.1777   -0.5119 C.ar    1  UNL1       -0.0496
     19 C         -13.0632    0.8535   -0.3495 C.ar    1  UNL1       -0.0193
     20 C         -13.4696   -0.1857    0.5049 C.ar    1  UNL1        0.1212
     21 O         -14.8144   -0.4502    0.5387 O.3     1  UNL1       -0.4828
     22 C         -15.2760   -1.5826    1.2879 C.3     1  UNL1        0.1651
     23 C         -16.7990   -1.7921    1.1088 C.2     1  UNL1        0.2510
     24 O         -17.4863   -1.1076    0.3535 O.2     1  UNL1       -0.2721
     25 N         -17.3597   -2.8171    1.8534 N.am    1  UNL1       -0.3054
     26 C         -18.7910   -3.0856    1.7792 C.3     1  UNL1        0.0698
     27 C         -19.0996   -4.3257    2.5382 C.ar    1  UNL1        0.1218
     28 C         -18.8371   -5.6513    2.2634 C.ar    1  UNL1       -0.0192
     29 C         -19.3074   -6.3968    3.3666 C.ar    1  UNL1       -0.0236
     30 C         -19.8756   -5.4872    4.2279 C.ar    1  UNL1        0.0921
     31 O         -19.7529   -4.2224    3.7349 O.2     1  UNL1       -0.4662
     32 C         -12.4973   -0.8630    1.2358 C.ar    1  UNL1       -0.0193
     33 C         -11.1419   -0.5350    1.0908 C.ar    1  UNL1       -0.0496
     34 H          -1.9186    2.7743   -0.0563 H       1  UNL1        0.0278
     35 H          -3.0691    1.8941    0.9059 H       1  UNL1        0.0278
     36 H          -3.0742    1.8352   -0.9484 H       1  UNL1        0.0278
     37 H           0.0772    1.9112    0.0419 H       1  UNL1        0.0635
     38 H           0.9424   -2.2592   -0.0303 H       1  UNL1        0.0633
     39 H          -1.4638   -2.7873   -0.0153 H       1  UNL1        0.0637
     40 H          -3.7711   -2.0715    0.0507 H       1  UNL1        0.1553
     41 H          -6.7745    1.1014    0.1136 H       1  UNL1        0.1777
     42 H          -9.0088    1.8604    0.0185 H       1  UNL1        0.0851
     43 H         -11.4168    1.9420   -1.2319 H       1  UNL1        0.0625
     44 H         -13.8167    1.4150   -0.9017 H       1  UNL1        0.0654
     45 H         -15.0838   -1.4179    2.3545 H       1  UNL1        0.0795
     46 H         -14.7732   -2.4965    0.9464 H       1  UNL1        0.0795
     47 H         -16.7982   -3.3856    2.4733 H       1  UNL1        0.1492
     48 H         -19.0558   -3.2345    0.7257 H       1  UNL1        0.0542
     49 H         -19.3446   -2.2140    2.1446 H       1  UNL1        0.0542
     50 H         -18.3423   -6.0139    1.3744 H       1  UNL1        0.0652
     51 H         -19.2414   -7.4659    3.5125 H       1  UNL1        0.0649
     52 H         -20.3704   -5.5802    5.1864 H       1  UNL1        0.1029
     53 H         -12.7531   -1.6497    1.9351 H       1  UNL1        0.0654
     54 H         -10.3963   -1.0756    1.6697 H       1  UNL1        0.0625
@<TRIPOS>BOND
     1     1     2    1
     2     2     3   ar
     3     3     4   ar
     4     4     5    1
     5     4     6   ar
     6     6     7   ar
     7     7     8   ar
     8     2     8   ar
     9     8     9    1
    10     9    10   am
    11    10    11    2
    12    10    12    1
    13    12    13    2
    14    12    14   am
    15    14    15    1
    16    15    16    2
    17    16    17    1
    18    17    18   ar
    19    18    19   ar
    20    19    20   ar
    21    20    21    1
    22    21    22    1
    23    22    23    1
    24    23    24    2
    25    23    25   am
    26    25    26    1
    27    26    27    1
    28    27    28   ar
    29    28    29   ar
    30    29    30   ar
    31    30    31   ar
    32    27    31   ar
    33    20    32   ar
    34    32    33   ar
    35    17    33   ar
    36     1    34    1
    37     1    35    1
    38     1    36    1
    39     3    37    1
    40     6    38    1
    41     7    39    1
    42     9    40    1
    43    14    41    1
    44    16    42    1
    45    18    43    1
    46    19    44    1
    47    22    45    1
    48    22    46    1
    49    25    47    1
    50    26    48    1
    51    26    49    1
    52    28    50    1
    53    29    51    1
    54    30    52    1
    55    32    53    1
    56    33    54    1
