REMARK  1 active torsions:
REMARK  status: ('A' for Active; 'I' for Inactive)
REMARK    1  A    between atoms: C_13  and  C_12 
ROOT
ATOM      1  C   UNL d   1       0.072   2.629   0.195  0.00  0.00     0.084 C 
ATOM      2  C   UNL d   1      -0.534   1.732  -0.875  0.00  0.00     0.118 C 
ATOM      3  C   UNL d   1       0.419   1.284  -1.949  0.00  0.00     0.223 C 
ATOM      4  O   UNL d   1       0.008   0.550  -2.892  0.00  0.00    -0.273 OA
ATOM      5  N   UNL d   1       1.749   1.591  -1.871  0.00  0.00    -0.327 N 
ATOM      6  C   UNL d   1       2.349   2.251  -0.782  0.00  0.00     0.040 C 
ATOM      7  C   UNL d   1       3.736   2.430  -0.590  0.00  0.00     0.035 C 
ATOM      8  C   UNL d   1       4.251   3.140   0.549  0.00  0.00     0.112 C 
ATOM      9  C   UNL d   1       3.519   4.242   0.804  0.00  0.00     0.040 C 
ATOM     10  C   UNL d   1       2.178   3.780   1.007  0.00  0.00    -0.002 C 
ATOM     11  C   UNL d   1       1.557   2.826   0.162  0.00  0.00    -0.024 C 
ATOM     12  C   UNL d   1       4.262   5.032   1.855  0.00  0.00     0.152 C 
ATOM     13  N   UNL d   1       4.134   3.937   2.797  0.00  0.00    -0.337 N 
ATOM     14  N   UNL d   1       4.315   2.706   2.011  0.00  0.00    -0.127 NA
ATOM     15  H   UNL d   1       2.299   1.219  -2.639  0.00  0.00     0.169 HD
ATOM     16  H   UNL d   1       3.504   4.035   3.609  0.00  0.00     0.175 HD
ENDROOT
BRANCH   1  17
ATOM     17  C   UNL d   1      -0.458   4.045   0.331  0.00  0.00     0.075 A 
ATOM     18  N   UNL d   1      -1.442   4.227   1.279  0.00  0.00    -0.225 NA
ATOM     19  C   UNL d   1      -1.512   5.527   1.438  0.00  0.00     0.180 A 
ATOM     20  O   UNL d   1      -0.583   6.236   0.732  0.00  0.00    -0.294 OA
ATOM     21  C   UNL d   1      -2.397   6.302   2.273  0.00  0.00     0.017 A 
ATOM     22  C   UNL d   1       0.071   5.300  -0.021  0.00  0.00     0.077 A 
ATOM     23  C   UNL d   1       1.236   5.826  -0.793  0.00  0.00     0.079 C 
ATOM     24  C   UNL d   1      -3.174   7.312   1.696  0.00  0.00     0.016 A 
ATOM     25  C   UNL d   1      -2.508   6.037   3.644  0.00  0.00     0.016 A 
ATOM     26  C   UNL d   1      -4.014   8.088   2.489  0.00  0.00     0.001 A 
ATOM     27  C   UNL d   1      -4.125   7.820   3.853  0.00  0.00     0.000 A 
ATOM     28  C   UNL d   1      -3.375   6.796   4.431  0.00  0.00     0.001 A 
ENDBRANCH   1  17
TORSDOF 1
