REMARK  6 active torsions:
REMARK  status: ('A' for Active; 'I' for Inactive)
REMARK    1  A    between atoms: C_7  and  C_8 
REMARK       I    between atoms: C_8  and  N_10 
REMARK    2  A    between atoms: N_10  and  C_11 
REMARK    3  A    between atoms: C_13  and  C_11 
REMARK    4  A    between atoms: C_13  and  C_15 
REMARK    5  A    between atoms: C_13  and  O_14 
REMARK    6  A    between atoms: C_18  and  O_19 
ROOT
ATOM      1  C   UNL d   1       3.451  -5.428   1.175  0.00  0.00     0.114 C 
ATOM      2  C   UNL d   1       4.883  -5.971   1.239  0.00  0.00     0.035 C 
ENDROOT
BRANCH   1   3
ATOM      3  N   UNL d   1       3.457  -3.970   1.185  0.00  0.00    -0.350 N 
ATOM      4  C   UNL d   1       4.002  -3.249   0.145  0.00  0.00     0.252 C 
ATOM      5  O   UNL d   1       4.543  -3.786  -0.822  0.00  0.00    -0.268 OA
ATOM      6  H   UNL d   1       2.950  -3.518   1.930  0.00  0.00     0.163 HD
BRANCH   4   7
ATOM      7  C   UNL d   1       3.949  -1.769   0.209  0.00  0.00     0.033 A 
ATOM      8  C   UNL d   1       4.548  -1.056  -0.839  0.00  0.00     0.023 A 
ATOM      9  C   UNL d   1       4.558   0.342  -0.844  0.00  0.00    -0.061 A 
ATOM     10  C   UNL d   1       3.961   1.028   0.220  0.00  0.00     0.013 A 
ATOM     11  C   UNL d   1       5.209   1.066  -1.984  0.00  0.00     0.048 C 
ATOM     12  C   UNL d   1       3.354   0.329   1.271  0.00  0.00    -0.061 A 
ATOM     13  C   UNL d   1       2.699   1.046   2.413  0.00  0.00     0.048 C 
ATOM     14  C   UNL d   1       3.351  -1.070   1.260  0.00  0.00     0.023 A 
ENDBRANCH   4   7
ENDBRANCH   1   3
BRANCH   1  15
ATOM     15  C   UNL d   1       2.646  -6.016  -0.025  0.00  0.00     0.173 C 
BRANCH  15  16
ATOM     16  C   UNL d   1       2.582  -7.531  -0.015  0.00  0.00    -0.028 A 
ATOM     17  C   UNL d   1       2.633  -8.237  -1.227  0.00  0.00     0.012 A 
ATOM     18  C   UNL d   1       2.645  -9.635  -1.232  0.00  0.00     0.037 A 
ATOM     19  C   UNL d   1       2.612 -10.324  -0.022  0.00  0.00     0.065 A 
ATOM     20  C   UNL d   1       2.549  -9.644   1.183  0.00  0.00     0.037 A 
ATOM     21  C   UNL d   1       2.513  -8.255   1.186  0.00  0.00     0.012 A 
BRANCH  19  22
ATOM     22  O   UNL d   1       2.640 -11.685   0.042  0.00  0.00    -0.361 OA
ATOM     23  H   UNL d   1       2.685 -12.039  -0.859  0.00  0.00     0.217 HD
ENDBRANCH  19  22
ENDBRANCH  15  16
BRANCH  15  24
ATOM     24  O   UNL d   1       1.303  -5.510  -0.008  0.00  0.00    -0.389 OA
ATOM     25  H   UNL d   1       0.856  -5.898   0.759  0.00  0.00     0.210 HD
ENDBRANCH  15  24
ENDBRANCH   1  15
TORSDOF 6
