@<TRIPOS>MOLECULE
*****
 44 44 0 0 0
SMALL
GASTEIGER

@<TRIPOS>ATOM
      1 C           0.9195   -0.0413   -0.0473 C.3     1  UNL1       -0.0652
      2 C           2.4378   -0.0518   -0.0539 C.3     1  UNL1       -0.0528
      3 C           2.9750   -1.4077   -0.5027 C.3     1  UNL1       -0.0189
      4 C           4.4997   -1.4161   -0.5193 C.3     1  UNL1        0.0896
      5 O           4.9365   -2.6756   -1.0377 O.3     1  UNL1       -0.4920
      6 C           6.2860   -2.8940   -0.9847 C.ar    1  UNL1        0.1205
      7 C           6.8417   -3.6470   -2.0201 C.ar    1  UNL1       -0.0197
      8 C           8.1969   -4.0132   -1.9913 C.ar    1  UNL1       -0.0551
      9 C           9.0353   -3.5696   -0.9567 C.ar    1  UNL1       -0.0457
     10 C          10.5318   -3.8452   -1.0081 C.3     1  UNL1       -0.0120
     11 C          11.3271   -3.2277    0.1591 C.3     1  UNL1        0.0171
     12 N          12.7660   -3.4323    0.1336 N.am    1  UNL1       -0.2979
     13 C          13.5534   -2.9193    1.1462 C.2     1  UNL1        0.3160
     14 O          13.1058   -2.2807    2.0986 O.2     1  UNL1       -0.2513
     15 N          14.8973   -3.1952    0.9897 N.am    1  UNL1       -0.2182
     16 N          15.8122   -2.7376    1.9552 N.am    1  UNL1       -0.2334
     17 C          17.1717   -2.9286    1.9478 C.2     1  UNL1        0.2260
     18 C          17.8147   -3.6980    0.8221 C.3     1  UNL1        0.0136
     19 O          17.8696   -2.4739    2.8571 O.2     1  UNL1       -0.2746
     20 C           8.4507   -2.8329    0.0831 C.ar    1  UNL1       -0.0551
     21 C           7.0954   -2.5019    0.0734 C.ar    1  UNL1       -0.0197
     22 H           0.5470    0.9382    0.2669 H       1  UNL1        0.0230
     23 H           0.5279   -0.7945    0.6438 H       1  UNL1        0.0230
     24 H           0.5255   -0.2530   -1.0463 H       1  UNL1        0.0230
     25 H           2.8067    0.1861    0.9510 H       1  UNL1        0.0264
     26 H           2.8026    0.7330   -0.7268 H       1  UNL1        0.0264
     27 H           2.5940   -1.6610   -1.4990 H       1  UNL1        0.0298
     28 H           2.6141   -2.1975    0.1693 H       1  UNL1        0.0298
     29 H           4.8440   -1.2411    0.5049 H       1  UNL1        0.0696
     30 H           4.8745   -0.6191   -1.1715 H       1  UNL1        0.0696
     31 H           6.2189   -3.9411   -2.8620 H       1  UNL1        0.0654
     32 H           8.5851   -4.6452   -2.7876 H       1  UNL1        0.0621
     33 H          10.9137   -3.4312   -1.9511 H       1  UNL1        0.0328
     34 H          10.6989   -4.9290   -1.0404 H       1  UNL1        0.0328
     35 H          10.9646   -3.6397    1.1086 H       1  UNL1        0.0466
     36 H          11.1625   -2.1427    0.1828 H       1  UNL1        0.0466
     37 H          13.1808   -3.9405   -0.6315 H       1  UNL1        0.1503
     38 H          15.2230   -3.7229    0.1964 H       1  UNL1        0.1744
     39 H          15.4190   -2.2107    2.7375 H       1  UNL1        0.1728
     40 H          17.1104   -4.0541    0.0745 H       1  UNL1        0.0323
     41 H          18.3345   -4.5672    1.2366 H       1  UNL1        0.0323
     42 H          18.5420   -3.0526    0.3199 H       1  UNL1        0.0323
     43 H           9.0272   -2.4960    0.9399 H       1  UNL1        0.0621
     44 H           6.7095   -1.9525    0.9238 H       1  UNL1        0.0654
@<TRIPOS>BOND
     1     1     2    1
     2     2     3    1
     3     3     4    1
     4     4     5    1
     5     5     6    1
     6     6     7   ar
     7     7     8   ar
     8     8     9   ar
     9     9    10    1
    10    10    11    1
    11    11    12    1
    12    12    13   am
    13    13    14    2
    14    13    15   am
    15    15    16    1
    16    16    17   am
    17    17    18    1
    18    17    19    2
    19     9    20   ar
    20    20    21   ar
    21     6    21   ar
    22     1    22    1
    23     1    23    1
    24     1    24    1
    25     2    25    1
    26     2    26    1
    27     3    27    1
    28     3    28    1
    29     4    29    1
    30     4    30    1
    31     7    31    1
    32     8    32    1
    33    10    33    1
    34    10    34    1
    35    11    35    1
    36    11    36    1
    37    12    37    1
    38    15    38    1
    39    16    39    1
    40    18    40    1
    41    18    41    1
    42    18    42    1
    43    20    43    1
    44    21    44    1
