@<TRIPOS>MOLECULE
*****
 71 74 0 0 0
SMALL
GASTEIGER

@<TRIPOS>ATOM
      1 C           0.9785   -0.1120   -0.0769 C.3     1  UNL1        0.0788
      2 O           2.4046   -0.2428   -0.1388 O.3     1  UNL1       -0.4950
      3 C           2.9906    0.4254   -1.1813 C.ar    1  UNL1        0.1237
      4 C           4.1167   -0.1194   -1.7956 C.ar    1  UNL1       -0.0180
      5 C           4.7902    0.5814   -2.8342 C.ar    1  UNL1       -0.0334
      6 C           4.3261    1.8345   -3.2937 C.ar    1  UNL1        0.0770
      7 N           4.9533    2.4818   -4.4442 N.am    1  UNL1       -0.2661
      8 C           4.4414    3.5962   -5.1161 C.2     1  UNL1        0.3082
      9 O           3.3562    4.1416   -4.8943 O.2     1  UNL1       -0.2521
     10 N           5.1995    4.1217   -6.1594 N.am    1  UNL1       -0.2692
     11 C           4.6974    5.3192   -6.8051 C.ar    1  UNL1        0.0356
     12 C           4.5125    5.3937   -8.1763 C.ar    1  UNL1       -0.0386
     13 C           4.0326    6.5891   -8.7607 C.ar    1  UNL1       -0.0382
     14 C           3.6882    7.7465   -8.0172 C.ar    1  UNL1        0.0420
     15 N           3.2681    8.8572   -8.7369 N.pl3   1  UNL1       -0.3293
     16 C           2.0007    8.8940   -9.4713 C.3     1  UNL1        0.0122
     17 C           2.3006    9.4159  -10.8835 C.3     1  UNL1       -0.0372
     18 C           3.0470   10.7574  -10.8511 C.3     1  UNL1       -0.0502
     19 C           4.2646   10.7042   -9.9263 C.3     1  UNL1       -0.0372
     20 C           3.8767   10.1752   -8.5534 C.3     1  UNL1        0.0122
     21 C           3.8722    7.6661   -6.6150 C.ar    1  UNL1        0.0594
     22 C           3.5772    8.8343   -5.7063 C.2     1  UNL1        0.2459
     23 O           3.1082    9.8992   -6.0998 O.2     1  UNL1       -0.2701
     24 N           3.8583    8.7240   -4.3571 N.am    1  UNL1       -0.3110
     25 C           3.6237    9.8857   -3.5397 C.3     1  UNL1        0.0159
     26 C           3.8507    9.6347   -2.0626 C.3     1  UNL1       -0.0120
     27 C           3.6795   10.8693   -1.2125 C.ar    1  UNL1       -0.0459
     28 C           3.3535   12.1252   -1.7496 C.ar    1  UNL1       -0.0585
     29 C           3.4415   13.2731   -0.9702 C.ar    1  UNL1       -0.0615
     30 C           3.7448   13.1673    0.3820 C.ar    1  UNL1       -0.0617
     31 C           3.9883   11.9168    0.9479 C.ar    1  UNL1       -0.0615
     32 C           3.9608   10.7721    0.1542 C.ar    1  UNL1       -0.0585
     33 C           4.3549    6.4533   -6.0446 C.ar    1  UNL1       -0.0265
     34 C           3.2524    2.3955   -2.5675 C.ar    1  UNL1        0.1447
     35 O           2.9881    3.7193   -2.7258 O.3     1  UNL1       -0.4931
     36 C           1.7581    4.2672   -2.2955 C.3     1  UNL1        0.0789
     37 C           2.5841    1.6876   -1.5651 C.ar    1  UNL1        0.0236
     38 H           0.6268   -0.5838    0.8451 H       1  UNL1        0.0660
     39 H           0.5301   -0.6305   -0.9292 H       1  UNL1        0.0660
     40 H           0.6196    0.9226   -0.0376 H       1  UNL1        0.0660
     41 H           4.4665   -1.0991   -1.4715 H       1  UNL1        0.0655
     42 H           5.6894    0.1229   -3.2409 H       1  UNL1        0.0638
     43 H           5.7174    1.9765   -4.8724 H       1  UNL1        0.1565
     44 H           5.7026    3.4635   -6.7373 H       1  UNL1        0.1564
     45 H           4.6672    4.5267   -8.8106 H       1  UNL1        0.0637
     46 H           3.9731    6.6407   -9.8475 H       1  UNL1        0.0637
     47 H           1.3017    9.5852   -8.9763 H       1  UNL1        0.0464
     48 H           1.4996    7.9210   -9.5191 H       1  UNL1        0.0464
     49 H           1.3740    9.5255  -11.4579 H       1  UNL1        0.0280
     50 H           2.9242    8.6800  -11.4048 H       1  UNL1        0.0280
     51 H           2.3646   11.5466  -10.5100 H       1  UNL1        0.0266
     52 H           3.3719   11.0290  -11.8611 H       1  UNL1        0.0266
     53 H           4.7036   11.7017   -9.8215 H       1  UNL1        0.0280
     54 H           5.0255   10.0456  -10.3598 H       1  UNL1        0.0280
     55 H           3.1539   10.8797   -8.1195 H       1  UNL1        0.0464
     56 H           4.7688   10.1380   -7.9207 H       1  UNL1        0.0464
     57 H           4.1598    7.8689   -3.9210 H       1  UNL1        0.1490
     58 H           2.5925   10.2185   -3.7140 H       1  UNL1        0.0465
     59 H           4.2953   10.6755   -3.9062 H       1  UNL1        0.0465
     60 H           4.8818    9.2786   -1.9321 H       1  UNL1        0.0328
     61 H           3.1837    8.8373   -1.7143 H       1  UNL1        0.0328
     62 H           3.0603   12.2474   -2.7901 H       1  UNL1        0.0620
     63 H           3.2964   14.2460   -1.4317 H       1  UNL1        0.0618
     64 H           3.7909   14.0626    0.9935 H       1  UNL1        0.0618
     65 H           4.2350   11.8352    2.0019 H       1  UNL1        0.0618
     66 H           4.1889    9.8047    0.5964 H       1  UNL1        0.0620
     67 H           4.4666    6.3585   -4.9716 H       1  UNL1        0.0644
     68 H           1.6276    5.2185   -2.8180 H       1  UNL1        0.0660
     69 H           1.8385    4.4703   -1.2265 H       1  UNL1        0.0660
     70 H           0.8882    3.6398   -2.5249 H       1  UNL1        0.0660
     71 H           1.7825    2.1765   -1.0336 H       1  UNL1        0.0691
@<TRIPOS>BOND
     1     1     2    1
     2     2     3    1
     3     3     4   ar
     4     4     5   ar
     5     5     6   ar
     6     6     7    1
     7     7     8   am
     8     8     9    2
     9     8    10   am
    10    10    11    1
    11    11    12   ar
    12    12    13   ar
    13    13    14   ar
    14    14    15    1
    15    15    16    1
    16    16    17    1
    17    17    18    1
    18    18    19    1
    19    19    20    1
    20    15    20    1
    21    14    21   ar
    22    21    22    1
    23    22    23    2
    24    22    24   am
    25    24    25    1
    26    25    26    1
    27    26    27    1
    28    27    28   ar
    29    28    29   ar
    30    29    30   ar
    31    30    31   ar
    32    31    32   ar
    33    27    32   ar
    34    21    33   ar
    35    11    33   ar
    36     6    34   ar
    37    34    35    1
    38    35    36    1
    39    34    37   ar
    40     3    37   ar
    41     1    38    1
    42     1    39    1
    43     1    40    1
    44     4    41    1
    45     5    42    1
    46     7    43    1
    47    10    44    1
    48    12    45    1
    49    13    46    1
    50    16    47    1
    51    16    48    1
    52    17    49    1
    53    17    50    1
    54    18    51    1
    55    18    52    1
    56    19    53    1
    57    19    54    1
    58    20    55    1
    59    20    56    1
    60    24    57    1
    61    25    58    1
    62    25    59    1
    63    26    60    1
    64    26    61    1
    65    28    62    1
    66    29    63    1
    67    30    64    1
    68    31    65    1
    69    32    66    1
    70    33    67    1
    71    36    68    1
    72    36    69    1
    73    36    70    1
    74    37    71    1
