@<TRIPOS>MOLECULE
*****
 69 71 0 0 0
SMALL
GASTEIGER

@<TRIPOS>ATOM
      1 C           1.0568    0.0968    0.1090 C.3     1  UNL1       -0.0306
      2 C           2.5715    0.0708    0.1883 C.3     1  UNL1        0.0900
      3 O           3.0605    1.3602    0.5876 O.3     1  UNL1       -0.4614
      4 C           4.3893    1.4211    0.8836 C.2     1  UNL1        0.3421
      5 O           5.1381    0.4445    1.0233 O.2     1  UNL1       -0.2449
      6 C           4.8867    2.7794    0.9953 C.ar    1  UNL1        0.0950
      7 C           4.4829    3.6666    2.0594 C.ar    1  UNL1        0.0051
      8 C           3.4660    3.3216    3.0474 C.ar    1  UNL1       -0.0128
      9 C           3.5486    2.1114    3.7455 C.ar    1  UNL1       -0.0503
     10 C           2.4299    1.6106    4.4135 C.ar    1  UNL1       -0.0157
     11 C           1.2483    2.3594    4.4863 C.ar    1  UNL1        0.1615
     12 O           0.2735    1.7734    5.2583 O.3     1  UNL1       -0.4915
     13 C          -0.8882    2.5501    5.5375 C.3     1  UNL1        0.0790
     14 C           1.1694    3.5841    3.7964 C.ar    1  UNL1        0.1621
     15 O          -0.0248    4.2490    3.8000 O.3     1  UNL1       -0.4914
     16 C          -0.1269    5.4583    3.0713 C.3     1  UNL1        0.0790
     17 C           2.2817    4.0543    3.0873 C.ar    1  UNL1       -0.0086
     18 C           5.1320    4.8832    2.0034 C.ar    1  UNL1       -0.0140
     19 S           6.2570    4.9252    0.6921 S.2     1  UNL1       -0.0805
     20 C           5.8427    3.3451    0.1687 C.ar    1  UNL1        0.0856
     21 N           6.5384    2.8625   -0.9577 N.am    1  UNL1       -0.2905
     22 C           6.0349    1.8673   -1.8002 C.2     1  UNL1        0.1413
     23 S           4.4334    1.7741   -2.3066 S.2     1  UNL1       -0.0182
     24 N           6.9876    1.0327   -2.3803 N.am    1  UNL1       -0.2632
     25 C           6.6311   -0.2386   -2.8386 C.2     1  UNL1        0.2636
     26 O           5.9270   -1.0542   -2.2400 O.2     1  UNL1       -0.2695
     27 C           7.2518   -0.7076   -4.1307 C.3     1  UNL1        0.0448
     28 N           6.7992   -2.1188   -4.5006 N.4     1  UNL1        0.2357
     29 C           7.4505   -2.7687   -5.6941 C.3     1  UNL1       -0.0222
     30 C           8.6149   -1.9210   -6.2291 C.3     1  UNL1       -0.0097
     31 C           9.9418   -2.1668   -5.5083 C.3     1  UNL1       -0.0480
     32 C          10.7520   -3.2204   -6.2457 C.3     1  UNL1       -0.0529
     33 C          10.2348   -4.6500   -6.1024 C.3     1  UNL1       -0.0529
     34 C           8.7417   -4.8585   -6.3716 C.3     1  UNL1       -0.0480
     35 C           7.8434   -4.2058   -5.3166 C.3     1  UNL1       -0.0097
     36 H           0.6785   -0.8740   -0.2271 H       1  UNL1        0.0262
     37 H           0.7119    0.8594   -0.5989 H       1  UNL1        0.0262
     38 H           0.6200    0.3337    1.0826 H       1  UNL1        0.0262
     39 H           2.9403   -0.1696   -0.8128 H       1  UNL1        0.0695
     40 H           2.9128   -0.7062    0.8773 H       1  UNL1        0.0695
     41 H           4.4599    1.5160    3.7222 H       1  UNL1        0.0625
     42 H           2.4744    0.6183    4.8590 H       1  UNL1        0.0655
     43 H          -1.5046    2.0178    6.2660 H       1  UNL1        0.0660
     44 H          -1.4946    2.6613    4.6326 H       1  UNL1        0.0660
     45 H          -0.6312    3.5182    5.9853 H       1  UNL1        0.0660
     46 H          -1.1416    5.8393    3.2083 H       1  UNL1        0.0660
     47 H           0.0262    5.2804    2.0023 H       1  UNL1        0.0660
     48 H           0.5712    6.2041    3.4627 H       1  UNL1        0.0660
     49 H           2.2244    4.9649    2.5024 H       1  UNL1        0.0661
     50 H           5.0168    5.7293    2.6774 H       1  UNL1        0.0700
     51 H           7.2814    3.4709   -1.2885 H       1  UNL1        0.1543
     52 H           7.6714    1.5519   -2.9205 H       1  UNL1        0.1567
     53 H           8.3294   -0.7533   -3.9728 H       1  UNL1        0.0912
     54 H           6.9536   -0.0571   -4.9570 H       1  UNL1        0.0912
     55 H           5.7723   -2.1040   -4.6250 H       1  UNL1        0.2021
     56 H           6.8873   -2.6959   -3.6458 H       1  UNL1        0.2021
     57 H           6.6684   -2.8055   -6.4637 H       1  UNL1        0.0850
     58 H           8.3926   -0.8516   -6.1966 H       1  UNL1        0.0320
     59 H           8.7224   -2.1031   -7.3041 H       1  UNL1        0.0320
     60 H           9.8111   -2.4393   -4.4529 H       1  UNL1        0.0267
     61 H          10.5112   -1.2298   -5.5080 H       1  UNL1        0.0267
     62 H          11.7859   -3.1835   -5.8853 H       1  UNL1        0.0265
     63 H          10.7868   -2.9561   -7.3095 H       1  UNL1        0.0265
     64 H          10.4761   -5.0203   -5.0984 H       1  UNL1        0.0265
     65 H          10.7993   -5.2734   -6.8059 H       1  UNL1        0.0265
     66 H           8.5519   -5.9384   -6.3660 H       1  UNL1        0.0267
     67 H           8.4817   -4.5040   -7.3759 H       1  UNL1        0.0267
     68 H           8.3389   -4.2370   -4.3369 H       1  UNL1        0.0320
     69 H           6.9309   -4.8061   -5.2047 H       1  UNL1        0.0320
@<TRIPOS>UNITY_ATOM_ATTR
28 1
charge 1
@<TRIPOS>BOND
     1     1     2    1
     2     2     3    1
     3     3     4    1
     4     4     5    2
     5     4     6    1
     6     6     7   ar
     7     7     8    1
     8     8     9   ar
     9     9    10   ar
    10    10    11   ar
    11    11    12    1
    12    12    13    1
    13    11    14   ar
    14    14    15    1
    15    15    16    1
    16    14    17   ar
    17     8    17   ar
    18     7    18   ar
    19    18    19   ar
    20    19    20   ar
    21     6    20   ar
    22    20    21    1
    23    21    22    1
    24    22    23    2
    25    22    24    1
    26    24    25   am
    27    25    26    2
    28    25    27    1
    29    27    28    1
    30    28    29    1
    31    29    30    1
    32    30    31    1
    33    31    32    1
    34    32    33    1
    35    33    34    1
    36    34    35    1
    37    29    35    1
    38     1    36    1
    39     1    37    1
    40     1    38    1
    41     2    39    1
    42     2    40    1
    43     9    41    1
    44    10    42    1
    45    13    43    1
    46    13    44    1
    47    13    45    1
    48    16    46    1
    49    16    47    1
    50    16    48    1
    51    17    49    1
    52    18    50    1
    53    21    51    1
    54    24    52    1
    55    27    53    1
    56    27    54    1
    57    28    55    1
    58    28    56    1
    59    29    57    1
    60    30    58    1
    61    30    59    1
    62    31    60    1
    63    31    61    1
    64    32    62    1
    65    32    63    1
    66    33    64    1
    67    33    65    1
    68    34    66    1
    69    34    67    1
    70    35    68    1
    71    35    69    1
