@<TRIPOS>MOLECULE
*****
 33 34 0 0 0
SMALL
GASTEIGER

@<TRIPOS>ATOM
      1 C           0.3336   -2.3546   -0.0064 C.3     1  UNL1       -0.0386
      2 C           0.9958   -1.0064    0.0016 C.ar    1  UNL1       -0.0347
      3 C           2.3979   -0.9675    0.0006 C.ar    1  UNL1       -0.0365
      4 C           3.1330    0.2221    0.0003 C.ar    1  UNL1        0.0340
      5 N           4.5606    0.2227    0.0016 N.am    1  UNL1       -0.2815
      6 C           5.3511   -0.9230   -0.0362 C.2     1  UNL1        0.2483
      7 O           4.9582   -2.0916   -0.0809 O.2     1  UNL1       -0.2699
      8 C           6.8237   -0.7876   -0.0162 C.ar    1  UNL1        0.0371
      9 C           7.5751   -1.7060   -0.7670 C.ar    1  UNL1       -0.0490
     10 C           8.9640   -1.7916   -0.6182 C.ar    1  UNL1       -0.0516
     11 C           9.6437   -0.9065    0.2282 C.ar    1  UNL1        0.0030
     12 C          11.1477   -0.8831    0.2822 C.2     1  UNL1        0.0768
     13 N          11.8475   -1.7583   -0.5144 N.am    1  UNL1       -0.3518
     14 S          12.0759    0.1763    1.1929 S.2     1  UNL1       -0.0352
     15 C           8.8721   -0.0046    0.9915 C.ar    1  UNL1       -0.0516
     16 C           7.4734    0.0553    0.8781 C.ar    1  UNL1       -0.0490
     17 C           2.4143    1.4233   -0.0006 C.ar    1  UNL1       -0.0394
     18 C           1.0046    1.4099    0.0040 C.ar    1  UNL1       -0.0458
     19 C           0.3004    0.2005    0.0051 C.ar    1  UNL1        0.0209
     20 BR         -1.5966    0.2488    0.0055 Br      1  UNL1       -0.0500
     21 H           1.0744   -3.1637   -0.0039 H       1  UNL1        0.0278
     22 H          -0.2703   -2.4771   -0.9097 H       1  UNL1        0.0278
     23 H          -0.2840   -2.4841    0.8864 H       1  UNL1        0.0278
     24 H           2.8956   -1.9281   -0.0014 H       1  UNL1        0.0639
     25 H           5.0183    1.1269   -0.0088 H       1  UNL1        0.1551
     26 H           7.0717   -2.3893   -1.4516 H       1  UNL1        0.0625
     27 H           9.4750   -2.5761   -1.1656 H       1  UNL1        0.0624
     28 H          11.4498   -2.4327   -1.1507 H       1  UNL1        0.1428
     29 H          12.8603   -1.6920   -0.5129 H       1  UNL1        0.1428
     30 H           9.3436    0.6585    1.7135 H       1  UNL1        0.0624
     31 H           6.9125    0.7188    1.5291 H       1  UNL1        0.0625
     32 H           2.9154    2.3878   -0.0083 H       1  UNL1        0.0636
     33 H           0.4557    2.3500    0.0044 H       1  UNL1        0.0629
@<TRIPOS>BOND
     1     1     2    1
     2     2     3   ar
     3     3     4   ar
     4     4     5    1
     5     5     6   am
     6     6     7    2
     7     6     8    1
     8     8     9   ar
     9     9    10   ar
    10    10    11   ar
    11    11    12    1
    12    12    13    1
    13    12    14    2
    14    11    15   ar
    15    15    16   ar
    16     8    16   ar
    17     4    17   ar
    18    17    18   ar
    19    18    19   ar
    20     2    19   ar
    21    19    20    1
    22     1    21    1
    23     1    22    1
    24     1    23    1
    25     3    24    1
    26     5    25    1
    27     9    26    1
    28    10    27    1
    29    13    28    1
    30    13    29    1
    31    15    30    1
    32    16    31    1
    33    17    32    1
    34    18    33    1
