@<TRIPOS>MOLECULE
*****
 53 53 0 0 0
SMALL
GASTEIGER

@<TRIPOS>ATOM
      1 C           1.1339    0.3075    0.4921 C.3     1  UNL1        0.0790
      2 O           2.4903    0.0417    0.1268 O.3     1  UNL1       -0.4913
      3 C           2.9591   -1.2504   -0.0361 C.ar    1  UNL1        0.1657
      4 C           4.1668   -1.5227    0.6792 C.ar    1  UNL1       -0.0089
      5 C           4.9739   -2.6646    0.4265 C.ar    1  UNL1       -0.0177
      6 C           6.3502   -2.8210    1.0065 C.2     1  UNL1       -0.0494
      7 C           7.2382   -3.8053    0.7221 C.2     1  UNL1        0.0022
      8 C           8.6365   -3.8477    1.3002 C.2     1  UNL1        0.2530
      9 O           9.0572   -2.9847    2.0458 O.2     1  UNL1       -0.2693
     10 N           9.3887   -4.9528    0.9052 N.am    1  UNL1       -0.2316
     11 N          10.7283   -5.1392    1.3996 N.am    1  UNL1       -0.2456
     12 C          11.4750   -6.2567    1.0263 C.2     1  UNL1        0.1468
     13 S          10.8640   -7.4256   -0.0221 S.2     1  UNL1       -0.0174
     14 N          12.7480   -6.3195    1.5956 N.am    1  UNL1       -0.3254
     15 C          13.7059   -7.3988    1.3035 C.3     1  UNL1        0.0109
     16 C          15.0788   -7.2903    1.9808 C.3     1  UNL1       -0.0351
     17 C          16.0107   -8.4745    1.6096 C.3     1  UNL1       -0.0453
     18 C          16.2677   -8.5555    0.1018 C.3     1  UNL1       -0.0626
     19 C          17.3531   -8.3543    2.3367 C.3     1  UNL1       -0.0626
     20 C           4.4729   -3.6020   -0.4785 C.ar    1  UNL1       -0.0089
     21 C           3.3041   -3.3627   -1.2134 C.ar    1  UNL1        0.1657
     22 O           3.0545   -4.3558   -2.1489 O.3     1  UNL1       -0.4913
     23 C           1.9470   -4.1910   -3.0351 C.3     1  UNL1        0.0790
     24 C           2.5521   -2.1766   -1.0159 C.ar    1  UNL1        0.2035
     25 O           1.5563   -2.0757   -1.9294 O.3     1  UNL1       -0.4885
     26 C           0.5473   -1.1329   -1.8513 C.3     1  UNL1        0.0791
     27 H           1.0605    1.3091    0.9227 H       1  UNL1        0.0660
     28 H           0.7085   -0.4440    1.1605 H       1  UNL1        0.0660
     29 H           0.4780    0.4672   -0.3608 H       1  UNL1        0.0660
     30 H           4.4963   -0.7905    1.4177 H       1  UNL1        0.0661
     31 H           6.6634   -2.0132    1.6682 H       1  UNL1        0.0625
     32 H           6.9935   -4.6097    0.0408 H       1  UNL1        0.0670
     33 H           9.0491   -5.6816    0.2831 H       1  UNL1        0.1731
     34 H          11.0664   -4.4146    2.0280 H       1  UNL1        0.1718
     35 H          13.0669   -5.5638    2.1879 H       1  UNL1        0.1478
     36 H          13.8375   -7.4033    0.2179 H       1  UNL1        0.0462
     37 H          13.2426   -8.3484    1.5957 H       1  UNL1        0.0462
     38 H          14.9492   -7.2648    3.0701 H       1  UNL1        0.0283
     39 H          15.5606   -6.3465    1.6986 H       1  UNL1        0.0283
     40 H          15.5376   -9.4131    1.9289 H       1  UNL1        0.0296
     41 H          16.7301   -7.6319   -0.2622 H       1  UNL1        0.0232
     42 H          15.3439   -8.7194   -0.4592 H       1  UNL1        0.0232
     43 H          16.9342   -9.3899   -0.1411 H       1  UNL1        0.0232
     44 H          17.8750   -7.4358    2.0476 H       1  UNL1        0.0232
     45 H          18.0067   -9.2005    2.0937 H       1  UNL1        0.0232
     46 H          17.2141   -8.3419    3.4221 H       1  UNL1        0.0232
     47 H           5.0010   -4.5288   -0.6789 H       1  UNL1        0.0661
     48 H           1.8923   -5.0332   -3.7253 H       1  UNL1        0.0660
     49 H           2.0706   -3.2985   -3.6642 H       1  UNL1        0.0660
     50 H           1.0042   -4.1862   -2.4728 H       1  UNL1        0.0660
     51 H          -0.1937   -1.2674   -2.6396 H       1  UNL1        0.0660
     52 H           1.0121   -0.1631   -2.0319 H       1  UNL1        0.0660
     53 H           0.0086   -1.3056   -0.9166 H       1  UNL1        0.0660
@<TRIPOS>BOND
     1     1     2    1
     2     2     3    1
     3     3     4   ar
     4     4     5   ar
     5     5     6    1
     6     6     7    2
     7     7     8    1
     8     8     9    2
     9     8    10   am
    10    10    11    1
    11    11    12    1
    12    12    13    2
    13    12    14    1
    14    14    15    1
    15    15    16    1
    16    16    17    1
    17    17    18    1
    18    17    19    1
    19     5    20   ar
    20    20    21   ar
    21    21    22    1
    22    22    23    1
    23    21    24   ar
    24     3    24   ar
    25    24    25    1
    26    25    26    1
    27     1    27    1
    28     1    28    1
    29     1    29    1
    30     4    30    1
    31     6    31    1
    32     7    32    1
    33    10    33    1
    34    11    34    1
    35    14    35    1
    36    15    36    1
    37    15    37    1
    38    16    38    1
    39    16    39    1
    40    17    40    1
    41    18    41    1
    42    18    42    1
    43    18    43    1
    44    19    44    1
    45    19    45    1
    46    19    46    1
    47    20    47    1
    48    23    48    1
    49    23    49    1
    50    23    50    1
    51    26    51    1
    52    26    52    1
    53    26    53    1
