REMARK  8 active torsions:
REMARK  status: ('A' for Active; 'I' for Inactive)
REMARK    1  A    between atoms: C_2  and  C_3 
REMARK       I    between atoms: C_2  and  N_14 
REMARK    2  A    between atoms: C_3  and  C_4 
REMARK    3  A    between atoms: C_4  and  C_5 
REMARK    4  A    between atoms: N_14  and  N_15 
REMARK    5  A    between atoms: C_25  and  S_26 
REMARK    6  A    between atoms: S_26  and  C_27 
REMARK    7  A    between atoms: C_27  and  C_28 
REMARK    8  A    between atoms: C_28  and  C_30 
ROOT
ATOM      1  N   UNL d   1       4.436   1.141   0.875  0.00  0.00    -0.114 NA
ATOM      2  C   UNL d   1       4.998   2.287   1.515  0.00  0.00     0.253 C 
ATOM      3  O   UNL d   1       4.355   2.926   2.349  0.00  0.00    -0.272 OA
ATOM      4  C   UNL d   1       6.542   2.391   1.430  0.00  0.00     0.051 C 
ATOM      5  C   UNL d   1       7.334   2.135   0.299  0.00  0.00     0.015 C 
ATOM      6  C   UNL d   1       8.677   1.635   0.400  0.00  0.00     0.001 C 
ATOM      7  C   UNL d   1       9.320   1.534   1.630  0.00  0.00    -0.001 C 
ATOM      8  C   UNL d   1       8.528   1.688   2.748  0.00  0.00     0.023 C 
ATOM      9  C   UNL d   1       7.108   1.786   2.540  0.00  0.00     0.253 C 
ATOM     10  N   UNL d   1       6.292   0.355   2.643  0.00  0.00     0.135 N 
ATOM     11  C   UNL d   1       5.287  -0.005   1.215  0.00  0.00     0.386 C 
ATOM     12  H   UNL d   1       5.710   0.798   3.401  0.00  0.00     0.321 HD
ENDROOT
BRANCH   1  13
ATOM     13  N   UNL d   1       2.956   0.936   1.077  0.00  0.00    -0.279 N 
ATOM     14  C   UNL d   1       2.057   0.275   0.253  0.00  0.00     0.232 C 
ATOM     15  O   UNL d   1       0.837   0.409   0.339  0.00  0.00    -0.272 OA
ATOM     16  H   UNL d   1       2.490   1.678   1.595  0.00  0.00     0.184 HD
BRANCH  14  17
ATOM     17  C   UNL d   1       2.585  -0.695  -0.715  0.00  0.00     0.108 C 
BRANCH  17  18
ATOM     18  C   UNL d   1       1.531  -1.408  -1.511  0.00  0.00     0.045 C 
BRANCH  18  19
ATOM     19  C   UNL d   1       2.167  -2.145  -2.599  0.00  0.00    -0.054 C 
ATOM     20  C   UNL d   1       2.933  -1.719  -3.714  0.00  0.00    -0.011 C 
ATOM     21  C   UNL d   1       3.928  -0.567  -4.105  0.00  0.00     0.013 C 
ATOM     22  C   UNL d   1       3.004  -2.981  -4.600  0.00  0.00     0.019 C 
ATOM     23  C   UNL d   1       4.887  -0.584  -5.096  0.00  0.00     0.001 C 
ATOM     24  C   UNL d   1       5.260  -1.715  -5.866  0.00  0.00     0.002 C 
ATOM     25  C   UNL d   1       4.553  -2.805  -5.603  0.00  0.00     0.024 C 
ATOM     26  N   UNL d   1       2.249  -4.078  -4.057  0.00  0.00    -0.288 NA
ATOM     27  C   UNL d   1       1.799  -3.850  -2.413  0.00  0.00     0.127 C 
ATOM     28  H   UNL d   1       2.554  -5.114  -3.993  0.00  0.00     0.128 HD
ENDBRANCH  18  19
ENDBRANCH  17  18
ENDBRANCH  14  17
ENDBRANCH   1  13
BRANCH  11  29
ATOM     29  S   UNL d   1       5.668  -1.233  -0.402  0.00  0.00    -0.109 SA
BRANCH  29  30
ATOM     30  C   UNL d   1       5.458  -2.401  -1.865  0.00  0.00     0.161 C 
BRANCH  30  31
ATOM     31  C   UNL d   1       4.876  -3.540  -2.707  0.00  0.00     0.168 C 
ATOM     32  O   UNL d   1       3.692  -3.638  -2.537  0.00  0.00    -0.292 OA
BRANCH  31  33
ATOM     33  C   UNL d   1       4.873  -4.698  -3.893  0.00  0.00     0.011 C 
ATOM     34  C   UNL d   1       5.854  -5.449  -3.496  0.00  0.00     0.017 C 
ATOM     35  C   UNL d   1       6.393  -5.968  -4.640  0.00  0.00     0.025 C 
ATOM     36  C   UNL d   1       5.839  -6.044  -6.040  0.00  0.00     0.034 C 
ATOM     37 CL   UNL d   1       6.942  -6.316  -7.312  0.00  0.00    -0.084 Cl
ATOM     38  C   UNL d   1       4.586  -5.696  -6.435  0.00  0.00     0.025 C 
ATOM     39  C   UNL d   1       4.048  -5.102  -5.348  0.00  0.00     0.017 C 
ENDBRANCH  31  33
ENDBRANCH  30  31
ENDBRANCH  29  30
ENDBRANCH  11  29
TORSDOF 8
