@<TRIPOS>MOLECULE
*****
 71 72 0 0 0
SMALL
GASTEIGER

@<TRIPOS>ATOM
      1 C           1.0238   -0.0004    0.0962 C.3     1  UNL1       -0.0622
      2 C           2.5417   -0.0031    0.1263 C.3     1  UNL1       -0.0215
      3 C           3.0657   -0.7864    1.3267 C.3     1  UNL1        0.0893
      4 O           4.4868   -0.6557    1.3576 O.3     1  UNL1       -0.4920
      5 C           5.1516   -1.4378    2.2608 C.ar    1  UNL1        0.1205
      6 C           6.3625   -0.9292    2.7321 C.ar    1  UNL1       -0.0197
      7 C           7.1995   -1.7106    3.5415 C.ar    1  UNL1       -0.0551
      8 C           6.8014   -2.9923    3.9554 C.ar    1  UNL1       -0.0467
      9 C           7.6643   -3.7778    4.9291 C.3     1  UNL1       -0.0194
     10 C           7.0936   -5.1459    5.3726 C.3     1  UNL1        0.0296
     11 C           7.9867   -5.8562    6.3838 C.2     1  UNL1        0.2325
     12 O           9.0367   -5.3442    6.7787 O.2     1  UNL1       -0.2741
     13 N           7.5220   -7.1070    6.8144 N.am    1  UNL1       -0.2069
     14 N           8.2868   -7.8107    7.7280 N.2     1  UNL1       -0.1865
     15 C           7.8922   -8.9723    8.1468 C.2     1  UNL1        0.0681
     16 C           8.7451   -9.7559    9.1603 C.2     1  UNL1        0.0757
     17 C          10.0276   -9.1243    9.6322 C.3     1  UNL1       -0.0193
     18 N           8.3136  -10.9242    9.5537 N.2     1  UNL1       -0.1836
     19 N           9.0611  -11.6662   10.4653 N.am    1  UNL1       -0.2067
     20 C           8.6042  -12.9187   10.8804 C.2     1  UNL1        0.2325
     21 O           7.5472  -13.4261   10.4939 O.2     1  UNL1       -0.2741
     22 C           9.5099  -13.6285   11.8861 C.3     1  UNL1        0.0296
     23 C           8.9397  -15.0020   12.2984 C.3     1  UNL1       -0.0194
     24 C           9.7397  -15.7727   13.3310 C.ar    1  UNL1       -0.0467
     25 C           9.6446  -17.1722   13.4041 C.ar    1  UNL1       -0.0551
     26 C          10.2172  -17.8734   14.4768 C.ar    1  UNL1       -0.0197
     27 C          10.9609  -17.2009   15.4479 C.ar    1  UNL1        0.1205
     28 O          11.5393  -17.9775   16.4192 O.3     1  UNL1       -0.4920
     29 C          12.4016  -17.2836   17.3268 C.3     1  UNL1        0.0893
     30 C          13.0617  -18.2825   18.2681 C.3     1  UNL1       -0.0215
     31 C          13.9421  -17.5713   19.2833 C.3     1  UNL1       -0.0622
     32 C          11.0726  -15.8154   15.3662 C.ar    1  UNL1       -0.0197
     33 C          10.4657  -15.1125   14.3259 C.ar    1  UNL1       -0.0551
     34 C           5.5812   -3.4827    3.4764 C.ar    1  UNL1       -0.0551
     35 C           4.7635   -2.7171    2.6415 C.ar    1  UNL1       -0.0197
     36 H           0.6578    0.5678   -0.7639 H       1  UNL1        0.0231
     37 H           0.6205    0.4575    1.0050 H       1  UNL1        0.0231
     38 H           0.6315   -1.0201    0.0238 H       1  UNL1        0.0231
     39 H           2.9209    1.0247    0.1559 H       1  UNL1        0.0295
     40 H           2.9315   -0.4438   -0.8003 H       1  UNL1        0.0295
     41 H           2.7402   -1.8257    1.2165 H       1  UNL1        0.0696
     42 H           2.6580   -0.3716    2.2552 H       1  UNL1        0.0696
     43 H           6.6552    0.0851    2.4698 H       1  UNL1        0.0654
     44 H           8.1656   -1.3062    3.8396 H       1  UNL1        0.0621
     45 H           7.8003   -3.1491    5.8202 H       1  UNL1        0.0318
     46 H           8.6587   -3.9183    4.4847 H       1  UNL1        0.0318
     47 H           6.9771   -5.7917    4.4942 H       1  UNL1        0.0362
     48 H           6.1073   -4.9952    5.8292 H       1  UNL1        0.0362
     49 H           6.6500   -7.4985    6.4707 H       1  UNL1        0.1772
     50 H           6.9614   -9.4704    7.8266 H       1  UNL1        0.0864
     51 H          10.2057   -8.1484    9.1799 H       1  UNL1        0.0293
     52 H          10.8652   -9.7796    9.3759 H       1  UNL1        0.0293
     53 H           9.9863   -8.9974   10.7179 H       1  UNL1        0.0293
     54 H           9.9342  -11.2965   10.8281 H       1  UNL1        0.1772
     55 H           9.5986  -12.9766   12.7627 H       1  UNL1        0.0362
     56 H          10.5109  -13.7642   11.4596 H       1  UNL1        0.0362
     57 H           8.8127  -15.6227   11.4018 H       1  UNL1        0.0318
     58 H           7.9369  -14.8609   12.7251 H       1  UNL1        0.0318
     59 H           9.1087  -17.7310   12.6381 H       1  UNL1        0.0621
     60 H          10.0673  -18.9478   14.5591 H       1  UNL1        0.0654
     61 H          11.8118  -16.5730   17.9188 H       1  UNL1        0.0696
     62 H          13.1865  -16.7493   16.7749 H       1  UNL1        0.0696
     63 H          13.6586  -18.9981   17.6905 H       1  UNL1        0.0295
     64 H          12.2920  -18.8677   18.7835 H       1  UNL1        0.0295
     65 H          14.7401  -17.0098   18.7862 H       1  UNL1        0.0231
     66 H          14.4052  -18.2935   19.9618 H       1  UNL1        0.0231
     67 H          13.3554  -16.8680   19.8837 H       1  UNL1        0.0231
     68 H          11.6055  -15.2349   16.1104 H       1  UNL1        0.0654
     69 H          10.5632  -14.0328   14.3327 H       1  UNL1        0.0621
     70 H           5.2379   -4.4807    3.7268 H       1  UNL1        0.0621
     71 H           3.8452   -3.1722    2.2912 H       1  UNL1        0.0654
@<TRIPOS>BOND
     1     1     2    1
     2     2     3    1
     3     3     4    1
     4     4     5    1
     5     5     6   ar
     6     6     7   ar
     7     7     8   ar
     8     8     9    1
     9     9    10    1
    10    10    11    1
    11    11    12    2
    12    11    13   am
    13    13    14    1
    14    14    15    2
    15    15    16    1
    16    16    17    1
    17    16    18    2
    18    18    19    1
    19    19    20   am
    20    20    21    2
    21    20    22    1
    22    22    23    1
    23    23    24    1
    24    24    25   ar
    25    25    26   ar
    26    26    27   ar
    27    27    28    1
    28    28    29    1
    29    29    30    1
    30    30    31    1
    31    27    32   ar
    32    32    33   ar
    33    24    33   ar
    34     8    34   ar
    35    34    35   ar
    36     5    35   ar
    37     1    36    1
    38     1    37    1
    39     1    38    1
    40     2    39    1
    41     2    40    1
    42     3    41    1
    43     3    42    1
    44     6    43    1
    45     7    44    1
    46     9    45    1
    47     9    46    1
    48    10    47    1
    49    10    48    1
    50    13    49    1
    51    15    50    1
    52    17    51    1
    53    17    52    1
    54    17    53    1
    55    19    54    1
    56    22    55    1
    57    22    56    1
    58    23    57    1
    59    23    58    1
    60    25    59    1
    61    26    60    1
    62    29    61    1
    63    29    62    1
    64    30    63    1
    65    30    64    1
    66    31    65    1
    67    31    66    1
    68    31    67    1
    69    32    68    1
    70    33    69    1
    71    34    70    1
    72    35    71    1
