@<TRIPOS>MOLECULE
*****
 74 76 0 0 0
SMALL
GASTEIGER

@<TRIPOS>ATOM
      1 C           0.6587    0.3037    0.1690 C.3     1  UNL1       -0.0307
      2 C           2.1627    0.4010    0.3340 C.3     1  UNL1        0.0870
      3 O           2.8384    1.4796   -0.3191 O.3     1  UNL1       -0.4884
      4 C           4.2311    1.4787   -0.4286 C.ar    1  UNL1        0.1663
      5 C           4.8260    2.6965    0.0017 C.ar    1  UNL1       -0.0021
      6 C           6.1787    3.0290   -0.2737 C.ar    1  UNL1        0.0661
      7 C           6.6540    4.4472   -0.0059 C.2     1  UNL1        0.3399
      8 O           5.9463    5.3000    0.4743 O.2     1  UNL1       -0.2449
      9 O           7.9368    4.6587   -0.4248 O.3     1  UNL1       -0.4517
     10 C           8.4632    6.0051   -0.2656 C.3     1  UNL1        0.1687
     11 C           9.9219    6.0502   -0.7611 C.2     1  UNL1        0.2549
     12 O          10.4503    5.0419   -1.2331 O.2     1  UNL1       -0.2717
     13 N          10.5980    7.2651   -0.6021 N.am    1  UNL1       -0.2827
     14 C          11.9265    7.4512   -1.0637 C.ar    1  UNL1        0.0336
     15 C          12.8370    8.2372   -0.3635 C.ar    1  UNL1       -0.0387
     16 C          14.1229    8.4638   -0.8908 C.ar    1  UNL1       -0.0386
     17 C          14.5851    7.8434   -2.0702 C.ar    1  UNL1        0.0343
     18 N          15.9084    8.0771   -2.5471 N.pl3   1  UNL1       -0.2974
     19 C          16.9341    8.6667   -1.7618 C.ar    1  UNL1        0.0342
     20 C          17.7160    9.7150   -2.2684 C.ar    1  UNL1       -0.0403
     21 C          18.8321   10.1821   -1.5741 C.ar    1  UNL1       -0.0600
     22 C          19.0840    9.7278   -0.2840 C.ar    1  UNL1       -0.0616
     23 C          18.2644    8.7540    0.2797 C.ar    1  UNL1       -0.0600
     24 C          17.2191    8.2060   -0.4664 C.ar    1  UNL1       -0.0403
     25 C          16.3668    7.3383   -3.7811 C.3     1  UNL1        0.0230
     26 C          15.6474    7.8812   -5.0258 C.3     1  UNL1       -0.0464
     27 C          17.8798    7.4052   -4.0822 C.3     1  UNL1       -0.0464
     28 C          13.6480    7.0384   -2.7287 C.ar    1  UNL1       -0.0386
     29 C          12.3403    6.8784   -2.2601 C.ar    1  UNL1       -0.0387
     30 C           6.9931    2.0695   -0.8849 C.ar    1  UNL1       -0.0021
     31 C           6.4436    0.8527   -1.3315 C.ar    1  UNL1        0.1663
     32 O           7.3479    0.0380   -2.0146 O.3     1  UNL1       -0.4884
     33 C           6.8335   -1.1795   -2.5754 C.3     1  UNL1        0.0870
     34 C           7.8593   -1.9830   -3.3199 C.3     1  UNL1       -0.0307
     35 C           5.0577    0.5649   -1.1382 C.ar    1  UNL1        0.2038
     36 O           4.7011   -0.5799   -1.8072 O.3     1  UNL1       -0.4855
     37 C           3.4910   -1.1614   -1.5358 C.3     1  UNL1        0.0871
     38 C           3.0544   -2.4952   -2.0570 C.3     1  UNL1       -0.0307
     39 H           0.3560   -0.7400    0.3810 H       1  UNL1        0.0262
     40 H           0.3809    0.4726   -0.8823 H       1  UNL1        0.0262
     41 H           0.1202    0.9736    0.8226 H       1  UNL1        0.0262
     42 H           2.2197   -0.4577   -0.2618 H       1  UNL1        0.0694
     43 H           2.6177    0.0848    1.2755 H       1  UNL1        0.0694
     44 H           4.2041    3.4255    0.5225 H       1  UNL1        0.0663
     45 H           8.4444    6.2824    0.7932 H       1  UNL1        0.0796
     46 H           7.8713    6.7080   -0.8631 H       1  UNL1        0.0796
     47 H          10.2010    8.0093   -0.0415 H       1  UNL1        0.1549
     48 H          12.6130    8.6381    0.6206 H       1  UNL1        0.0637
     49 H          14.7771    9.1400   -0.3446 H       1  UNL1        0.0637
     50 H          17.4820   10.1418   -3.2406 H       1  UNL1        0.0636
     51 H          19.5061   10.8897   -2.0484 H       1  UNL1        0.0618
     52 H          19.9160   10.1363    0.2818 H       1  UNL1        0.0618
     53 H          18.4503    8.3990    1.2892 H       1  UNL1        0.0618
     54 H          16.6179    7.4129   -0.0282 H       1  UNL1        0.0636
     55 H          16.1455    6.2682   -3.6523 H       1  UNL1        0.0498
     56 H          15.8484    8.9488   -5.1450 H       1  UNL1        0.0248
     57 H          14.5622    7.7826   -4.9921 H       1  UNL1        0.0248
     58 H          15.9718    7.3487   -5.9257 H       1  UNL1        0.0248
     59 H          18.2004    8.4254   -4.3103 H       1  UNL1        0.0248
     60 H          18.1378    6.8260   -4.9745 H       1  UNL1        0.0248
     61 H          18.4817    7.0221   -3.2517 H       1  UNL1        0.0248
     62 H          13.8715    6.5051   -3.6439 H       1  UNL1        0.0637
     63 H          11.6475    6.3055   -2.8704 H       1  UNL1        0.0637
     64 H           8.0482    2.2709   -1.0667 H       1  UNL1        0.0663
     65 H           6.0635   -0.9537   -3.3275 H       1  UNL1        0.0694
     66 H           6.4700   -1.8323   -1.7688 H       1  UNL1        0.0694
     67 H           8.2424   -1.4074   -4.1634 H       1  UNL1        0.0262
     68 H           7.3863   -2.8986   -3.6974 H       1  UNL1        0.0262
     69 H           8.6793   -2.2480   -2.6539 H       1  UNL1        0.0262
     70 H           2.7734   -0.4545   -1.9660 H       1  UNL1        0.0694
     71 H           3.5691   -1.3745   -0.4635 H       1  UNL1        0.0694
     72 H           3.1722   -2.5670   -3.1331 H       1  UNL1        0.0262
     73 H           1.9913   -2.6047   -1.7901 H       1  UNL1        0.0262
     74 H           3.5993   -3.2933   -1.5491 H       1  UNL1        0.0262
@<TRIPOS>BOND
     1     1     2    1
     2     2     3    1
     3     3     4    1
     4     4     5   ar
     5     5     6   ar
     6     6     7    1
     7     7     8    2
     8     7     9    1
     9     9    10    1
    10    10    11    1
    11    11    12    2
    12    11    13   am
    13    13    14    1
    14    14    15   ar
    15    15    16   ar
    16    16    17   ar
    17    17    18    1
    18    18    19    1
    19    19    20   ar
    20    20    21   ar
    21    21    22   ar
    22    22    23   ar
    23    23    24   ar
    24    19    24   ar
    25    18    25    1
    26    25    26    1
    27    25    27    1
    28    17    28   ar
    29    28    29   ar
    30    14    29   ar
    31     6    30   ar
    32    30    31   ar
    33    31    32    1
    34    32    33    1
    35    33    34    1
    36    31    35   ar
    37     4    35   ar
    38    35    36    1
    39    36    37    1
    40    37    38    1
    41     1    39    1
    42     1    40    1
    43     1    41    1
    44     2    42    1
    45     2    43    1
    46     5    44    1
    47    10    45    1
    48    10    46    1
    49    13    47    1
    50    15    48    1
    51    16    49    1
    52    20    50    1
    53    21    51    1
    54    22    52    1
    55    23    53    1
    56    24    54    1
    57    25    55    1
    58    26    56    1
    59    26    57    1
    60    26    58    1
    61    27    59    1
    62    27    60    1
    63    27    61    1
    64    28    62    1
    65    29    63    1
    66    30    64    1
    67    33    65    1
    68    33    66    1
    69    34    67    1
    70    34    68    1
    71    34    69    1
    72    37    70    1
    73    37    71    1
    74    38    72    1
    75    38    73    1
    76    38    74    1
