@<TRIPOS>MOLECULE
*****
 43 44 0 0 0
SMALL
GASTEIGER

@<TRIPOS>ATOM
      1 C           2.9820    0.0331    0.0692 C.3     1  UNL1       -0.0397
      2 C           1.4835    0.0183   -0.0027 C.ar    1  UNL1       -0.0495
      3 C           0.7522    1.2055   -0.0297 C.ar    1  UNL1       -0.0553
      4 C          -0.6412    1.1699   -0.0337 C.ar    1  UNL1       -0.0192
      5 C          -1.3148   -0.0567   -0.0213 C.ar    1  UNL1        0.1290
      6 O          -2.6816   -0.0345    0.0229 O.3     1  UNL1       -0.5060
      7 C          -0.6040   -1.2707   -0.0478 C.ar    1  UNL1        0.0783
      8 C          -1.3168   -2.5940   -0.1188 C.2     1  UNL1        0.2477
      9 O          -2.5450   -2.6776   -0.1143 O.2     1  UNL1       -0.2701
     10 N          -0.5447   -3.7446   -0.2026 N.am    1  UNL1       -0.3088
     11 C          -1.1930   -5.0349   -0.2186 C.3     1  UNL1        0.0382
     12 C          -0.2039   -6.2207   -0.2306 C.3     1  UNL1        0.0735
     13 O           0.6684   -6.1389    0.9037 O.3     1  UNL1       -0.3900
     14 C          -0.9723   -7.5640   -0.2432 C.3     1  UNL1       -0.0135
     15 C          -0.0564   -8.8011   -0.3311 C.3     1  UNL1       -0.0478
     16 C          -0.8729  -10.0999   -0.2819 C.3     1  UNL1       -0.0527
     17 C          -1.7652  -10.1642    0.9546 C.3     1  UNL1       -0.0530
     18 C          -2.6846   -8.9582    1.0190 C.3     1  UNL1       -0.0527
     19 C          -1.8819   -7.6756    0.9946 C.3     1  UNL1       -0.0478
     20 C           0.8017   -1.2085   -0.0276 C.ar    1  UNL1       -0.0432
     21 H           3.3723    1.0555    0.0784 H       1  UNL1        0.0278
     22 H           3.4102   -0.4869   -0.7933 H       1  UNL1        0.0278
     23 H           3.3141   -0.4604    0.9889 H       1  UNL1        0.0278
     24 H           1.2617    2.1664   -0.0370 H       1  UNL1        0.0621
     25 H          -1.1873    2.1090   -0.0447 H       1  UNL1        0.0654
     26 H          -3.0081    0.8760    0.0809 H       1  UNL1        0.2922
     27 H           0.4560   -3.7471   -0.0872 H       1  UNL1        0.1491
     28 H          -1.8536   -5.0787   -1.0921 H       1  UNL1        0.0487
     29 H          -1.8144   -5.0471    0.6816 H       1  UNL1        0.0487
     30 H           0.4393   -6.1481   -1.1152 H       1  UNL1        0.0611
     31 H           0.1184   -6.1526    1.7067 H       1  UNL1        0.2099
     32 H          -1.6033   -7.5696   -1.1438 H       1  UNL1        0.0326
     33 H           0.6692   -8.8022    0.4913 H       1  UNL1        0.0269
     34 H           0.5201   -8.7799   -1.2645 H       1  UNL1        0.0269
     35 H          -0.2025  -10.9660   -0.2935 H       1  UNL1        0.0265
     36 H          -1.5003  -10.1681   -1.1797 H       1  UNL1        0.0265
     37 H          -1.1411  -10.1989    1.8564 H       1  UNL1        0.0265
     38 H          -2.3690  -11.0769    0.9416 H       1  UNL1        0.0265
     39 H          -3.2825   -8.9825    1.9362 H       1  UNL1        0.0265
     40 H          -3.3815   -8.9642    0.1728 H       1  UNL1        0.0265
     41 H          -1.2795   -7.6214    1.9087 H       1  UNL1        0.0269
     42 H          -2.5986   -6.8526    1.0275 H       1  UNL1        0.0269
     43 H           1.4086   -2.1062   -0.0266 H       1  UNL1        0.0629
@<TRIPOS>BOND
     1     1     2    1
     2     2     3   ar
     3     3     4   ar
     4     4     5   ar
     5     5     6    1
     6     5     7   ar
     7     7     8    1
     8     8     9    2
     9     8    10   am
    10    10    11    1
    11    11    12    1
    12    12    13    1
    13    12    14    1
    14    14    15    1
    15    15    16    1
    16    16    17    1
    17    17    18    1
    18    18    19    1
    19    14    19    1
    20     7    20   ar
    21     2    20   ar
    22     1    21    1
    23     1    22    1
    24     1    23    1
    25     3    24    1
    26     4    25    1
    27     6    26    1
    28    10    27    1
    29    11    28    1
    30    11    29    1
    31    12    30    1
    32    13    31    1
    33    14    32    1
    34    15    33    1
    35    15    34    1
    36    16    35    1
    37    16    36    1
    38    17    37    1
    39    17    38    1
    40    18    39    1
    41    18    40    1
    42    19    41    1
    43    19    42    1
    44    20    43    1
