@<TRIPOS>MOLECULE
*****
 47 48 0 0 0
SMALL
GASTEIGER

@<TRIPOS>ATOM
      1 C           2.9598   -1.4224   -0.2318 C.3     1  UNL1       -0.0380
      2 C           2.4597    0.0020    0.0049 C.3     1  UNL1        0.0983
      3 N           0.9811   -0.0373    0.1184 N.am    1  UNL1       -0.3002
      4 C           0.2980    0.6939    1.0676 C.2     1  UNL1        0.2449
      5 O           0.8587    1.3520    1.9445 O.2     1  UNL1       -0.2702
      6 C          -1.1960    0.6591    1.0419 C.ar    1  UNL1        0.0431
      7 C          -1.9070    1.8216    1.3866 C.ar    1  UNL1       -0.0492
      8 C          -3.2970    1.7912    1.5571 C.ar    1  UNL1       -0.0546
      9 C          -4.0015    0.6094    1.3332 C.ar    1  UNL1        0.0156
     10 C          -3.2960   -0.5513    0.9850 C.ar    1  UNL1        0.2739
     11 N          -4.0263   -1.8179    0.8351 N.pl3   1  UNL1        0.0796
     12 O          -5.2564   -1.7994    0.9841 O.2     1  UNL1        0.0414
     13 O          -3.3646   -2.8321    0.5729 O.co2   1  UNL1       -0.5760
     14 C          -1.8955   -0.5358    0.8368 C.ar    1  UNL1        0.0277
     15 C           2.9584    0.9773   -1.1284 C.2     1  UNL1        0.2491
     16 O           2.1776    1.5833   -1.8658 O.2     1  UNL1       -0.2723
     17 N           4.3408    1.1022   -1.2644 N.am    1  UNL1       -0.2336
     18 N           4.9294    1.9554   -2.2763 N.am    1  UNL1       -0.2458
     19 C           6.3215    2.0547   -2.3936 C.2     1  UNL1        0.1470
     20 S           7.3477    1.1700   -1.3936 S.2     1  UNL1       -0.0174
     21 N           6.7711    2.9429   -3.3753 N.am    1  UNL1       -0.3226
     22 C           8.1979    3.1803   -3.7140 C.3     1  UNL1        0.0222
     23 C           8.7709    2.1813   -4.7248 C.3     1  UNL1       -0.0345
     24 C          10.0940    2.8054   -5.1647 C.3     1  UNL1       -0.0513
     25 C           9.8896    4.3153   -5.0563 C.3     1  UNL1       -0.0513
     26 C           8.5168    4.5188   -4.3947 C.3     1  UNL1       -0.0345
     27 H           4.0527   -1.4725   -0.2294 H       1  UNL1        0.0252
     28 H           2.6073   -1.8061   -1.1955 H       1  UNL1        0.0252
     29 H           2.5934   -2.1039    0.5464 H       1  UNL1        0.0252
     30 H           2.8659    0.3632    0.9579 H       1  UNL1        0.0592
     31 H           0.4681   -0.3943   -0.6786 H       1  UNL1        0.1498
     32 H          -1.3730    2.7583    1.5433 H       1  UNL1        0.0625
     33 H          -3.8260    2.6822    1.8923 H       1  UNL1        0.0620
     34 H          -5.0849    0.6057    1.4504 H       1  UNL1        0.0685
     35 H          -1.3527   -1.4520    0.6221 H       1  UNL1        0.0693
     36 H           5.0087    0.6180   -0.6658 H       1  UNL1        0.1728
     37 H           4.2647    2.4750   -2.8463 H       1  UNL1        0.1718
     38 H           6.0855    3.3853   -3.9751 H       1  UNL1        0.1480
     39 H           8.7833    3.1402   -2.7886 H       1  UNL1        0.0498
     40 H           8.1080    2.0847   -5.5931 H       1  UNL1        0.0283
     41 H           8.9190    1.1830   -4.3047 H       1  UNL1        0.0283
     42 H          10.3707    2.5032   -6.1807 H       1  UNL1        0.0266
     43 H          10.9099    2.4894   -4.5022 H       1  UNL1        0.0266
     44 H           9.9262    4.7908   -6.0432 H       1  UNL1        0.0266
     45 H          10.6948    4.7627   -4.4598 H       1  UNL1        0.0266
     46 H           7.7772    4.7636   -5.1650 H       1  UNL1        0.0283
     47 H           8.5442    5.3503   -3.6828 H       1  UNL1        0.0283
@<TRIPOS>UNITY_ATOM_ATTR
11 1
charge 1
13 1
charge -1
@<TRIPOS>BOND
     1     3     4   am
     2     4     5    2
     3     4     6    1
     4     6     7   ar
     5     7     8   ar
     6     8     9   ar
     7     9    10   ar
     8    10    11    1
     9    11    12    2
    10    11    13    1
    11    10    14   ar
    12     6    14   ar
    13     2    15    1
    14    15    16    2
    15    15    17   am
    16    17    18    1
    17    18    19    1
    18    19    20    2
    19    19    21    1
    20    21    22    1
    21    22    23    1
    22    23    24    1
    23    24    25    1
    24    25    26    1
    25    22    26    1
    26     2     3    1
    27     2     1    1
    28     1    27    1
    29     1    28    1
    30     1    29    1
    31     2    30    1
    32     3    31    1
    33     7    32    1
    34     8    33    1
    35     9    34    1
    36    14    35    1
    37    17    36    1
    38    18    37    1
    39    21    38    1
    40    22    39    1
    41    23    40    1
    42    23    41    1
    43    24    42    1
    44    24    43    1
    45    25    44    1
    46    25    45    1
    47    26    46    1
    48    26    47    1
