@<TRIPOS>MOLECULE
*****
 60 62 0 0 0
SMALL
GASTEIGER

@<TRIPOS>ATOM
      1 C           1.0441   -0.0653   -0.0251 C.3     1  UNL1       -0.0653
      2 C           2.5526   -0.1650   -0.1498 C.3     1  UNL1       -0.0559
      3 C           3.0881   -1.2856    0.7304 C.3     1  UNL1       -0.0532
      4 C           4.5945   -1.4010    0.5607 C.3     1  UNL1       -0.0500
      5 C           5.1487   -2.4929    1.4539 C.3     1  UNL1       -0.0186
      6 C           6.6486   -2.6580    1.2438 C.3     1  UNL1        0.0896
      7 O           7.0584   -3.5236    2.3023 O.3     1  UNL1       -0.4912
      8 C           8.3954   -3.5777    2.5550 C.ar    1  UNL1        0.1326
      9 C           8.9562   -4.8832    2.5169 C.ar    1  UNL1       -0.0192
     10 C          10.2917   -5.1226    2.8541 C.ar    1  UNL1       -0.0583
     11 C          11.1052   -4.0441    3.1551 C.ar    1  UNL1       -0.0608
     12 C          10.5458   -2.7514    3.2073 C.ar    1  UNL1       -0.0461
     13 C           9.1616   -2.4847    2.9635 C.ar    1  UNL1        0.0786
     14 C           8.6886   -1.0279    3.1143 C.2     1  UNL1        0.2531
     15 O           9.6065   -0.2169    3.1862 O.2     1  UNL1       -0.2697
     16 N           7.2800   -0.6264    3.1830 N.am    1  UNL1       -0.2626
     17 C           6.6998    0.6865    2.8921 C.2     1  UNL1        0.1533
     18 S           7.6361    2.0687    2.7222 S.2     1  UNL1       -0.0170
     19 N           5.2507    0.7948    2.7487 N.am    1  UNL1       -0.2455
     20 N           4.5646    2.2034    2.1026 N.am    1  UNL1       -0.2337
     21 C           3.0796    2.4510    1.9201 C.2     1  UNL1        0.2488
     22 O           2.3282    1.5538    2.2193 O.2     1  UNL1       -0.2723
     23 C           2.5084    4.0939    1.3641 C.3     1  UNL1        0.1009
     24 N           0.8696    4.6713    1.0595 N.ar    1  UNL1       -0.3378
     25 C           0.3107    4.6543    2.3465 C.ar    1  UNL1        0.0062
     26 C          -0.8281    4.1171    1.8262 C.ar    1  UNL1       -0.0364
     27 C          -1.2873    5.2953    1.2679 C.ar    1  UNL1       -0.0001
     28 C          -2.6763    5.7257    1.5007 C.ar    1  UNL1       -0.0526
     29 C          -3.2824    6.8986    1.1772 C.ar    1  UNL1       -0.0611
     30 C          -2.3979    7.7030    0.5529 C.ar    1  UNL1       -0.0598
     31 C          -0.9634    7.2301    0.2666 C.ar    1  UNL1       -0.0376
     32 C           0.0258    6.0146    0.5724 C.ar    1  UNL1        0.0495
     33 H           0.6730    0.7993   -0.5811 H       1  UNL1        0.0230
     34 H           0.7192    0.0366    1.0163 H       1  UNL1        0.0230
     35 H           0.5821   -0.9703   -0.4273 H       1  UNL1        0.0230
     36 H           3.0244    0.7859    0.1021 H       1  UNL1        0.0263
     37 H           2.8348   -0.3405   -1.1912 H       1  UNL1        0.0263
     38 H           2.6276   -2.2336    0.4343 H       1  UNL1        0.0265
     39 H           2.8161   -1.1216    1.7836 H       1  UNL1        0.0265
     40 H           5.0751   -0.4403    0.7547 H       1  UNL1        0.0266
     41 H           4.8447   -1.6203   -0.4786 H       1  UNL1        0.0266
     42 H           4.6616   -3.4490    1.2374 H       1  UNL1        0.0298
     43 H           4.9118   -2.2957    2.5125 H       1  UNL1        0.0298
     44 H           7.1342   -1.6819    1.2444 H       1  UNL1        0.0696
     45 H           6.8867   -3.0818    0.2669 H       1  UNL1        0.0696
     46 H           8.3442   -5.7358    2.2227 H       1  UNL1        0.0654
     47 H          10.6922   -6.1364    2.8843 H       1  UNL1        0.0619
     48 H          12.1651   -4.2037    3.3600 H       1  UNL1        0.0618
     49 H          11.2258   -1.9381    3.4636 H       1  UNL1        0.0626
     50 H           6.6635   -1.4154    3.3261 H       1  UNL1        0.1569
     51 H           4.6291   -0.0079    2.6925 H       1  UNL1        0.1718
     52 H           5.2273    2.9562    2.2631 H       1  UNL1        0.1728
     53 H           3.1498    4.5920    0.6476 H       1  UNL1        0.0588
     54 H           2.5833    4.5599    2.3569 H       1  UNL1        0.0588
     55 H           0.5877    5.6047    2.8191 H       1  UNL1        0.0809
     56 H          -1.0545    3.1817    1.3333 H       1  UNL1        0.0639
     57 H          -3.2645    5.0443    2.1196 H       1  UNL1        0.0624
     58 H          -4.3233    7.1176    1.4322 H       1  UNL1        0.0618
     59 H          -2.7943    8.6945    0.2766 H       1  UNL1        0.0618
     60 H          -0.5193    8.0521   -0.3344 H       1  UNL1        0.0638
@<TRIPOS>BOND
     1     1     2    1
     2     2     3    1
     3     3     4    1
     4     4     5    1
     5     5     6    1
     6     6     7    1
     7     7     8    1
     8     8     9   ar
     9     9    10   ar
    10    10    11   ar
    11    11    12   ar
    12    12    13   ar
    13     8    13   ar
    14    13    14    1
    15    14    15    2
    16    14    16   am
    17    16    17    1
    18    17    18    2
    19    17    19    1
    20    19    20    1
    21    20    21   am
    22    21    22    2
    23    21    23    1
    24    23    24    1
    25    24    25   ar
    26    25    26   ar
    27    26    27   ar
    28    27    28   ar
    29    28    29   ar
    30    29    30   ar
    31    30    31   ar
    32    31    32   ar
    33    27    32   ar
    34    24    32   ar
    35     1    33    1
    36     1    34    1
    37     1    35    1
    38     2    36    1
    39     2    37    1
    40     3    38    1
    41     3    39    1
    42     4    40    1
    43     4    41    1
    44     5    42    1
    45     5    43    1
    46     6    44    1
    47     6    45    1
    48     9    46    1
    49    10    47    1
    50    11    48    1
    51    12    49    1
    52    16    50    1
    53    19    51    1
    54    20    52    1
    55    23    53    1
    56    23    54    1
    57    25    55    1
    58    26    56    1
    59    28    57    1
    60    29    58    1
    61    30    59    1
    62    31    60    1
