REMARK  11 active torsions:
REMARK  status: ('A' for Active; 'I' for Inactive)
REMARK    1  A    between atoms: C_2  and  C_3 
REMARK    2  A    between atoms: C_2  and  N_11 
REMARK    3  A    between atoms: C_3  and  C_4 
REMARK    4  A    between atoms: C_4  and  C_5 
REMARK       I    between atoms: N_11  and  C_12 
REMARK       I    between atoms: C_12  and  N_14 
REMARK    5  A    between atoms: N_14  and  C_15 
REMARK    6  A    between atoms: C_16  and  C_15 
REMARK    7  A    between atoms: C_16  and  C_18 
REMARK    8  A    between atoms: C_16  and  O_17 
REMARK    9  A    between atoms: C_18  and  O_19 
REMARK   10  A    between atoms: O_19  and  C_20 
REMARK   11  A    between atoms: C_23  and  N_24 
ROOT
ATOM      1  N   UNL d   1       6.177  -7.825   2.332  0.00  0.00    -0.339 N 
ATOM      2  C   UNL d   1       5.656  -6.627   2.757  0.00  0.00     0.316 C 
ATOM      3  O   UNL d   1       4.445  -6.462   2.941  0.00  0.00    -0.247 OA
ATOM      4  N   UNL d   1       6.554  -5.590   2.953  0.00  0.00    -0.341 N 
ATOM      5  H   UNL d   1       7.168  -7.913   2.170  0.00  0.00     0.164 HD
ATOM      6  H   UNL d   1       7.547  -5.779   2.978  0.00  0.00     0.164 HD
ENDROOT
BRANCH   4   7
ATOM      7  C   UNL d   1       5.980  -4.368   3.534  0.00  0.00     0.158 C 
BRANCH   7   8
ATOM      8  C   UNL d   1       6.785  -3.070   3.786  0.00  0.00     0.160 C 
BRANCH   8   9
ATOM      9  C   UNL d   1       8.271  -3.204   4.077  0.00  0.00     0.209 C 
BRANCH   9  10
ATOM     10  O   UNL d   1       8.460  -4.111   5.154  0.00  0.00    -0.349 OA
BRANCH  10  11
ATOM     11  C   UNL d   1       9.750  -4.268   5.572  0.00  0.00     0.069 A 
ATOM     12  C   UNL d   1      10.079  -5.554   6.005  0.00  0.00     0.039 A 
ATOM     13  C   UNL d   1      11.332  -5.814   6.559  0.00  0.00     0.039 A 
ATOM     14  C   UNL d   1      12.282  -4.787   6.618  0.00  0.00     0.103 A 
ATOM     15  C   UNL d   1      11.957  -3.493   6.195  0.00  0.00     0.039 A 
ATOM     16  C   UNL d   1      10.683  -3.234   5.680  0.00  0.00     0.039 A 
BRANCH  14  17
ATOM     17  N   UNL d   1      13.645  -5.084   7.073  0.00  0.00    -0.116 N 
ATOM     18  O   UNL d   1      13.900  -6.247   7.411  0.00  0.00    -0.532 OA
ATOM     19  O   UNL d   1      14.470  -4.157   7.061  0.00  0.00    -0.532 OA
ENDBRANCH  14  17
ENDBRANCH  10  11
ENDBRANCH   9  10
ENDBRANCH   8   9
BRANCH   8  20
ATOM     20  O   UNL d   1       6.603  -2.123   2.724  0.00  0.00    -0.392 OA
ATOM     21  H   UNL d   1       6.873  -2.545   1.893  0.00  0.00     0.210 HD
ENDBRANCH   8  20
ENDBRANCH   7   8
ENDBRANCH   4   7
BRANCH   1  22
ATOM     22  C   UNL d   1       5.298  -8.986   2.029  0.00  0.00     0.082 C 
ATOM     23  C   UNL d   1       6.075 -10.176   1.456  0.00  0.00     0.032 C 
BRANCH  22  24
ATOM     24  C   UNL d   1       4.537  -9.435   3.281  0.00  0.00     0.029 C 
BRANCH  24  25
ATOM     25  C   UNL d   1       3.509 -10.552   3.054  0.00  0.00     0.040 C 
BRANCH  25  26
ATOM     26  C   UNL d   1       2.812 -10.957   4.331  0.00  0.00    -0.058 A 
ATOM     27  C   UNL d   1       2.708 -10.089   5.428  0.00  0.00     0.007 A 
ATOM     28  C   UNL d   1       2.226 -10.541   6.649  0.00  0.00     0.001 A 
ATOM     29  C   UNL d   1       1.729 -11.834   6.756  0.00  0.00     0.000 A 
ATOM     30  C   UNL d   1       1.755 -12.687   5.653  0.00  0.00     0.001 A 
ATOM     31  C   UNL d   1       2.300 -12.254   4.446  0.00  0.00     0.007 A 
ENDBRANCH  25  26
ENDBRANCH  24  25
ENDBRANCH  22  24
ENDBRANCH   1  22
TORSDOF 11
