REMARK  11 active torsions:
REMARK  status: ('A' for Active; 'I' for Inactive)
REMARK    1  A    between atoms: C_2  and  C_3 
REMARK    2  A    between atoms: C_3  and  O_4 
REMARK    3  A    between atoms: O_4  and  C_5 
REMARK    4  A    between atoms: C_10  and  C_11 
REMARK    5  A    between atoms: N_12  and  N_13 
REMARK       I    between atoms: N_13  and  C_14 
REMARK       I    between atoms: C_14  and  N_16 
REMARK    6  A    between atoms: N_16  and  N_17 
REMARK    7  A    between atoms: N_17  and  C_18 
REMARK    8  A    between atoms: C_18  and  C_19 
REMARK    9  A    between atoms: C_24  and  O_25 
REMARK   10  A    between atoms: O_25  and  C_26 
REMARK   11  A    between atoms: C_26  and  C_27 
ROOT
ATOM      1  N   UNL d   1       1.968   3.538  -0.457  0.00  0.00    -0.228 N 
ATOM      2  C   UNL d   1       1.137   3.010   0.548  0.00  0.00     0.350 C 
ATOM      3  O   UNL d   1       1.450   2.086   1.320  0.00  0.00    -0.244 OA
ATOM      4  N   UNL d   1      -0.123   3.621   0.650  0.00  0.00    -0.272 N 
ATOM      5  H   UNL d   1       1.631   4.237  -1.102  0.00  0.00     0.194 HD
ATOM      6  H   UNL d   1      -0.316   4.426   0.070  0.00  0.00     0.185 HD
ENDROOT
BRANCH   1   7
ATOM      7  N   UNL d   1       3.231   2.993  -0.650  0.00  0.00    -0.182 NA
ATOM      8  C   UNL d   1       3.942   3.273  -1.702  0.00  0.00     0.153 C 
BRANCH   8   9
ATOM      9  C   UNL d   1       5.138   2.444  -2.131  0.00  0.00     0.016 A 
ATOM     10  C   UNL d   1       6.054   3.009  -3.040  0.00  0.00     0.016 A 
ATOM     11  C   UNL d   1       7.202   2.306  -3.461  0.00  0.00     0.001 A 
ATOM     12  C   UNL d   1       7.450   1.021  -2.994  0.00  0.00     0.003 A 
ATOM     13  C   UNL d   1       6.513   0.416  -2.167  0.00  0.00     0.037 A 
ATOM     14  C   UNL d   1       5.372   1.117  -1.729  0.00  0.00     0.080 A 
BRANCH  14  15
ATOM     15  O   UNL d   1       4.658   0.423  -0.802  0.00  0.00    -0.347 OA
BRANCH  15  16
ATOM     16  C   UNL d   1       3.295   0.203  -1.101  0.00  0.00     0.202 C 
BRANCH  16  17
ATOM     17  C   UNL d   1       2.724  -0.466   0.108  0.00  0.00    -0.011 C 
ATOM     18  C   UNL d   1       1.404  -0.498   0.242  0.00  0.00     0.009 C 
ENDBRANCH  16  17
ENDBRANCH  15  16
ENDBRANCH  14  15
ENDBRANCH   8   9
ENDBRANCH   1   7
BRANCH   4  19
ATOM     19  N   UNL d   1      -0.854   3.516   1.907  0.00  0.00    -0.232 NA
ATOM     20  H   UNL d   1      -0.636   2.621   2.370  0.00  0.00     0.146 HD
BRANCH  19  21
ATOM     21  C   UNL d   1      -2.304   3.755   1.802  0.00  0.00     0.151 C 
BRANCH  21  22
ATOM     22  C   UNL d   1      -3.216   2.856   2.637  0.00  0.00    -0.010 C 
ATOM     23  C   UNL d   1      -4.122   3.548   3.485  0.00  0.00     0.011 C 
ATOM     24  C   UNL d   1      -4.876   2.893   4.459  0.00  0.00     0.001 C 
ATOM     25  C   UNL d   1      -4.821   1.512   4.546  0.00  0.00     0.003 C 
ATOM     26  C   UNL d   1      -4.035   0.796   3.639  0.00  0.00     0.037 C 
ATOM     27  C   UNL d   1      -3.270   1.442   2.645  0.00  0.00     0.076 C 
BRANCH  27  28
ATOM     28  O   UNL d   1      -2.712   0.534   1.759  0.00  0.00    -0.347 OA
BRANCH  28  29
ATOM     29  C   UNL d   1      -1.986   1.097   0.685  0.00  0.00     0.202 C 
BRANCH  29  30
ATOM     30  C   UNL d   1      -1.547   0.187  -0.404  0.00  0.00    -0.011 C 
ATOM     31  C   UNL d   1      -0.918   0.704  -1.481  0.00  0.00     0.009 C 
ENDBRANCH  29  30
ENDBRANCH  28  29
ENDBRANCH  27  28
ENDBRANCH  21  22
ENDBRANCH  19  21
ENDBRANCH   4  19
TORSDOF 11
