@<TRIPOS>MOLECULE
*****
 53 55 0 0 0
SMALL
GASTEIGER

@<TRIPOS>ATOM
      1 C           0.9821   -0.0517   -0.0884 C.2     1  UNL1       -0.0995
      2 C           2.3234   -0.0246   -0.1033 C.2     1  UNL1       -0.0542
      3 C           3.1323    1.0808    0.5082 C.3     1  UNL1        0.1076
      4 O           4.5262    0.9044    0.1649 O.3     1  UNL1       -0.4880
      5 C           5.4106    1.7421    0.7903 C.ar    1  UNL1        0.1210
      6 C           6.6449    2.0532    0.2085 C.ar    1  UNL1       -0.0193
      7 C           7.6387    2.8234    0.8988 C.ar    1  UNL1       -0.0475
      8 C           7.3618    3.3852    2.1437 C.ar    1  UNL1        0.0224
      9 C           8.2597    4.2934    2.9552 C.2     1  UNL1        0.1950
     10 O           9.3112    4.6896    2.4584 O.2     1  UNL1       -0.2868
     11 C           7.8353    4.8226    4.3069 C.2     1  UNL1        0.0711
     12 C           7.6302    6.1369    4.5268 C.2     1  UNL1        0.1883
     13 O           7.6690    7.2167    3.6934 O.2     1  UNL1       -0.5020
     14 C           7.2675    6.3043    5.9507 C.2     1  UNL1        0.2823
     15 O           6.9191    7.3760    6.4367 O.2     1  UNL1       -0.2666
     16 N           7.3708    5.0755    6.5657 N.am    1  UNL1       -0.2836
     17 C           7.0170    4.7775    7.9591 C.3     1  UNL1        0.0181
     18 C           6.5715    5.9911    8.7628 C.3     1  UNL1       -0.0138
     19 C           6.2411    5.6507   10.1994 C.3     1  UNL1        0.0456
     20 O           5.8520    6.8299   10.8913 O.3     1  UNL1       -0.3950
     21 C           7.6879    4.0256    5.6060 C.3     1  UNL1        0.0841
     22 C           6.5907    2.9663    5.6278 C.ar    1  UNL1       -0.0221
     23 C           6.9206    1.6046    5.6655 C.ar    1  UNL1       -0.0530
     24 C           5.9699    0.6430    5.3066 C.ar    1  UNL1       -0.0199
     25 C           4.6720    1.0376    4.9953 C.ar    1  UNL1        0.1169
     26 O           3.7557    0.1613    4.4938 O.3     1  UNL1       -0.5068
     27 C           4.2950    2.3726    5.0780 C.ar    1  UNL1       -0.0199
     28 C           5.2368    3.3332    5.4474 C.ar    1  UNL1       -0.0530
     29 C           6.0832    3.1694    2.5861 C.ar    1  UNL1       -0.0475
     30 C           5.1573    2.3070    2.0066 C.ar    1  UNL1       -0.0193
     31 H           0.4348   -0.8739   -0.5394 H       1  UNL1        0.0533
     32 H           0.3990    0.7384    0.3774 H       1  UNL1        0.0533
     33 H           2.8699   -0.8474   -0.5538 H       1  UNL1        0.0600
     34 H           2.9370    1.0374    1.5874 H       1  UNL1        0.0742
     35 H           2.8024    2.0472    0.1096 H       1  UNL1        0.0742
     36 H           6.8325    1.7255   -0.8100 H       1  UNL1        0.0654
     37 H           8.6005    3.0015    0.4253 H       1  UNL1        0.0626
     38 H           8.0444    6.9717    2.8344 H       1  UNL1        0.2924
     39 H           7.8872    4.2997    8.4225 H       1  UNL1        0.0466
     40 H           6.2030    4.0435    7.9668 H       1  UNL1        0.0466
     41 H           5.6820    6.4408    8.3018 H       1  UNL1        0.0302
     42 H           7.3576    6.7546    8.7499 H       1  UNL1        0.0302
     43 H           7.1078    5.2214   10.7084 H       1  UNL1        0.0557
     44 H           5.4123    4.9385   10.2480 H       1  UNL1        0.0557
     45 H           6.5553    7.4918   10.7644 H       1  UNL1        0.2094
     46 H           8.6543    3.5948    5.8975 H       1  UNL1        0.0603
     47 H           7.9341    1.2870    5.9009 H       1  UNL1        0.0622
     48 H           6.2844   -0.3891    5.1826 H       1  UNL1        0.0654
     49 H           4.0727   -0.7439    4.6488 H       1  UNL1        0.2921
     50 H           3.3475    2.6944    4.6451 H       1  UNL1        0.0654
     51 H           4.9713    4.3868    5.3182 H       1  UNL1        0.0622
     52 H           5.7582    3.7374    3.4190 H       1  UNL1        0.0626
     53 H           4.2392    2.1166    2.5399 H       1  UNL1        0.0654
@<TRIPOS>BOND
     1     1     2    2
     2     2     3    1
     3     3     4    1
     4     4     5    1
     5     5     6   ar
     6     6     7   ar
     7     7     8   ar
     8     8     9    1
     9     9    10    2
    10     9    11    1
    11    11    12    2
    12    12    13    1
    13    12    14    1
    14    14    15    2
    15    14    16   am
    16    16    17    1
    17    17    18    1
    18    18    19    1
    19    19    20    1
    20    16    21    1
    21    11    21    1
    22    21    22    1
    23    22    23   ar
    24    23    24   ar
    25    24    25   ar
    26    25    26    1
    27    25    27   ar
    28    27    28   ar
    29    22    28   ar
    30     8    29   ar
    31    29    30   ar
    32     5    30   ar
    33     1    31    1
    34     1    32    1
    35     2    33    1
    36     3    34    1
    37     3    35    1
    38     6    36    1
    39     7    37    1
    40    13    38    1
    41    17    39    1
    42    17    40    1
    43    18    41    1
    44    18    42    1
    45    19    43    1
    46    19    44    1
    47    20    45    1
    48    21    46    1
    49    23    47    1
    50    24    48    1
    51    26    49    1
    52    27    50    1
    53    28    51    1
    54    29    52    1
    55    30    53    1
