REMARK  9 active torsions:
REMARK  status: ('A' for Active; 'I' for Inactive)
REMARK    1  A    between atoms: C_2  and  N_3 
REMARK    2  A    between atoms: C_2  and  C_15 
REMARK       I    between atoms: N_3  and  C_4 
REMARK    3  A    between atoms: C_4  and  C_6 
REMARK       I    between atoms: C_6  and  N_8 
REMARK    4  A    between atoms: N_8  and  C_9 
REMARK    5  A    between atoms: C_9  and  C_10 
REMARK    6  A    between atoms: C_10  and  C_11 
REMARK    7  A    between atoms: C_11  and  C_12 
REMARK    8  A    between atoms: C_12  and  C_13 
REMARK    9  A    between atoms: C_13  and  O_14 
ROOT
ATOM      1  N   UNL d   1       2.908   0.776  -1.300  0.00  0.00    -0.345 N 
ATOM      2  C   UNL d   1       2.584   0.409  -2.594  0.00  0.00     0.309 C 
ATOM      3  O   UNL d   1       1.911  -0.566  -2.913  0.00  0.00    -0.262 OA
ATOM      4  H   UNL d   1       3.521   1.579  -1.189  0.00  0.00     0.163 HD
ENDROOT
BRANCH   2   5
ATOM      5  C   UNL d   1       3.123   1.347  -3.707  0.00  0.00     0.309 C 
ATOM      6  O   UNL d   1       3.809   2.320  -3.409  0.00  0.00    -0.262 OA
ATOM      7  N   UNL d   1       2.761   0.987  -4.995  0.00  0.00    -0.353 N 
ATOM      8  H   UNL d   1       2.177   0.160  -5.098  0.00  0.00     0.162 HD
BRANCH   7   9
ATOM      9  C   UNL d   1       3.203   1.741  -6.152  0.00  0.00     0.123 C 
BRANCH   9  10
ATOM     10  C   UNL d   1       2.703   1.165  -7.477  0.00  0.00     0.020 C 
BRANCH  10  11
ATOM     11  C   UNL d   1       3.204   1.995  -8.663  0.00  0.00     0.004 C 
BRANCH  11  12
ATOM     12  C   UNL d   1       2.711   1.428  -9.992  0.00  0.00     0.026 C 
BRANCH  12  13
ATOM     13  C   UNL d   1       3.213   2.257 -11.167  0.00  0.00     0.164 C 
BRANCH  13  14
ATOM     14  O   UNL d   1       2.729   1.714 -12.386  0.00  0.00    -0.401 OA
ATOM     15  H   UNL d   1       3.067   0.805 -12.458  0.00  0.00     0.209 HD
ENDBRANCH  13  14
ENDBRANCH  12  13
ENDBRANCH  11  12
ENDBRANCH  10  11
ENDBRANCH   9  10
ENDBRANCH   7   9
ENDBRANCH   2   5
BRANCH   1  16
ATOM     16  C   UNL d   1       2.450   0.037  -0.124  0.00  0.00     0.114 C 
ATOM     17  C   UNL d   1       0.914   0.013  -0.051  0.00  0.00     0.037 C 
BRANCH  16  18
ATOM     18  C   UNL d   1       2.943   0.636   1.192  0.00  0.00    -0.036 A 
ATOM     19  C   UNL d   1       3.264  -0.190   2.286  0.00  0.00     0.009 A 
ATOM     20  C   UNL d   1       3.431   0.357   3.565  0.00  0.00     0.001 A 
ATOM     21  C   UNL d   1       3.366   1.736   3.751  0.00  0.00     0.000 A 
ATOM     22  C   UNL d   1       3.102   2.569   2.669  0.00  0.00     0.001 A 
ATOM     23  C   UNL d   1       2.881   2.023   1.404  0.00  0.00     0.009 A 
ENDBRANCH  16  18
ENDBRANCH   1  16
TORSDOF 9
