@<TRIPOS>MOLECULE
*****
 30 31 0 0 0
SMALL
GASTEIGER

@<TRIPOS>ATOM
      1 C           2.5189   -0.1981   -0.0102 C.3     1  UNL1       -0.0390
      2 C           1.0347   -0.0144    0.0010 C.ar    1  UNL1       -0.0383
      3 C           0.2709   -1.2029    0.0045 C.ar    1  UNL1       -0.0581
      4 C          -1.1173   -1.1733   -0.0002 C.ar    1  UNL1       -0.0615
      5 C          -1.7675    0.0526   -0.0068 C.ar    1  UNL1       -0.0610
      6 C          -1.0236    1.2470   -0.0017 C.ar    1  UNL1       -0.0493
      7 C           0.3928    1.2475    0.0004 C.ar    1  UNL1        0.0411
      8 C           1.0930    2.6124    0.0026 C.2     1  UNL1        0.2604
      9 O           0.4263    3.6484    0.0030 O.2     1  UNL1       -0.2687
     10 N           2.4802    2.6624    0.0048 N.am    1  UNL1       -0.2301
     11 N           3.2119    3.8598    0.0488 N.am    1  UNL1       -0.2301
     12 C           4.5978    3.7547   -0.0187 C.2     1  UNL1        0.2607
     13 O           5.1694    2.6607   -0.0891 O.2     1  UNL1       -0.2686
     14 C           5.3265    5.0158   -0.0101 C.ar    1  UNL1        0.0451
     15 C           5.0363    6.1519    0.8162 C.ar    1  UNL1       -0.0426
     16 C           5.9092    7.1978    0.6146 C.ar    1  UNL1       -0.0236
     17 S           7.0890    6.8283   -0.5638 S.2     1  UNL1       -0.1043
     18 C           6.4532    5.2522   -0.7813 C.ar    1  UNL1       -0.0122
     19 H           2.8312   -1.2434   -0.0102 H       1  UNL1        0.0278
     20 H           2.9391    0.2455    0.8988 H       1  UNL1        0.0278
     21 H           2.9208    0.2419   -0.9295 H       1  UNL1        0.0278
     22 H           0.7711   -2.1710    0.0070 H       1  UNL1        0.0620
     23 H          -1.6796   -2.1049   -0.0010 H       1  UNL1        0.0618
     24 H          -2.8558    0.0767   -0.0168 H       1  UNL1        0.0618
     25 H          -1.5768    2.1862   -0.0012 H       1  UNL1        0.0625
     26 H           3.0973    1.8675   -0.0111 H       1  UNL1        0.1731
     27 H           2.6974    4.7330   -0.0172 H       1  UNL1        0.1731
     28 H           4.2393    6.1844    1.5485 H       1  UNL1        0.0630
     29 H           5.9145    8.1590    1.1105 H       1  UNL1        0.0693
     30 H           6.9333    4.5830   -1.4846 H       1  UNL1        0.0701
@<TRIPOS>BOND
     1     1     2    1
     2     2     3   ar
     3     3     4   ar
     4     4     5   ar
     5     5     6   ar
     6     6     7   ar
     7     2     7   ar
     8     7     8    1
     9     8     9    2
    10     8    10   am
    11    10    11    1
    12    11    12   am
    13    12    13    2
    14    12    14    1
    15    14    15   ar
    16    15    16   ar
    17    16    17   ar
    18    17    18   ar
    19    14    18   ar
    20     1    19    1
    21     1    20    1
    22     1    21    1
    23     3    22    1
    24     4    23    1
    25     5    24    1
    26     6    25    1
    27    10    26    1
    28    11    27    1
    29    15    28    1
    30    16    29    1
    31    18    30    1
