REMARK  9 active torsions:
REMARK  status: ('A' for Active; 'I' for Inactive)
REMARK    1  A    between atoms: C_2  and  C_3 
REMARK    2  A    between atoms: C_6  and  C_7 
REMARK    3  A    between atoms: C_10  and  S_11 
REMARK    4  A    between atoms: S_11  and  C_12 
REMARK    5  A    between atoms: C_12  and  C_13 
REMARK       I    between atoms: C_13  and  N_15 
REMARK    6  A    between atoms: CA_16  and  N_15 
REMARK    7  A    between atoms: CA_16  and  C_27 
REMARK    8  A    between atoms: CA_16  and  CB_17 
REMARK    9  A    between atoms: CB_17  and  CG_18 
ROOT
ATOM      1  C   UNK d   0       4.740   9.493  -0.147  0.00  0.00     0.228 C 
ATOM      2  O   UNK d   0       5.065   9.466  -1.304  0.00  0.00    -0.273 OA
ATOM      3  N   TRP d   1       4.479  10.675   0.512  0.00  0.00    -0.346 N 
ATOM      4  H   TRP d   1       4.612  11.531  -0.052  0.00  0.00     0.163 HD
ENDROOT
BRANCH   1   5
ATOM      5  C   UNK d   0       4.547   8.276   0.746  0.00  0.00     0.185 C 
BRANCH   5   6
ATOM      6  S   UNK d   0       4.929   6.662   0.013  0.00  0.00    -0.081 SA
BRANCH   6   7
ATOM      7  C   UNK d   0       4.531   5.565   1.284  0.00  0.00     0.183 C 
ATOM      8  N   UNK d   0       4.455   5.779   2.542  0.00  0.00    -0.152 NA
ATOM      9  N   UNK d   0       4.183   4.551   3.107  0.00  0.00    -0.284 N 
ATOM     10  C   UNK d   0       3.742   3.562   2.166  0.00  0.00     0.235 C 
ATOM     11  H   UNK d   0       3.780   4.511   4.038  0.00  0.00     0.185 HD
ATOM     12  N   UNK d   0       4.305   4.194   0.973  0.00  0.00    -0.342 N 
ATOM     13  H   UNK d   0       4.673   3.758   0.156  0.00  0.00     0.164 HD
BRANCH  10  14
ATOM     14  C   UNK d   0       2.249   3.360   1.957  0.00  0.00    -0.015 A 
ATOM     15  C   UNK d   0       1.685   2.077   2.112  0.00  0.00     0.011 A 
ATOM     16  C   UNK d   0       0.395   1.791   1.647  0.00  0.00     0.007 A 
ATOM     17  C   UNK d   0      -0.402   2.809   1.116  0.00  0.00    -0.059 A 
ATOM     18  C   UNK d   0       0.124   4.100   1.013  0.00  0.00     0.007 A 
ATOM     19  C   UNK d   0       1.420   4.377   1.451  0.00  0.00     0.011 A 
BRANCH  17  20
ATOM     20  C   UNK d   0      -1.866   2.588   0.831  0.00  0.00     0.034 C 
ATOM     21  C   UNK d   0      -2.668   3.092   2.027  0.00  0.00     0.010 C 
ENDBRANCH  17  20
ENDBRANCH  10  14
ENDBRANCH   6   7
ENDBRANCH   5   6
ENDBRANCH   1   5
BRANCH   3  22
ATOM     22  CA  TRP d   1       3.860  10.929   1.879  0.00  0.00     0.189 C 
BRANCH  22  23
ATOM     23  C   TRP d   1       2.996  12.326   1.678  0.00  0.00     0.197 C 
ATOM     24  O   TRP d   1       1.802  12.290   2.080  0.00  0.00    -0.646 OA
ATOM     25  OXT TRP d   1       3.614  13.256   1.067  0.00  0.00    -0.646 OA
ENDBRANCH  22  23
BRANCH  22  26
ATOM     26  CB  TRP d   1       2.795   9.725   2.631  0.00  0.00     0.073 C 
BRANCH  26  27
ATOM     27  CG  TRP d   1       3.159   8.313   3.643  0.00  0.00    -0.046 C 
ATOM     28  CD1 TRP d   1       3.812   8.835   4.745  0.00  0.00     0.112 C 
ATOM     29  NE1 TRP d   1       4.783   7.863   4.799  0.00  0.00    -0.282 NA
ATOM     30  CE2 TRP d   1       4.078   6.813   5.317  0.00  0.00     0.019 A 
ATOM     31  HE1 TRP d   1       5.394   7.620   4.033  0.00  0.00     0.128 HD
ATOM     32  CZ2 TRP d   1       4.568   5.956   6.318  0.00  0.00     0.024 A 
ATOM     33  CD2 TRP d   1       2.864   6.865   4.586  0.00  0.00    -0.011 A 
ATOM     34  CH2 TRP d   1       3.843   4.923   6.839  0.00  0.00     0.002 A 
ATOM     35  CZ3 TRP d   1       2.601   4.762   6.257  0.00  0.00     0.001 A 
ATOM     36  CE3 TRP d   1       2.092   5.661   5.111  0.00  0.00     0.013 A 
ENDBRANCH  26  27
ENDBRANCH  22  26
ENDBRANCH   3  22
TORSDOF 9
