REMARK  9 active torsions:
REMARK  status: ('A' for Active; 'I' for Inactive)
REMARK    1  A    between atoms: O_2  and  C_3 
REMARK    2  A    between atoms: C_6  and  O_7 
REMARK    3  A    between atoms: O_7  and  C_8 
REMARK    4  A    between atoms: C_8  and  C_10 
REMARK       I    between atoms: C_10  and  N_12 
REMARK    5  A    between atoms: N_12  and  N_13 
REMARK       I    between atoms: N_13  and  C_14 
REMARK       I    between atoms: C_14  and  N_16 
REMARK    6  A    between atoms: N_16  and  C_17 
REMARK    7  A    between atoms: C_17  and  C_18 
REMARK    8  A    between atoms: C_18  and  C_19 
REMARK    9  A    between atoms: C_19  and  N_20 
ROOT
ATOM      1  C   UNL d   1       5.817  -2.441  -6.850  0.00  0.00     0.265 C 
ATOM      2  O   UNL d   1       6.725  -3.208  -6.517  0.00  0.00    -0.269 OA
ATOM      3  N   UNL d   1       5.517  -2.255  -8.208  0.00  0.00    -0.264 N 
ATOM      4  H   UNL d   1       4.779  -1.646  -8.555  0.00  0.00     0.190 HD
ENDROOT
BRANCH   3   5
ATOM      5  N   UNL d   1       6.316  -2.906  -9.220  0.00  0.00    -0.249 N 
ATOM      6  C   UNL d   1       6.038  -2.694 -10.563  0.00  0.00     0.334 C 
ATOM      7  O   UNL d   1       5.123  -1.959 -10.944  0.00  0.00    -0.246 OA
ATOM      8  N   UNL d   1       6.862  -3.367 -11.453  0.00  0.00    -0.342 N 
ATOM      9  H   UNL d   1       7.593  -3.959 -11.082  0.00  0.00     0.164 HD
ATOM     10  H   UNL d   1       7.066  -3.496  -8.871  0.00  0.00     0.192 HD
BRANCH   8  11
ATOM     11  C   UNL d   1       6.681  -3.244 -12.905  0.00  0.00     0.126 C 
BRANCH  11  12
ATOM     12  C   UNL d   1       7.679  -4.060 -13.742  0.00  0.00     0.040 C 
BRANCH  12  13
ATOM     13  C   UNL d   1       7.449  -3.901 -15.252  0.00  0.00     0.130 C 
BRANCH  13  14
ATOM     14  N   UNL d   1       8.384  -4.734 -16.040  0.00  0.00    -0.352 N 
ATOM     15  C   UNL d   1       8.322  -6.120 -16.161  0.00  0.00     0.108 A 
ATOM     16  C   UNL d   1       9.331  -6.495 -17.002  0.00  0.00     0.106 A 
ATOM     17  N   UNL d   1       9.971  -5.337 -17.372  0.00  0.00    -0.361 N 
ATOM     18  C   UNL d   1       9.399  -4.275 -16.793  0.00  0.00     0.182 A 
ATOM     19  H   UNL d   1      10.768  -5.286 -18.004  0.00  0.00     0.166 HD
ENDBRANCH  13  14
ENDBRANCH  12  13
ENDBRANCH  11  12
ENDBRANCH   8  11
ENDBRANCH   3   5
BRANCH   1  20
ATOM     20  C   UNL d   1       4.936  -1.634  -5.806  0.00  0.00     0.218 C 
ATOM     21  C   UNL d   1       5.092  -0.140  -6.107  0.00  0.00     0.050 C 
BRANCH  20  22
ATOM     22  O   UNL d   1       5.338  -1.905  -4.442  0.00  0.00    -0.337 OA
BRANCH  22  23
ATOM     23  C   UNL d   1       4.575  -1.448  -3.390  0.00  0.00     0.070 A 
ATOM     24  C   UNL d   1       5.002  -1.795  -2.101  0.00  0.00     0.039 A 
ATOM     25  C   UNL d   1       4.264  -1.403  -0.967  0.00  0.00     0.039 A 
ATOM     26  C   UNL d   1       3.141  -0.586  -1.101  0.00  0.00     0.068 A 
ATOM     27  C   UNL d   1       2.752  -0.187  -2.372  0.00  0.00     0.039 A 
ATOM     28  C   UNL d   1       3.430  -0.660  -3.501  0.00  0.00     0.039 A 
BRANCH  26  29
ATOM     29  O   UNL d   1       2.531  -0.163   0.048  0.00  0.00    -0.356 OA
ATOM     30  C   UNL d   1       1.107  -0.097  -0.021  0.00  0.00     0.210 C 
ENDBRANCH  26  29
ENDBRANCH  22  23
ENDBRANCH  20  22
ENDBRANCH   1  20
TORSDOF 9
