@<TRIPOS>MOLECULE
*****
 37 39 0 0 0
SMALL
GASTEIGER

@<TRIPOS>ATOM
      1 O           1.0157   -0.1745    0.2147 O.2     1  UNL1       -0.2737
      2 C           2.2418   -0.0449    0.1204 C.2     1  UNL1        0.2366
      3 C           2.9375    1.1205   -0.5746 C.3     1  UNL1        0.0527
      4 C           2.0094    2.1542   -1.1638 C.ar    1  UNL1       -0.0136
      5 C           0.8602    1.9428   -1.9044 C.ar    1  UNL1        0.0064
      6 N           0.3125    3.1562   -2.2255 N.ar    1  UNL1       -0.3604
      7 C           1.1286    4.1736   -1.7905 C.ar    1  UNL1        0.0467
      8 C           1.0145    5.5618   -1.9472 C.ar    1  UNL1       -0.0378
      9 C           2.0335    6.3585   -1.4138 C.ar    1  UNL1       -0.0598
     10 C           3.1018    5.7918   -0.7239 C.ar    1  UNL1       -0.0611
     11 C           3.1844    4.4069   -0.5552 C.ar    1  UNL1       -0.0523
     12 C           2.1919    3.5758   -1.1113 C.ar    1  UNL1        0.0033
     13 N           3.0459   -1.0214    0.6795 N.am    1  UNL1       -0.2067
     14 N           4.4113   -0.9875    0.6569 N.2     1  UNL1       -0.1883
     15 C           5.0183   -1.9854    1.2270 C.2     1  UNL1        0.0458
     16 C           6.5034   -2.0428    1.2690 C.2     1  UNL1       -0.0387
     17 C           7.1991   -3.0503    1.8223 C.2     1  UNL1       -0.0179
     18 C           8.6285   -3.0061    1.8512 C.ar    1  UNL1        0.1277
     19 C           9.4746   -1.9390    2.1426 C.ar    1  UNL1       -0.0165
     20 C          10.8122   -2.3822    2.0250 C.ar    1  UNL1       -0.0233
     21 C          10.7340   -3.7058    1.6778 C.ar    1  UNL1        0.0925
     22 O           9.4352   -4.0988    1.5959 O.2     1  UNL1       -0.4635
     23 H           3.5713    0.7295   -1.3793 H       1  UNL1        0.0408
     24 H           3.5880    1.6017    0.1656 H       1  UNL1        0.0408
     25 H           0.3668    1.0248   -2.1965 H       1  UNL1        0.0810
     26 H          -0.5521    3.2864   -2.7324 H       1  UNL1        0.1653
     27 H           0.1804    6.0103   -2.4775 H       1  UNL1        0.0638
     28 H           1.9940    7.4376   -1.5425 H       1  UNL1        0.0618
     29 H           3.8852    6.4250   -0.3165 H       1  UNL1        0.0618
     30 H           4.0201    3.9742   -0.0152 H       1  UNL1        0.0624
     31 H           2.5486   -1.7836    1.1282 H       1  UNL1        0.1772
     32 H           4.4785   -2.8210    1.7096 H       1  UNL1        0.0845
     33 H           6.9992   -1.1979    0.8020 H       1  UNL1        0.0634
     34 H           6.7185   -3.9229    2.2539 H       1  UNL1        0.0655
     35 H           9.1480   -0.9462    2.4176 H       1  UNL1        0.0655
     36 H          11.7158   -1.8072    2.1754 H       1  UNL1        0.0649
     37 H          11.4775   -4.4647    1.4702 H       1  UNL1        0.1029
@<TRIPOS>BOND
     1     1     2    2
     2     2     3    1
     3     3     4    1
     4     4     5   ar
     5     5     6   ar
     6     6     7   ar
     7     7     8   ar
     8     8     9   ar
     9     9    10   ar
    10    10    11   ar
    11    11    12   ar
    12     4    12   ar
    13     7    12   ar
    14     2    13   am
    15    13    14    1
    16    14    15    2
    17    15    16    1
    18    16    17    2
    19    17    18    1
    20    18    19   ar
    21    19    20   ar
    22    20    21   ar
    23    21    22   ar
    24    18    22   ar
    25     3    23    1
    26     3    24    1
    27     5    25    1
    28     6    26    1
    29     8    27    1
    30     9    28    1
    31    10    29    1
    32    11    30    1
    33    13    31    1
    34    15    32    1
    35    16    33    1
    36    17    34    1
    37    19    35    1
    38    20    36    1
    39    21    37    1
