@<TRIPOS>MOLECULE
*****
 39 41 0 0 0
SMALL
GASTEIGER

@<TRIPOS>ATOM
      1 O           1.1089    0.0771    0.0188 O.2     1  UNL1       -0.2507
      2 C           2.3383    0.1673   -0.0070 C.2     1  UNL1        0.3231
      3 N           3.0810    0.5498   -1.0857 N.am    1  UNL1       -0.1781
      4 O           2.3950    1.0024   -2.2377 O.3     1  UNL1       -0.2740
      5 C           3.3336    1.5161   -3.1923 C.3     1  UNL1        0.0983
      6 C           2.6012    2.1202   -4.3632 C.ar    1  UNL1       -0.0197
      7 C           2.7190    3.4866   -4.6578 C.ar    1  UNL1       -0.0563
      8 C           1.9667    4.0570   -5.6870 C.ar    1  UNL1       -0.0614
      9 C           1.1562    3.2545   -6.4869 C.ar    1  UNL1       -0.0617
     10 C           1.0611    1.8885   -6.2294 C.ar    1  UNL1       -0.0614
     11 C           1.7718    1.3256   -5.1673 C.ar    1  UNL1       -0.0563
     12 N           3.0525   -0.1829    1.1217 N.am    1  UNL1       -0.2910
     13 C           4.2940   -0.9231    1.0177 C.3     1  UNL1        0.0504
     14 C           3.9232   -2.2952    0.4002 C.3     1  UNL1       -0.0263
     15 C           4.1154   -3.3722    1.4609 C.3     1  UNL1       -0.0253
     16 C           4.8111   -2.6597    2.5656 C.ar    1  UNL1       -0.0396
     17 C           5.2353   -3.2429    3.7472 C.ar    1  UNL1       -0.0230
     18 C           5.7645   -2.4199    4.7287 C.ar    1  UNL1        0.1237
     19 F           6.0402   -2.9374    5.9331 F       1  UNL1       -0.2055
     20 C           5.9710   -1.0584    4.4950 C.ar    1  UNL1       -0.0261
     21 C           5.5491   -0.4780    3.2876 C.ar    1  UNL1       -0.0538
     22 C           4.9180   -1.2854    2.3405 C.ar    1  UNL1       -0.0238
     23 H           4.0870    0.5933   -1.0822 H       1  UNL1        0.1841
     24 H           3.9763    0.7010   -3.5457 H       1  UNL1        0.0634
     25 H           3.9666    2.2724   -2.7112 H       1  UNL1        0.0634
     26 H           3.3854    4.1225   -4.0799 H       1  UNL1        0.0621
     27 H           2.0016    5.1302   -5.8556 H       1  UNL1        0.0618
     28 H           0.5958    3.6946   -7.3074 H       1  UNL1        0.0618
     29 H           0.4148    1.2642   -6.8407 H       1  UNL1        0.0618
     30 H           1.6655    0.2633   -4.9575 H       1  UNL1        0.0621
     31 H           2.4106   -0.5722    1.8045 H       1  UNL1        0.1509
     32 H           5.0179   -0.3561    0.4223 H       1  UNL1        0.0549
     33 H           4.4794   -2.5008   -0.5202 H       1  UNL1        0.0289
     34 H           2.8657   -2.3355    0.1017 H       1  UNL1        0.0289
     35 H           4.6999   -4.2081    1.0725 H       1  UNL1        0.0314
     36 H           3.1453   -3.7271    1.8247 H       1  UNL1        0.0314
     37 H           5.1223   -4.3064    3.9186 H       1  UNL1        0.0649
     38 H           6.4431   -0.4631    5.2726 H       1  UNL1        0.0646
     39 H           5.7028    0.5862    3.1284 H       1  UNL1        0.0622
@<TRIPOS>BOND
     1     1     2    2
     2     2     3   am
     3     3     4    1
     4     4     5    1
     5     5     6    1
     6     6     7   ar
     7     7     8   ar
     8     8     9   ar
     9     9    10   ar
    10    10    11   ar
    11     6    11   ar
    12     2    12   am
    13    12    13    1
    14    13    14    1
    15    14    15    1
    16    15    16    1
    17    16    17   ar
    18    17    18   ar
    19    18    19    1
    20    18    20   ar
    21    20    21   ar
    22    21    22   ar
    23    16    22   ar
    24    13    22    1
    25     3    23    1
    26     5    24    1
    27     5    25    1
    28     7    26    1
    29     8    27    1
    30     9    28    1
    31    10    29    1
    32    11    30    1
    33    12    31    1
    34    13    32    1
    35    14    33    1
    36    14    34    1
    37    15    35    1
    38    15    36    1
    39    17    37    1
    40    20    38    1
    41    21    39    1
