@<TRIPOS>MOLECULE
*****
 43 44 0 0 0
SMALL
GASTEIGER

@<TRIPOS>ATOM
      1 C           3.1289    0.5830   -0.9273 C.3     1  UNL1       -0.0520
      2 C           2.4862   -0.5891   -0.3141 C.3     1  UNL1        0.0198
      3 C           1.0446   -0.0501    0.0742 C.3     1  UNL1        0.0467
      4 C           0.7089    0.3300    1.5071 C.1     1  UNL1        0.0636
      5 N           0.4305    0.6453    2.6958 N.1     1  UNL1       -0.1965
      6 S           3.2291   -1.4301    1.1564 S.3     1  UNL1       -0.1192
      7 C           4.9255   -0.9086    1.4314 C.ar    1  UNL1        0.0294
      8 C           5.6913   -1.9978    1.9650 C.ar    1  UNL1       -0.0465
      9 C           7.0659   -1.9154    2.1721 C.ar    1  UNL1       -0.0606
     10 C           7.7255   -0.7837    1.7285 C.ar    1  UNL1       -0.0599
     11 C           6.9901    0.3137    1.2310 C.ar    1  UNL1       -0.0394
     12 C           5.5712    0.3332    1.1948 C.ar    1  UNL1        0.0482
     13 N           4.9517    1.6350    0.8933 N.am    1  UNL1       -0.2685
     14 C           3.6810    2.0955    1.3963 C.2     1  UNL1        0.3042
     15 O           3.1473    1.5808    2.3325 O.2     1  UNL1       -0.2525
     16 N           2.9952    2.9966    0.4379 N.am    1  UNL1       -0.2949
     17 C           1.4451    2.8293   -0.0174 C.3     1  UNL1        0.0418
     18 C           0.8281    3.8379   -0.9323 C.ar    1  UNL1        0.0111
     19 C           1.4226    5.0674   -0.7980 C.ar    1  UNL1       -0.0536
     20 C           0.8525    6.1617   -1.3792 C.ar    1  UNL1       -0.0612
     21 C          -0.2615    6.0166   -2.2034 C.ar    1  UNL1       -0.0583
     22 C          -0.8410    4.7646   -2.4365 C.ar    1  UNL1       -0.0199
     23 C          -0.2995    3.6562   -1.7922 C.ar    1  UNL1        0.1215
     24 O          -0.8645    2.4213   -2.0105 O.3     1  UNL1       -0.5064
     25 H           4.1906    0.7351   -1.0195 H       1  UNL1        0.0241
     26 H           2.8091    1.1490   -0.1136 H       1  UNL1        0.0241
     27 H           2.6292    1.0145   -1.7956 H       1  UNL1        0.0241
     28 H           2.5009   -1.3054   -1.1373 H       1  UNL1        0.0423
     29 H           0.4712    0.4651   -0.6994 H       1  UNL1        0.0429
     30 H           0.4999   -1.0140    0.0173 H       1  UNL1        0.0429
     31 H           5.2105   -2.9421    2.2384 H       1  UNL1        0.0629
     32 H           7.6066   -2.7286    2.6564 H       1  UNL1        0.0618
     33 H           8.8105   -0.7348    1.8139 H       1  UNL1        0.0618
     34 H           7.5631    1.1903    0.9443 H       1  UNL1        0.0636
     35 H           5.5516    2.2842    0.4099 H       1  UNL1        0.1564
     36 H           3.5666    3.2104   -0.3627 H       1  UNL1        0.1506
     37 H           0.7863    2.6188    0.8216 H       1  UNL1        0.0513
     38 H           1.3815    2.0449   -0.7528 H       1  UNL1        0.0513
     39 H           2.3010    5.1586   -0.1725 H       1  UNL1        0.0622
     40 H           1.2878    7.1175   -1.1270 H       1  UNL1        0.0618
     41 H          -0.6741    6.9082   -2.6576 H       1  UNL1        0.0619
     42 H          -1.7161    4.6997   -3.0812 H       1  UNL1        0.0654
     43 H          -1.6009    2.4929   -2.6539 H       1  UNL1        0.2921
@<TRIPOS>BOND
     1     3     4    1
     2     4     5    3
     3     2     6    1
     4     6     7    1
     5     7     8   ar
     6     8     9   ar
     7     9    10   ar
     8    10    11   ar
     9    11    12   ar
    10     7    12   ar
    11    12    13    1
    12    13    14   am
    13    14    15    2
    14    14    16   am
    15    16    17    1
    16    17    18    1
    17    18    19   ar
    18    19    20   ar
    19    20    21   ar
    20    21    22   ar
    21    22    23   ar
    22    18    23   ar
    23    23    24    1
    24     2     3    1
    25     2     1    1
    26     1    25    1
    27     1    26    1
    28     1    27    1
    29     2    28    1
    30     3    29    1
    31     3    30    1
    32     8    31    1
    33     9    32    1
    34    10    33    1
    35    11    34    1
    36    13    35    1
    37    16    36    1
    38    17    37    1
    39    17    38    1
    40    19    39    1
    41    20    40    1
    42    21    41    1
    43    22    42    1
    44    24    43    1
