@<TRIPOS>MOLECULE
*****
 34 36 0 0 0
SMALL
GASTEIGER

@<TRIPOS>ATOM
      1 O           1.0127   -0.1064   -0.0954 O.2     1  UNL1       -0.2671
      2 C           2.2418   -0.0709   -0.1391 C.2     1  UNL1        0.2764
      3 N           2.9827   -0.3257   -1.2893 N.am    1  UNL1       -0.2313
      4 N           2.3001   -0.5352   -2.4961 N.pl3   1  UNL1       -0.2642
      5 C           3.0016   -0.8034   -3.6803 C.ar    1  UNL1        0.0446
      6 C           4.1192   -1.6499   -3.7176 C.ar    1  UNL1       -0.0367
      7 C           4.8153   -1.8838   -4.9135 C.ar    1  UNL1       -0.0247
      8 C           4.4143   -1.2501   -6.0817 C.ar    1  UNL1        0.1235
      9 F           5.0896   -1.4633   -7.2195 F       1  UNL1       -0.2055
     10 C           3.3209   -0.3971   -6.0782 C.ar    1  UNL1       -0.0247
     11 C           2.6176   -0.1789   -4.8827 C.ar    1  UNL1       -0.0367
     12 C           3.0470    0.1972    1.1184 C.ar    1  UNL1        0.1065
     13 C           4.0969    1.0345    1.1143 C.ar    1  UNL1       -0.0253
     14 C           4.8439    1.2788    2.3578 C.ar    1  UNL1       -0.0106
     15 C           5.9588    2.1253    2.3776 C.ar    1  UNL1       -0.0538
     16 C           6.6738    2.3289    3.5638 C.ar    1  UNL1       -0.0612
     17 C           6.2823    1.6913    4.7413 C.ar    1  UNL1       -0.0610
     18 C           5.1696    0.8490    4.7373 C.ar    1  UNL1       -0.0488
     19 C           4.4521    0.6487    3.5486 C.ar    1  UNL1        0.0465
     20 C           3.2573   -0.2320    3.5209 C.ar    1  UNL1        0.2570
     21 O           2.8577   -0.7949    4.5385 O.2     1  UNL1       -0.2672
     22 N           2.6302   -0.3848    2.3013 N.ar    1  UNL1       -0.3179
     23 H           3.9945   -0.2935   -1.3195 H       1  UNL1        0.1731
     24 H           1.2875   -0.4090   -2.5017 H       1  UNL1        0.1700
     25 H           4.4243   -2.1875   -2.8245 H       1  UNL1        0.0637
     26 H           5.6619   -2.5628   -4.9419 H       1  UNL1        0.0647
     27 H           3.0259    0.0940   -7.0014 H       1  UNL1        0.0647
     28 H           1.7707    0.5034   -4.9004 H       1  UNL1        0.0637
     29 H           4.4052    1.5675    0.2228 H       1  UNL1        0.0646
     30 H           6.2869    2.6338    1.4745 H       1  UNL1        0.0624
     31 H           7.5413    2.9859    3.5687 H       1  UNL1        0.0618
     32 H           6.8426    1.8526    5.6605 H       1  UNL1        0.0618
     33 H           4.8662    0.3517    5.6569 H       1  UNL1        0.0625
     34 H           1.7898   -0.9552    2.2969 H       1  UNL1        0.1691
@<TRIPOS>BOND
     1     1     2    2
     2     2     3   am
     3     3     4    1
     4     4     5    1
     5     5     6   ar
     6     6     7   ar
     7     7     8   ar
     8     8     9    1
     9     8    10   ar
    10    10    11   ar
    11     5    11   ar
    12     2    12    1
    13    12    13   ar
    14    13    14   ar
    15    14    15   ar
    16    15    16   ar
    17    16    17   ar
    18    17    18   ar
    19    18    19   ar
    20    14    19   ar
    21    19    20   ar
    22    20    21    2
    23    20    22   ar
    24    12    22   ar
    25     3    23    1
    26     4    24    1
    27     6    25    1
    28     7    26    1
    29    10    27    1
    30    11    28    1
    31    13    29    1
    32    15    30    1
    33    16    31    1
    34    17    32    1
    35    18    33    1
    36    22    34    1
