REMARK  8 active torsions:
REMARK  status: ('A' for Active; 'I' for Inactive)
REMARK       I    between atoms: C_2  and  N_3 
REMARK    1  A    between atoms: C_2  and  C_27 
REMARK    2  A    between atoms: N_3  and  C_4 
REMARK    3  A    between atoms: C_7  and  C_8 
REMARK    4  A    between atoms: C_8  and  C_9 
REMARK    5  A    between atoms: C_12  and  N_13 
REMARK       I    between atoms: N_13  and  C_14 
REMARK    6  A    between atoms: C_14  and  C_16 
REMARK    7  A    between atoms: C_21  and  O_22 
REMARK    8  A    between atoms: C_25  and  O_26 
ROOT
ATOM      1  C   UNL d   1       0.667   4.059   5.114  0.00  0.00     0.077 C 
ENDROOT
BRANCH   1   2
ATOM      2  C   UNL d   1       1.208   3.236   3.963  0.00  0.00    -0.051 A 
ATOM      3  C   UNL d   1       2.309   3.705   3.239  0.00  0.00     0.010 A 
ATOM      4  C   UNL d   1       2.886   2.913   2.234  0.00  0.00     0.033 A 
ATOM      5  C   UNL d   1       2.353   1.653   1.926  0.00  0.00     0.068 A 
ATOM      6  C   UNL d   1       1.250   1.195   2.644  0.00  0.00     0.092 A 
ATOM      7  C   UNL d   1       0.661   1.992   3.612  0.00  0.00     0.046 A 
BRANCH   5   8
ATOM      8  N   UNL d   1       2.957   0.855   0.928  0.00  0.00    -0.323 N 
ATOM      9  C   UNL d   1       2.206   0.115   0.015  0.00  0.00     0.251 C 
ATOM     10  O   UNL d   1       0.979   0.173  -0.093  0.00  0.00    -0.270 OA
ATOM     11  H   UNL d   1       3.949   0.970   0.782  0.00  0.00     0.169 HD
BRANCH   9  12
ATOM     12  C   UNL d   1       3.034  -0.740  -0.966  0.00  0.00     0.213 C 
ATOM     13  C   UNL d   1       2.400  -0.696  -2.355  0.00  0.00     0.044 C 
ATOM     14  C   UNL d   1       2.667  -2.066  -2.914  0.00  0.00     0.029 C 
ATOM     15  C   UNL d   1       2.644  -2.935  -1.679  0.00  0.00     0.168 C 
ATOM     16  O   UNL d   1       3.095  -2.124  -0.585  0.00  0.00    -0.376 OA
ENDBRANCH   9  12
ENDBRANCH   5   8
BRANCH   6  17
ATOM     17  O   UNL d   1       0.819  -0.098   2.521  0.00  0.00    -0.358 OA
ATOM     18  H   UNL d   1      -0.095  -0.161   2.837  0.00  0.00     0.217 HD
ENDBRANCH   6  17
ENDBRANCH   1   2
BRANCH   1  19
ATOM     19  C   UNL d   1      -0.484   3.418   5.850  0.00  0.00    -0.051 A 
ATOM     20  C   UNL d   1      -0.397   2.193   6.528  0.00  0.00     0.010 A 
ATOM     21  C   UNL d   1      -1.559   1.547   7.002  0.00  0.00     0.033 A 
ATOM     22  C   UNL d   1      -2.830   2.153   6.881  0.00  0.00     0.068 A 
ATOM     23  C   UNL d   1      -2.859   3.413   6.249  0.00  0.00     0.092 A 
ATOM     24  C   UNL d   1      -1.722   4.014   5.733  0.00  0.00     0.046 A 
BRANCH  22  25
ATOM     25  N   UNL d   1      -3.972   1.443   7.399  0.00  0.00    -0.323 N 
ATOM     26  C   UNL d   1      -5.280   1.897   7.382  0.00  0.00     0.251 C 
ATOM     27  O   UNL d   1      -5.619   2.992   6.919  0.00  0.00    -0.270 OA
ATOM     28  H   UNL d   1      -3.781   0.538   7.817  0.00  0.00     0.169 HD
BRANCH  26  29
ATOM     29  C   UNL d   1      -6.390   1.053   7.995  0.00  0.00     0.213 C 
ATOM     30  C   UNL d   1      -6.516  -0.334   7.411  0.00  0.00     0.044 C 
ATOM     31  C   UNL d   1      -8.012  -0.523   7.302  0.00  0.00     0.029 C 
ATOM     32  C   UNL d   1      -8.512   0.863   6.989  0.00  0.00     0.168 C 
ATOM     33  O   UNL d   1      -7.647   1.730   7.715  0.00  0.00    -0.376 OA
ENDBRANCH  26  29
ENDBRANCH  22  25
BRANCH  23  34
ATOM     34  O   UNL d   1      -3.918   4.234   6.012  0.00  0.00    -0.358 OA
ATOM     35  H   UNL d   1      -4.712   3.852   6.425  0.00  0.00     0.217 HD
ENDBRANCH  23  34
ENDBRANCH   1  19
TORSDOF 8
