@<TRIPOS>MOLECULE
*****
 50 51 0 0 0
SMALL
GASTEIGER

@<TRIPOS>ATOM
      1 C           0.9814    0.0725    0.0236 C.3     1  UNL1       -0.0648
      2 C           2.4983    0.0571    0.0136 C.3     1  UNL1       -0.0476
      3 C           3.0875   -1.0979   -0.8146 C.3     1  UNL1        0.0240
      4 C           4.6119   -1.0373   -0.7663 C.2     1  UNL1        0.2172
      5 O           5.1834   -0.1577   -0.1222 O.2     1  UNL1       -0.2755
      6 N           5.2849   -1.9995   -1.5130 N.am    1  UNL1       -0.2855
      7 C           6.7040   -2.1009   -1.5047 C.ar    1  UNL1        0.0334
      8 C           7.4223   -2.4313   -2.6553 C.ar    1  UNL1       -0.0398
      9 C           8.8362   -2.5529   -2.6061 C.ar    1  UNL1       -0.0478
     10 C           9.5645   -2.3196   -1.4187 C.ar    1  UNL1        0.0383
     11 C          11.0906   -2.3457   -1.4371 C.2     1  UNL1        0.2601
     12 O          11.6944   -2.5933   -2.4860 O.2     1  UNL1       -0.2687
     13 N          11.7658   -2.0595   -0.2560 N.am    1  UNL1       -0.2311
     14 N          13.2171   -2.0088   -0.1578 N.am    1  UNL1       -0.2453
     15 C          13.7941   -1.7153    1.0947 C.2     1  UNL1        0.1533
     16 S          12.7864   -1.4144    2.4194 S.2     1  UNL1       -0.0170
     17 N          15.2100   -1.6971    1.1324 N.am    1  UNL1       -0.2627
     18 C          16.0133   -1.4816    2.2767 C.2     1  UNL1        0.2496
     19 O          15.5829   -1.2699    3.4131 O.2     1  UNL1       -0.2698
     20 C          17.5046   -1.4841    2.1926 C.ar    1  UNL1        0.0381
     21 C          18.2304   -2.0018    3.2861 C.ar    1  UNL1       -0.0493
     22 C          19.6174   -1.8282    3.3885 C.ar    1  UNL1       -0.0571
     23 C          20.3266   -1.1874    2.3664 C.ar    1  UNL1       -0.0365
     24 C          21.8314   -1.1514    2.4256 C.3     1  UNL1       -0.0387
     25 C          19.5946   -0.6444    1.2936 C.ar    1  UNL1        0.0215
     26 BR         20.4556    0.3613   -0.0720 Br      1  UNL1       -0.0500
     27 C          18.1956   -0.7860    1.2048 C.ar    1  UNL1       -0.0354
     28 C           8.8221   -2.0269   -0.2697 C.ar    1  UNL1       -0.0478
     29 C           7.4203   -1.9116   -0.3200 C.ar    1  UNL1       -0.0398
     30 H           0.6180    0.9136    0.6250 H       1  UNL1        0.0230
     31 H           0.5836   -0.8494    0.4569 H       1  UNL1        0.0230
     32 H           0.5848    0.1857   -0.9894 H       1  UNL1        0.0230
     33 H           2.8580   -0.0068    1.0489 H       1  UNL1        0.0267
     34 H           2.8586    1.0160   -0.3811 H       1  UNL1        0.0267
     35 H           2.7482   -1.0202   -1.8533 H       1  UNL1        0.0358
     36 H           2.7488   -2.0566   -0.4057 H       1  UNL1        0.0358
     37 H           4.7697   -2.5471   -2.1918 H       1  UNL1        0.1548
     38 H           6.9195   -2.5203   -3.6171 H       1  UNL1        0.0636
     39 H           9.3676   -2.8213   -3.5192 H       1  UNL1        0.0626
     40 H          11.2897   -1.8248    0.6129 H       1  UNL1        0.1731
     41 H          13.7122   -2.1995   -1.0269 H       1  UNL1        0.1718
     42 H          15.6982   -1.9069    0.2730 H       1  UNL1        0.1569
     43 H          17.7107   -2.5214    4.0923 H       1  UNL1        0.0625
     44 H          20.1355   -2.1851    4.2794 H       1  UNL1        0.0621
     45 H          22.2164   -1.6463    3.3250 H       1  UNL1        0.0278
     46 H          22.2137   -0.1263    2.4253 H       1  UNL1        0.0278
     47 H          22.2406   -1.6959    1.5671 H       1  UNL1        0.0278
     48 H          17.6562   -0.2973    0.4011 H       1  UNL1        0.0636
     49 H           9.2833   -1.8774    0.6990 H       1  UNL1        0.0626
     50 H           6.8892   -1.6864    0.6030 H       1  UNL1        0.0636
@<TRIPOS>BOND
     1     1     2    1
     2     2     3    1
     3     3     4    1
     4     4     5    2
     5     4     6   am
     6     6     7    1
     7     7     8   ar
     8     8     9   ar
     9     9    10   ar
    10    10    11    1
    11    11    12    2
    12    11    13   am
    13    13    14    1
    14    14    15    1
    15    15    16    2
    16    15    17    1
    17    17    18   am
    18    18    19    2
    19    18    20    1
    20    20    21   ar
    21    21    22   ar
    22    22    23   ar
    23    23    24    1
    24    23    25   ar
    25    25    26    1
    26    25    27   ar
    27    20    27   ar
    28    10    28   ar
    29    28    29   ar
    30     7    29   ar
    31     1    30    1
    32     1    31    1
    33     1    32    1
    34     2    33    1
    35     2    34    1
    36     3    35    1
    37     3    36    1
    38     6    37    1
    39     8    38    1
    40     9    39    1
    41    13    40    1
    42    14    41    1
    43    17    42    1
    44    21    43    1
    45    22    44    1
    46    24    45    1
    47    24    46    1
    48    24    47    1
    49    27    48    1
    50    28    49    1
    51    29    50    1
