@<TRIPOS>MOLECULE
*****
 66 69 0 0 0
SMALL
GASTEIGER

@<TRIPOS>ATOM
      1 C           1.2174    0.3619    0.4268 C.3     1  UNL1        0.0790
      2 O           2.5679    0.1412    0.0103 O.3     1  UNL1       -0.4915
      3 C           3.0612   -1.1195   -0.2553 C.ar    1  UNL1        0.1615
      4 C           4.2299   -1.4197    0.4787 C.ar    1  UNL1       -0.0155
      5 C           5.0439   -2.5300    0.1712 C.ar    1  UNL1       -0.0444
      6 C           4.6741   -3.4253   -0.8353 C.ar    1  UNL1        0.0598
      7 C           5.4843   -4.6767   -1.0678 C.2     1  UNL1        0.3407
      8 O           6.4558   -4.8808   -0.3628 O.2     1  UNL1       -0.2483
      9 N           5.0325   -5.5314   -2.0643 N.am    1  UNL1        0.0006
     10 C           5.6111   -6.6910   -2.2266 C.2     1  UNL1        0.3842
     11 N           5.1446   -7.5447   -3.1987 N.pl3   1  UNL1       -0.2767
     12 C           3.9792   -7.2843   -4.0014 C.3     1  UNL1        0.0684
     13 C           3.7187   -8.4268   -4.9692 C.3     1  UNL1        0.0059
     14 C           2.5160   -8.2759   -5.8489 C.2     1  UNL1        0.0106
     15 C           2.2251   -9.1953   -6.7686 C.ar    1  UNL1        0.0510
     16 C           2.8867  -10.3993   -7.1207 C.ar    1  UNL1       -0.0482
     17 C           2.4703  -11.0506   -8.2108 C.ar    1  UNL1       -0.0608
     18 C           1.2823  -10.6243   -8.9343 C.ar    1  UNL1       -0.0555
     19 C           0.5638   -9.5247   -8.6200 C.ar    1  UNL1        0.0098
     20 C           1.0358   -8.7131   -7.4772 C.ar    1  UNL1        0.2086
     21 N           0.5991   -7.6209   -6.9724 N.2     1  UNL1       -0.2369
     22 C           1.5166   -7.1529   -5.8868 C.3     1  UNL1        0.1661
     23 N           6.6370   -7.2023   -1.4679 N.pl3   1  UNL1       -0.2450
     24 C           7.4993   -8.2923   -1.6899 C.ar    1  UNL1        0.1003
     25 C           8.0022   -9.0123   -0.5970 C.ar    1  UNL1       -0.0203
     26 C           8.8736  -10.0955   -0.7899 C.ar    1  UNL1       -0.0470
     27 C           9.6304  -10.7092    0.3500 C.3     1  UNL1       -0.0396
     28 C           9.1363  -10.5465   -2.0868 C.ar    1  UNL1       -0.0557
     29 C           8.6551   -9.8386   -3.1849 C.ar    1  UNL1       -0.0470
     30 C           9.0213  -10.2242   -4.5821 C.3     1  UNL1       -0.0396
     31 C           7.8696   -8.7025   -2.9737 C.ar    1  UNL1       -0.0203
     32 C           3.5291   -3.1348   -1.5743 C.ar    1  UNL1       -0.0027
     33 C           2.7291   -1.9934   -1.3165 C.ar    1  UNL1        0.1623
     34 O           1.7352   -1.9313   -2.2670 O.3     1  UNL1       -0.4914
     35 C           0.7659   -0.9443   -2.0531 C.3     1  UNL1        0.0790
     36 H           1.1420    1.3235    0.9429 H       1  UNL1        0.0660
     37 H           0.8134   -0.4442    1.0434 H       1  UNL1        0.0660
     38 H           0.5531    0.5694   -0.4117 H       1  UNL1        0.0660
     39 H           4.5399   -0.7695    1.2975 H       1  UNL1        0.0655
     40 H           5.9757   -2.6795    0.7162 H       1  UNL1        0.0627
     41 H           5.5176   -8.4871   -3.1962 H       1  UNL1        0.2577
     42 H           4.1359   -6.3658   -4.5741 H       1  UNL1        0.0658
     43 H           3.1056   -7.1649   -3.3549 H       1  UNL1        0.0658
     44 H           3.6076   -9.3651   -4.4061 H       1  UNL1        0.0343
     45 H           4.6027   -8.5650   -5.6110 H       1  UNL1        0.0343
     46 H           3.7327  -10.7395   -6.5336 H       1  UNL1        0.0626
     47 H           3.0255  -11.9175   -8.5593 H       1  UNL1        0.0618
     48 H           0.9823  -11.2798   -9.7502 H       1  UNL1        0.0620
     49 H          -0.3134   -9.2537   -9.1953 H       1  UNL1        0.0683
     50 H          -0.2582   -7.1723   -7.2937 H       1  UNL1        0.4459
     51 H           0.9518   -7.0495   -4.9566 H       1  UNL1        0.1077
     52 H           1.9556   -6.1971   -6.1929 H       1  UNL1        0.1077
     53 H           7.0012   -6.5455   -0.7716 H       1  UNL1        0.2646
     54 H           7.7215   -8.7243    0.4149 H       1  UNL1        0.0655
     55 H           9.3739  -10.2432    1.3053 H       1  UNL1        0.0278
     56 H          10.7026  -10.5451    0.1829 H       1  UNL1        0.0278
     57 H           9.4424  -11.7841    0.4138 H       1  UNL1        0.0278
     58 H           9.7667  -11.4216   -2.2342 H       1  UNL1        0.0623
     59 H           9.6661  -11.1072   -4.5982 H       1  UNL1        0.0278
     60 H           9.5617   -9.3982   -5.0554 H       1  UNL1        0.0278
     61 H           8.1171  -10.4439   -5.1581 H       1  UNL1        0.0278
     62 H           7.5659   -8.1135   -3.8354 H       1  UNL1        0.0655
     63 H           3.2459   -3.7843   -2.3995 H       1  UNL1        0.0663
     64 H          -0.0160   -0.9309   -2.8126 H       1  UNL1        0.0660
     65 H           1.2573    0.0318   -2.1137 H       1  UNL1        0.0660
     66 H           0.2496   -1.1947   -1.1208 H       1  UNL1        0.0660
@<TRIPOS>UNITY_ATOM_ATTR
21 1
charge 1
@<TRIPOS>BOND
     1     1     2    1
     2     2     3    1
     3     3     4   ar
     4     4     5   ar
     5     5     6   ar
     6     6     7    1
     7     7     8    2
     8     7     9    1
     9     9    10    2
    10    10    11    1
    11    11    12    1
    12    12    13    1
    13    13    14    1
    14    14    15    2
    15    15    16   ar
    16    16    17   ar
    17    17    18   ar
    18    18    19   ar
    19    19    20   ar
    20    15    20   ar
    21    20    21    2
    22    21    22    1
    23    14    22    1
    24    10    23    1
    25    23    24    1
    26    24    25   ar
    27    25    26   ar
    28    26    27    1
    29    26    28   ar
    30    28    29   ar
    31    29    30    1
    32    29    31   ar
    33    24    31   ar
    34     6    32   ar
    35    32    33   ar
    36     3    33   ar
    37    33    34    1
    38    34    35    1
    39     1    36    1
    40     1    37    1
    41     1    38    1
    42     4    39    1
    43     5    40    1
    44    11    41    1
    45    12    42    1
    46    12    43    1
    47    13    44    1
    48    13    45    1
    49    16    46    1
    50    17    47    1
    51    18    48    1
    52    19    49    1
    53    21    50    1
    54    22    51    1
    55    22    52    1
    56    23    53    1
    57    25    54    1
    58    27    55    1
    59    27    56    1
    60    27    57    1
    61    28    58    1
    62    30    59    1
    63    30    60    1
    64    30    61    1
    65    31    62    1
    66    32    63    1
    67    35    64    1
    68    35    65    1
    69    35    66    1
