REMARK  9 active torsions:
REMARK  status: ('A' for Active; 'I' for Inactive)
REMARK    1  A    between atoms: C_6  and  N_7 
REMARK       I    between atoms: N_7  and  C_8 
REMARK    2  A    between atoms: C_8  and  C_10 
REMARK       I    between atoms: C_10  and  N_12 
REMARK    3  A    between atoms: N_12  and  N_13 
REMARK    4  A    between atoms: C_14  and  C_15 
REMARK    5  A    between atoms: C_20  and  O_21 
REMARK    6  A    between atoms: O_21  and  C_22 
REMARK    7  A    between atoms: C_22  and  C_23 
REMARK       I    between atoms: C_23  and  N_25 
REMARK    8  A    between atoms: N_25  and  C_26 
REMARK    9  A    between atoms: C_30  and  C_31 
ROOT
ATOM      1  C   UNL d   1      -4.195  -9.302  -0.178  0.00  0.00     0.016 A 
ATOM      2  C   UNL d   1      -5.028 -10.115  -0.968  0.00  0.00     0.016 A 
ATOM      3  C   UNL d   1      -5.026 -11.514  -0.818  0.00  0.00     0.001 A 
ATOM      4  C   UNL d   1      -4.154 -12.123   0.078  0.00  0.00     0.003 A 
ATOM      5  C   UNL d   1      -3.342 -11.327   0.883  0.00  0.00     0.037 A 
ATOM      6  C   UNL d   1      -3.372  -9.920   0.794  0.00  0.00     0.081 A 
ENDROOT
BRANCH   1   7
ATOM      7  C   UNL d   1      -4.301  -7.808  -0.346  0.00  0.00     0.153 C 
ATOM      8  N   UNL d   1      -3.239  -7.118  -0.638  0.00  0.00    -0.183 NA
BRANCH   8   9
ATOM      9  N   UNL d   1      -3.180  -5.757  -0.431  0.00  0.00    -0.239 N 
ATOM     10  C   UNL d   1      -1.911  -5.128  -0.309  0.00  0.00     0.329 C 
ATOM     11  O   UNL d   1      -0.816  -5.660  -0.271  0.00  0.00    -0.261 OA
ATOM     12  H   UNL d   1      -4.010  -5.219  -0.181  0.00  0.00     0.192 HD
BRANCH  10  13
ATOM     13  C   UNL d   1      -2.013  -3.607  -0.098  0.00  0.00     0.315 C 
ATOM     14  N   UNL d   1      -0.805  -2.889  -0.051  0.00  0.00    -0.318 N 
ATOM     15  H   UNL d   1       0.046  -3.444  -0.070  0.00  0.00     0.169 HD
ATOM     16  O   UNL d   1      -3.156  -3.188   0.030  0.00  0.00    -0.262 OA
BRANCH  14  17
ATOM     17  C   UNL d   1      -0.688  -1.458  -0.010  0.00  0.00     0.041 A 
ATOM     18  C   UNL d   1      -1.852  -0.673  -0.012  0.00  0.00     0.030 A 
ATOM     19  C   UNL d   1      -1.827   0.717   0.019  0.00  0.00     0.003 A 
ATOM     20  C   UNL d   1      -0.619   1.383   0.025  0.00  0.00     0.007 A 
ATOM     21  C   UNL d   1       0.582   0.660   0.008  0.00  0.00    -0.054 A 
ATOM     22  C   UNL d   1       1.861   1.463  -0.013  0.00  0.00     0.049 C 
ATOM     23  C   UNL d   1       0.562  -0.776   0.007  0.00  0.00    -0.029 A 
ATOM     24  C   UNL d   1       1.895  -1.485   0.025  0.00  0.00     0.051 C 
ENDBRANCH  14  17
ENDBRANCH  10  13
ENDBRANCH   8   9
ENDBRANCH   1   7
BRANCH   6  25
ATOM     25  O   UNL d   1      -2.596  -9.353   1.778  0.00  0.00    -0.341 OA
BRANCH  25  26
ATOM     26  C   UNL d   1      -2.381  -7.961   1.716  0.00  0.00     0.278 C 
BRANCH  26  27
ATOM     27  C   UNL d   1      -1.438  -7.365   2.731  0.00  0.00     0.246 C 
ATOM     28  O   UNL d   1      -0.735  -8.081   3.438  0.00  0.00    -0.271 OA
ATOM     29  N   UNL d   1      -1.439  -5.964   2.764  0.00  0.00    -0.325 N 
ATOM     30  H   UNL d   1      -2.168  -5.431   2.310  0.00  0.00     0.169 HD
BRANCH  29  31
ATOM     31  C   UNL d   1      -0.441  -5.252   3.447  0.00  0.00     0.035 A 
ATOM     32  C   UNL d   1      -0.707  -4.031   4.066  0.00  0.00     0.029 A 
ATOM     33  C   UNL d   1       0.321  -3.372   4.751  0.00  0.00     0.003 A 
ATOM     34  C   UNL d   1       1.598  -3.937   4.823  0.00  0.00     0.016 A 
ATOM     35  C   UNL d   1       1.878  -5.133   4.157  0.00  0.00     0.050 A 
ATOM     36  C   UNL d   1       0.851  -5.772   3.470  0.00  0.00     0.045 A 
BRANCH  35  37
ATOM     37  C   UNL d   1       3.258  -5.724   4.130  0.00  0.00     0.417 C 
ATOM     38  F   UNL d   1       4.163  -4.858   3.595  0.00  0.00    -0.166 F 
ATOM     39  F   UNL d   1       3.721  -6.041   5.368  0.00  0.00    -0.166 F 
ATOM     40  F   UNL d   1       3.357  -6.862   3.387  0.00  0.00    -0.166 F 
ENDBRANCH  35  37
ENDBRANCH  29  31
ENDBRANCH  26  27
ENDBRANCH  25  26
ENDBRANCH   6  25
TORSDOF 9
