REMARK  8 active torsions:
REMARK  status: ('A' for Active; 'I' for Inactive)
REMARK    1  A    between atoms: C_2  and  C_3 
REMARK       I    between atoms: C_2  and  N_14 
REMARK    2  A    between atoms: C_3  and  C_4 
REMARK    3  A    between atoms: C_4  and  C_5 
REMARK    4  A    between atoms: N_14  and  N_15 
REMARK    5  A    between atoms: C_25  and  S_26 
REMARK    6  A    between atoms: S_26  and  C_27 
REMARK    7  A    between atoms: C_27  and  C_28 
REMARK    8  A    between atoms: C_28  and  C_30 
ROOT
ATOM      1  N   UNL d   1       4.681   0.888   1.043  0.00  0.00    -0.117 NA
ATOM      2  C   UNL d   1       5.136   1.674   2.154  0.00  0.00     0.237 C 
ATOM      3  O   UNL d   1       4.445   1.944   3.093  0.00  0.00    -0.277 OA
ATOM      4  C   UNL d   1       6.653   1.761   2.220  0.00  0.00     0.120 C 
ATOM      5  C   UNL d   1       7.475   2.091   1.142  0.00  0.00    -0.003 C 
ATOM      6  C   UNL d   1       8.797   1.559   1.025  0.00  0.00    -0.003 C 
ATOM      7  C   UNL d   1       9.377   0.861   2.076  0.00  0.00    -0.002 C 
ATOM      8  C   UNL d   1       8.532   0.483   3.097  0.00  0.00     0.019 C 
ATOM      9  C   UNL d   1       7.136   0.647   2.880  0.00  0.00     0.239 C 
ATOM     10  N   UNL d   1       6.418  -0.579   2.217  0.00  0.00     0.131 N 
ATOM     11  C   UNL d   1       5.593  -0.231   0.849  0.00  0.00     0.386 C 
ATOM     12  H   UNL d   1       5.694  -0.689   2.953  0.00  0.00     0.320 HD
ENDROOT
BRANCH   1  13
ATOM     13  N   UNL d   1       3.228   0.505   1.147  0.00  0.00    -0.280 N 
ATOM     14  C   UNL d   1       2.393   0.097   0.112  0.00  0.00     0.232 C 
ATOM     15  O   UNL d   1       1.168   0.149   0.221  0.00  0.00    -0.272 OA
ATOM     16  H   UNL d   1       2.735   0.922   1.945  0.00  0.00     0.184 HD
BRANCH  14  17
ATOM     17  C   UNL d   1       3.007  -0.440  -1.154  0.00  0.00     0.108 C 
BRANCH  17  18
ATOM     18  C   UNL d   1       1.996  -0.920  -2.211  0.00  0.00     0.046 C 
BRANCH  18  19
ATOM     19  C   UNL d   1       2.699  -1.470  -3.412  0.00  0.00    -0.050 A 
ATOM     20  C   UNL d   1       3.252  -0.721  -4.358  0.00  0.00    -0.006 A 
ATOM     21  C   UNL d   1       3.292   0.676  -4.532  0.00  0.00     0.014 C 
ATOM     22  C   UNL d   1       3.783  -1.664  -5.353  0.00  0.00     0.038 A 
ATOM     23  C   UNL d   1       3.673   1.090  -5.737  0.00  0.00     0.001 C 
ATOM     24  C   UNL d   1       4.166   0.173  -6.755  0.00  0.00     0.002 C 
ATOM     25  C   UNL d   1       4.400  -1.131  -6.561  0.00  0.00     0.030 C 
ATOM     26  N   UNL d   1       3.537  -2.869  -5.060  0.00  0.00    -0.385 N 
ATOM     27  C   UNL d   1       2.761  -2.917  -3.803  0.00  0.00     0.155 A 
ATOM     28  H   UNL d   1       3.775  -3.633  -5.695  0.00  0.00     0.160 HD
ENDBRANCH  18  19
ENDBRANCH  17  18
ENDBRANCH  14  17
ENDBRANCH   1  13
BRANCH  11  29
ATOM     29  S   UNL d   1       6.705  -0.109  -0.918  0.00  0.00    -0.109 SA
BRANCH  29  30
ATOM     30  C   UNL d   1       5.926   1.021  -2.481  0.00  0.00     0.161 C 
BRANCH  30  31
ATOM     31  C   UNL d   1       6.860   0.995  -3.829  0.00  0.00     0.168 C 
ATOM     32  O   UNL d   1       7.686   0.090  -3.983  0.00  0.00    -0.292 OA
BRANCH  31  33
ATOM     33  C   UNL d   1       6.619   1.901  -5.126  0.00  0.00     0.011 C 
ATOM     34  C   UNL d   1       6.006   3.165  -5.130  0.00  0.00     0.017 C 
ATOM     35  C   UNL d   1       5.466   3.734  -6.332  0.00  0.00     0.025 C 
ATOM     36  C   UNL d   1       5.611   3.100  -7.568  0.00  0.00     0.034 C 
ATOM     37 CL   UNL d   1       4.528   3.481  -8.869  0.00  0.00    -0.084 Cl
ATOM     38  C   UNL d   1       6.407   1.964  -7.640  0.00  0.00     0.025 C 
ATOM     39  C   UNL d   1       6.873   1.356  -6.428  0.00  0.00     0.017 C 
ENDBRANCH  31  33
ENDBRANCH  30  31
ENDBRANCH  29  30
ENDBRANCH  11  29
TORSDOF 8
