@<TRIPOS>MOLECULE
*****
 68 72 0 0 0
SMALL
GASTEIGER

@<TRIPOS>ATOM
      1 C           0.9867    0.0729    0.0894 C.3     1  UNL1        0.0788
      2 O           2.4034    0.1859    0.1339 O.3     1  UNL1       -0.4951
      3 C           3.0744   -0.6094    1.0201 C.ar    1  UNL1        0.1201
      4 C           4.2792   -0.0787    1.4882 C.ar    1  UNL1       -0.0193
      5 C           5.1382   -0.8434    2.2829 C.ar    1  UNL1       -0.0494
      6 C           4.7698   -2.1326    2.6683 C.ar    1  UNL1       -0.0020
      7 C           5.6661   -2.8720    3.6045 C.2     1  UNL1        0.0671
      8 N           5.9930   -2.3210    4.7358 N.2     1  UNL1       -0.1815
      9 N           6.8454   -2.9815    5.6032 N.am    1  UNL1       -0.1925
     10 C           7.0056   -2.3317    6.9193 C.3     1  UNL1        0.0461
     11 C           8.0091   -2.9994    7.8601 C.3     1  UNL1        0.0420
     12 C           8.1180   -2.3036    9.1758 C.2     1  UNL1        0.2188
     13 O           7.4317   -1.3139    9.4461 O.2     1  UNL1       -0.2754
     14 N           9.0658   -2.8702   10.0220 N.am    1  UNL1       -0.2855
     15 C           9.2406   -2.4356   11.3459 C.ar    1  UNL1        0.0334
     16 C          10.4905   -2.4465   11.9629 C.ar    1  UNL1       -0.0402
     17 C          10.6140   -2.0475   13.3103 C.ar    1  UNL1       -0.0568
     18 C           9.4949   -1.5916   14.0350 C.ar    1  UNL1       -0.0468
     19 C           9.6317   -1.0256   15.4411 C.3     1  UNL1       -0.0149
     20 C           8.2813   -0.4612   16.0141 C.3     1  UNL1        0.0797
     21 C           8.3254    0.0277   17.4492 C.3     1  UNL1        0.3455
     22 N           7.2160   -0.6072   18.2248 N.2     1  UNL1       -0.1758
     23 C           7.2750    0.0504   19.2847 C.ar    1  UNL1        0.2774
     24 C           8.4027    0.1320   20.3295 C.ar    1  UNL1        0.0162
     25 C           8.1588    0.9550   21.3595 C.ar    1  UNL1       -0.0551
     26 C           6.9310    1.7104   21.3357 C.ar    1  UNL1       -0.0551
     27 C           6.4413    2.1194   20.1299 C.ar    1  UNL1        0.0162
     28 C           7.1194    1.4894   18.9160 C.ar    1  UNL1        0.2774
     29 N           7.9844    1.5463   17.9196 N.2     1  UNL1       -0.1758
     30 C           8.2518   -1.6375   13.3968 C.ar    1  UNL1       -0.0568
     31 C           8.1299   -2.0364   12.0764 C.ar    1  UNL1       -0.0402
     32 C           7.5690   -4.1140    5.2530 C.2     1  UNL1        0.2351
     33 O           8.3894   -4.6886    5.9726 O.2     1  UNL1       -0.2739
     34 C           7.4008   -4.6364    3.8686 C.3     1  UNL1        0.0313
     35 C           6.1204   -4.2404    3.1899 C.3     1  UNL1       -0.0000
     36 C           3.5632   -2.6739    2.2074 C.ar    1  UNL1       -0.0494
     37 C           2.7145   -1.9074    1.3864 C.ar    1  UNL1       -0.0193
     38 H           0.6336    0.6723   -0.7574 H       1  UNL1        0.0660
     39 H           0.5537    0.4930    1.0016 H       1  UNL1        0.0660
     40 H           0.6362   -0.9488   -0.0772 H       1  UNL1        0.0660
     41 H           4.5504    0.9434    1.2334 H       1  UNL1        0.0654
     42 H           6.0994   -0.4348    2.5821 H       1  UNL1        0.0625
     43 H           6.0130   -2.3007    7.3892 H       1  UNL1        0.0490
     44 H           7.3022   -1.2894    6.7391 H       1  UNL1        0.0490
     45 H           9.0079   -2.9880    7.4084 H       1  UNL1        0.0374
     46 H           7.6948   -4.0297    8.0690 H       1  UNL1        0.0374
     47 H           9.7085   -3.5651    9.6512 H       1  UNL1        0.1548
     48 H          11.3851   -2.6890   11.3903 H       1  UNL1        0.0636
     49 H          11.6026   -2.0900   13.7666 H       1  UNL1        0.0621
     50 H          10.3737   -0.2195   15.4158 H       1  UNL1        0.0318
     51 H          10.0299   -1.8220   16.0882 H       1  UNL1        0.0318
     52 H           7.6099   -1.3375   15.9752 H       1  UNL1        0.0405
     53 H           7.8794    0.3005   15.3454 H       1  UNL1        0.0405
     54 H           9.2413   -0.3252   17.9402 H       1  UNL1        0.1927
     55 H           6.3502   -0.4794   17.6336 H       1  UNL1        0.4527
     56 H           9.4581    0.0699   20.0448 H       1  UNL1        0.0685
     57 H           8.9064    1.1945   22.1177 H       1  UNL1        0.0620
     58 H           6.4202    1.8063   22.3039 H       1  UNL1        0.0620
     59 H           5.3509    2.2686   20.1773 H       1  UNL1        0.0685
     60 H           8.7983    2.1852   17.8979 H       1  UNL1        0.4527
     61 H           7.3213   -1.3655   13.8763 H       1  UNL1        0.0621
     62 H           7.1372   -2.0493   11.6335 H       1  UNL1        0.0636
     63 H           7.4494   -5.7295    3.9408 H       1  UNL1        0.0363
     64 H           8.2730   -4.2939    3.3023 H       1  UNL1        0.0363
     65 H           5.3307   -4.9553    3.4434 H       1  UNL1        0.0333
     66 H           6.2771   -4.2727    2.1073 H       1  UNL1        0.0333
     67 H           3.2612   -3.6827    2.4768 H       1  UNL1        0.0625
     68 H           1.7931   -2.3571    1.0301 H       1  UNL1        0.0654
@<TRIPOS>UNITY_ATOM_ATTR
22 1
charge 1
29 1
charge 1
@<TRIPOS>BOND
     1     1     2    1
     2     2     3    1
     3     3     4   ar
     4     4     5   ar
     5     5     6   ar
     6     6     7    1
     7     7     8    2
     8     8     9    1
     9     9    10    1
    10    10    11    1
    11    11    12    1
    12    12    13    2
    13    12    14   am
    14    14    15    1
    15    15    16   ar
    16    16    17   ar
    17    17    18   ar
    18    18    19    1
    19    19    20    1
    20    20    21    1
    21    21    22    1
    22    22    23    2
    23    23    24   ar
    24    24    25   ar
    25    25    26   ar
    26    26    27   ar
    27    27    28   ar
    28    23    28   ar
    29    28    29    2
    30    21    29    1
    31    18    30   ar
    32    30    31   ar
    33    15    31   ar
    34     9    32   am
    35    32    33    2
    36    32    34    1
    37    34    35    1
    38     7    35    1
    39     6    36   ar
    40    36    37   ar
    41     3    37   ar
    42     1    38    1
    43     1    39    1
    44     1    40    1
    45     4    41    1
    46     5    42    1
    47    10    43    1
    48    10    44    1
    49    11    45    1
    50    11    46    1
    51    14    47    1
    52    16    48    1
    53    17    49    1
    54    19    50    1
    55    19    51    1
    56    20    52    1
    57    20    53    1
    58    21    54    1
    59    22    55    1
    60    24    56    1
    61    25    57    1
    62    26    58    1
    63    27    59    1
    64    29    60    1
    65    30    61    1
    66    31    62    1
    67    34    63    1
    68    34    64    1
    69    35    65    1
    70    35    66    1
    71    36    67    1
    72    37    68    1
