@<TRIPOS>MOLECULE
*****
 55 57 0 0 0
SMALL
GASTEIGER

@<TRIPOS>ATOM
      1 C           0.8088    0.1032   -0.0302 C.3     1  UNL1       -0.0327
      2 C           2.2994   -0.0304   -0.0001 C.ar    1  UNL1        0.0375
      3 C           2.9365   -1.2103    0.0730 C.ar    1  UNL1       -0.0301
      4 C           2.2636   -2.5589    0.1080 C.3     1  UNL1       -0.0386
      5 C           4.3973   -1.2017    0.0683 C.ar    1  UNL1        0.0210
      6 C           5.1094   -2.3919    0.0514 C.ar    1  UNL1       -0.0474
      7 C           6.4704   -2.3850   -0.1740 C.ar    1  UNL1       -0.0191
      8 C           7.1911   -1.1948   -0.1661 C.ar    1  UNL1        0.1251
      9 O           8.5485   -1.1210   -0.3004 O.3     1  UNL1       -0.4798
     10 C           9.2758   -2.3514   -0.4492 C.3     1  UNL1        0.1726
     11 C           9.0347   -2.9442   -1.8418 C.3     1  UNL1       -0.0191
     12 C          10.7831   -2.0522   -0.3055 C.2     1  UNL1        0.2535
     13 O          11.2290   -0.9284   -0.0796 O.2     1  UNL1       -0.2718
     14 N          11.6277   -3.1486   -0.4474 N.am    1  UNL1       -0.3120
     15 C          13.0559   -2.9329   -0.4041 C.3     1  UNL1        0.0157
     16 C          13.9184   -4.1838   -0.5992 C.3     1  UNL1       -0.0121
     17 C          15.4115   -3.8996   -0.5531 C.ar    1  UNL1       -0.0458
     18 C          15.9200   -2.5895   -0.5037 C.ar    1  UNL1       -0.0567
     19 C          17.2793   -2.3331   -0.6596 C.ar    1  UNL1       -0.0351
     20 C          18.1673   -3.3999   -0.7422 C.ar    1  UNL1        0.1050
     21 S          19.8884   -3.0666   -1.0034 S.O2    1  UNL1        0.0559
     22 N          19.8637   -2.3162   -2.4976 N.3     1  UNL1       -0.2035
     23 O          20.2965   -2.0717   -0.0321 O.2     1  UNL1       -0.1533
     24 O          20.5735   -4.3187   -1.1836 O.2     1  UNL1       -0.1533
     25 C          17.7048   -4.7134   -0.6335 C.ar    1  UNL1       -0.0351
     26 C          16.3267   -4.9621   -0.6013 C.ar    1  UNL1       -0.0567
     27 C           6.5042    0.0126   -0.0237 C.ar    1  UNL1        0.0231
     28 C           5.1069   -0.0062    0.0195 C.ar    1  UNL1        0.1428
     29 O           4.4276    1.2213   -0.0152 O.2     1  UNL1       -0.4218
     30 C           3.0390    1.2655   -0.0622 C.ar    1  UNL1        0.3404
     31 O           2.4400    2.3338   -0.1429 O.2     1  UNL1       -0.2449
     32 H           0.2791   -0.8486    0.0104 H       1  UNL1        0.0280
     33 H           0.4896    0.5885   -0.9559 H       1  UNL1        0.0280
     34 H           0.4712    0.6758    0.8366 H       1  UNL1        0.0280
     35 H           1.1773   -2.5291    0.0925 H       1  UNL1        0.0278
     36 H           2.5380   -3.0949    1.0231 H       1  UNL1        0.0278
     37 H           2.5571   -3.1535   -0.7657 H       1  UNL1        0.0278
     38 H           4.6324   -3.3581    0.1687 H       1  UNL1        0.0626
     39 H           6.9069   -3.3542   -0.3710 H       1  UNL1        0.0654
     40 H           9.0174   -3.0456    0.3643 H       1  UNL1        0.0828
     41 H           9.3382   -2.2243   -2.6064 H       1  UNL1        0.0270
     42 H           7.9865   -3.1584   -2.0594 H       1  UNL1        0.0270
     43 H           9.5752   -3.8824   -1.9818 H       1  UNL1        0.0270
     44 H          11.2644   -4.0738   -0.6299 H       1  UNL1        0.1488
     45 H          13.2826   -2.4743    0.5657 H       1  UNL1        0.0465
     46 H          13.2848   -2.1971   -1.1863 H       1  UNL1        0.0465
     47 H          13.6825   -4.6304   -1.5754 H       1  UNL1        0.0328
     48 H          13.6615   -4.9287    0.1639 H       1  UNL1        0.0328
     49 H          15.2712   -1.7299   -0.3545 H       1  UNL1        0.0621
     50 H          17.6252   -1.3035   -0.7058 H       1  UNL1        0.0637
     51 H          19.5604   -1.3476   -2.5132 H       1  UNL1        0.1442
     52 H          19.6852   -2.9186   -3.2960 H       1  UNL1        0.1442
     53 H          18.4053   -5.5440   -0.5848 H       1  UNL1        0.0637
     54 H          15.9756   -5.9928   -0.6159 H       1  UNL1        0.0621
     55 H           7.0465    0.9540    0.0235 H       1  UNL1        0.0691
@<TRIPOS>BOND
     1     1     2    1
     2     2     3   ar
     3     3     4    1
     4     3     5   ar
     5     5     6   ar
     6     6     7   ar
     7     7     8   ar
     8     8     9    1
     9     9    10    1
    10    10    11    1
    11    10    12    1
    12    12    13    2
    13    12    14   am
    14    14    15    1
    15    15    16    1
    16    16    17    1
    17    17    18   ar
    18    18    19   ar
    19    19    20   ar
    20    20    21    1
    21    21    22    1
    22    21    23    2
    23    21    24    2
    24    20    25   ar
    25    25    26   ar
    26    17    26   ar
    27     8    27   ar
    28    27    28   ar
    29     5    28   ar
    30    28    29   ar
    31    29    30   ar
    32     2    30   ar
    33    30    31    2
    34     1    32    1
    35     1    33    1
    36     1    34    1
    37     4    35    1
    38     4    36    1
    39     4    37    1
    40     6    38    1
    41     7    39    1
    42    10    40    1
    43    11    41    1
    44    11    42    1
    45    11    43    1
    46    14    44    1
    47    15    45    1
    48    15    46    1
    49    16    47    1
    50    16    48    1
    51    18    49    1
    52    19    50    1
    53    22    51    1
    54    22    52    1
    55    25    53    1
    56    26    54    1
    57    27    55    1
