REMARK  4 active torsions:
REMARK  status: ('A' for Active; 'I' for Inactive)
REMARK       I    between atoms: C_2  and  N_3 
REMARK    1  A    between atoms: C_2  and  C_12 
REMARK    2  A    between atoms: N_3  and  N_4 
REMARK       I    between atoms: N_4  and  C_5 
REMARK    3  A    between atoms: C_5  and  C_7 
REMARK    4  A    between atoms: C_16  and  O_17 
ROOT
ATOM      1  O   UNL d   1       1.128  -0.070  -0.016  0.00  0.00    -0.266 OA
ATOM      2  C   UNL d   1       2.355  -0.019  -0.073  0.00  0.00     0.270 C 
ATOM      3  N   UNL d   1       3.095  -0.673  -1.053  0.00  0.00    -0.263 N 
ATOM      4  H   UNL d   1       4.113  -0.712  -1.064  0.00  0.00     0.190 HD
ENDROOT
BRANCH   3   5
ATOM      5  N   UNL d   1       2.417  -1.411  -2.062  0.00  0.00    -0.261 N 
ATOM      6  C   UNL d   1       3.122  -2.174  -2.995  0.00  0.00     0.293 C 
ATOM      7  O   UNL d   1       4.355  -2.251  -2.959  0.00  0.00    -0.264 OA
ATOM      8  H   UNL d   1       1.399  -1.411  -2.017  0.00  0.00     0.190 HD
BRANCH   6   9
ATOM      9  C   UNL d   1       2.288  -2.821  -4.000  0.00  0.00     0.144 A 
ATOM     10  C   UNL d   1       1.220  -2.335  -4.737  0.00  0.00     0.045 A 
ATOM     11  C   UNL d   1       0.740  -3.397  -5.540  0.00  0.00     0.027 A 
ATOM     12  C   UNL d   1       1.557  -4.471  -5.277  0.00  0.00     0.143 A 
ATOM     13  O   UNL d   1       2.514  -4.129  -4.367  0.00  0.00    -0.317 OA
ENDBRANCH   6   9
ENDBRANCH   3   5
BRANCH   2  14
ATOM     14  C   UNL d   1       3.114   0.788   0.935  0.00  0.00     0.036 A 
ATOM     15  C   UNL d   1       2.752   0.762   2.294  0.00  0.00     0.017 A 
ATOM     16  C   UNL d   1       3.404   1.592   3.221  0.00  0.00     0.004 A 
ATOM     17  C   UNL d   1       4.409   2.464   2.799  0.00  0.00     0.036 A 
ATOM     18  C   UNL d   1       4.760   2.486   1.452  0.00  0.00     0.066 A 
ATOM     19  C   UNL d   1       4.124   1.661   0.522  0.00  0.00     0.053 A 
BRANCH  18  20
ATOM     20  O   UNL d   1       5.729   3.322   0.978  0.00  0.00    -0.361 OA
ATOM     21  H   UNL d   1       6.107   3.833   1.713  0.00  0.00     0.217 HD
ENDBRANCH  18  20
ENDBRANCH   2  14
TORSDOF 4
