REMARK  5 active torsions:
REMARK  status: ('A' for Active; 'I' for Inactive)
REMARK    1  A    between atoms: O_1  and  C_2 
REMARK    2  A    between atoms: C_4  and  N_5 
REMARK    3  A    between atoms: N_5  and  C_6 
REMARK    4  A    between atoms: C_13  and  N_14 
REMARK    5  A    between atoms: N_14  and  C_15 
ROOT
ATOM      1  C   UNL d   1      -0.881   0.039  -0.496  0.00  0.00     0.142 C 
ATOM      2  C   UNL d   1      -0.074  -1.240  -0.355  0.00  0.00     0.059 C 
ATOM      3  C   UNL d   1       1.102  -0.851   0.589  0.00  0.00     0.086 C 
ATOM      4  C   UNL d   1       1.240   0.703   0.463  0.00  0.00     0.052 C 
ATOM      5  C   UNL d   1       0.176   1.168  -0.550  0.00  0.00     0.112 C 
ENDROOT
BRANCH   3   6
ATOM      6  N   UNL d   1       2.432  -1.499   0.434  0.00  0.00    -0.385 N 
ATOM      7  H   UNL d   1       3.142  -0.912  -0.021  0.00  0.00     0.160 HD
BRANCH   6   8
ATOM      8  C   UNL d   1       2.658  -2.834   0.123  0.00  0.00     0.028 A 
ATOM      9  C   UNL d   1       3.816  -3.427   0.633  0.00  0.00     0.029 A 
ATOM     10  C   UNL d   1       4.161  -4.743   0.310  0.00  0.00     0.002 A 
ATOM     11  C   UNL d   1       3.366  -5.485  -0.559  0.00  0.00     0.000 A 
ATOM     12  C   UNL d   1       2.262  -4.891  -1.145  0.00  0.00     0.002 A 
ATOM     13  C   UNL d   1       1.921  -3.584  -0.799  0.00  0.00     0.029 A 
ENDBRANCH   6   8
ENDBRANCH   3   6
BRANCH   1  14
ATOM     14  O   UNL d   1      -1.706   0.126   0.669  0.00  0.00    -0.393 OA
ATOM     15  H   UNL d   1      -2.221  -0.704   0.701  0.00  0.00     0.210 HD
ENDBRANCH   1  14
BRANCH   5  16
ATOM     16  N   UNL d   1       0.690   1.507  -1.929  0.00  0.00    -0.383 N 
ATOM     17  H   UNL d   1       0.550   2.478  -2.194  0.00  0.00     0.160 HD
BRANCH  16  18
ATOM     18  C   UNL d   1       1.484   0.761  -2.782  0.00  0.00     0.028 A 
ATOM     19  C   UNL d   1       2.004  -0.449  -2.421  0.00  0.00     0.029 A 
ATOM     20  C   UNL d   1       2.682  -1.398  -3.161  0.00  0.00     0.002 A 
ATOM     21  C   UNL d   1       2.939  -1.097  -4.465  0.00  0.00     0.000 A 
ATOM     22  C   UNL d   1       2.549   0.163  -4.907  0.00  0.00     0.002 A 
ATOM     23  C   UNL d   1       1.813   1.080  -4.094  0.00  0.00     0.029 A 
ENDBRANCH  16  18
ENDBRANCH   5  16
TORSDOF 5
