@<TRIPOS>MOLECULE
*****
 28 29 0 0 0
SMALL
GASTEIGER

@<TRIPOS>ATOM
      1 N           1.1696   -0.0366    0.0545 N.3     1  UNL1       -0.2540
      2 N           2.5855    0.0247    0.1261 N.am    1  UNL1       -0.2470
      3 C           3.2648   -0.3245    1.3086 C.2     1  UNL1        0.2927
      4 O           2.6679   -0.6061    2.3527 O.2     1  UNL1       -0.2655
      5 C           4.7174   -0.2499    1.2006 C.ar    1  UNL1        0.1911
      6 C           5.5109    0.7039    0.5853 C.ar    1  UNL1       -0.0106
      7 C           6.8549    0.3452    0.8200 C.ar    1  UNL1       -0.0151
      8 C           6.8367   -0.8274    1.5423 C.ar    1  UNL1        0.1359
      9 C           7.9220   -1.6314    2.0981 C.ar    1  UNL1        0.0178
     10 C           8.0869   -2.9837    1.7820 C.ar    1  UNL1       -0.0511
     11 C           9.1369   -3.7253    2.3416 C.ar    1  UNL1       -0.0606
     12 C          10.0744   -3.1074    3.1695 C.ar    1  UNL1       -0.0501
     13 C           9.9522   -1.7459    3.4736 C.ar    1  UNL1        0.0555
     14 C          10.9225   -1.0950    4.4268 C.3     1  UNL1        0.4174
     15 F          10.9090   -1.6845    5.6545 F       1  UNL1       -0.1659
     16 F          12.2126   -1.1580    3.9956 F       1  UNL1       -0.1659
     17 F          10.6667    0.2253    4.6449 F       1  UNL1       -0.1659
     18 C           8.8811   -1.0186    2.9223 C.ar    1  UNL1       -0.0394
     19 O           5.5363   -1.1939    1.7964 O.2     1  UNL1       -0.4502
     20 H           0.8390    0.2364   -0.8723 H       1  UNL1        0.1405
     21 H           0.7861    0.6470    0.7153 H       1  UNL1        0.1405
     22 H           3.1192    0.1221   -0.7347 H       1  UNL1        0.1691
     23 H           5.1541    1.5847    0.0728 H       1  UNL1        0.0657
     24 H           7.7464    0.8729    0.5135 H       1  UNL1        0.0656
     25 H           7.4133   -3.4687    1.0795 H       1  UNL1        0.0625
     26 H           9.2173   -4.7921    2.1430 H       1  UNL1        0.0618
     27 H          10.8956   -3.6907    3.5866 H       1  UNL1        0.0623
     28 H           8.7886    0.0426    3.1534 H       1  UNL1        0.0630
@<TRIPOS>BOND
     1     1     2    1
     2     2     3   am
     3     3     4    2
     4     3     5    1
     5     5     6   ar
     6     6     7   ar
     7     7     8   ar
     8     8     9    1
     9     9    10   ar
    10    10    11   ar
    11    11    12   ar
    12    12    13   ar
    13    13    14    1
    14    14    15    1
    15    14    16    1
    16    14    17    1
    17    13    18   ar
    18     9    18   ar
    19     8    19   ar
    20     5    19   ar
    21     1    20    1
    22     1    21    1
    23     2    22    1
    24     6    23    1
    25     7    24    1
    26    10    25    1
    27    11    26    1
    28    12    27    1
    29    18    28    1
