REMARK  4 active torsions:
REMARK  status: ('A' for Active; 'I' for Inactive)
REMARK    1  A    between atoms: C_8  and  N_9 
REMARK       I    between atoms: N_9  and  C_10 
REMARK    2  A    between atoms: C_10  and  C_12 
REMARK    3  A    between atoms: N_15  and  N_16 
REMARK    4  A    between atoms: N_16  and  C_17 
ROOT
ATOM      1  C   UNL d   1       1.174   4.909  -0.109  0.00  0.00     0.224 C 
ATOM      2  C   UNL d   1      -0.060   5.630  -0.081  0.00  0.00     0.127 C 
ATOM      3  N   UNL d   1      -1.081   6.175  -0.066  0.00  0.00    -0.189 NA
ATOM      4  N   UNL d   1       2.312   5.561  -0.174  0.00  0.00    -0.158 NA
ENDROOT
BRANCH   1   5
ATOM      5  C   UNL d   1       1.261   3.414  -0.054  0.00  0.00     0.287 C 
ATOM      6  N   UNL d   1       0.127   2.572  -0.037  0.00  0.00    -0.320 N 
ATOM      7  H   UNL d   1      -0.790   3.006  -0.045  0.00  0.00     0.169 HD
ATOM      8  O   UNL d   1       2.443   3.106  -0.014  0.00  0.00    -0.265 OA
BRANCH   6   9
ATOM      9  C   UNL d   1       0.096   1.109  -0.011  0.00  0.00     0.047 A 
ATOM     10  C   UNL d   1      -1.159   0.422  -0.005  0.00  0.00    -0.035 A 
ATOM     11  C   UNL d   1      -1.201  -1.001  -0.003  0.00  0.00     0.009 A 
ATOM     12  C   UNL d   1      -2.507   1.100  -0.005  0.00  0.00     0.050 C 
ATOM     13  C   UNL d   1      -0.046  -1.765  -0.000  0.00  0.00     0.001 A 
ATOM     14  C   UNL d   1       1.168  -1.121   0.005  0.00  0.00     0.009 A 
ATOM     15  C   UNL d   1       1.252   0.284  -0.001  0.00  0.00    -0.035 A 
ATOM     16  C   UNL d   1       2.661   0.768   0.005  0.00  0.00     0.050 C 
ENDBRANCH   6   9
ENDBRANCH   1   5
BRANCH   4  17
ATOM     17  N   UNL d   1       2.413   6.903  -0.139  0.00  0.00    -0.277 N 
ATOM     18  H   UNL d   1       1.621   7.525  -0.017  0.00  0.00     0.189 HD
BRANCH  17  19
ATOM     19  C   UNL d   1       3.682   7.524  -0.172  0.00  0.00     0.051 A 
ATOM     20  C   UNL d   1       4.737   7.073  -0.972  0.00  0.00     0.032 A 
ATOM     21  C   UNL d   1       5.956   7.774  -1.021  0.00  0.00     0.014 A 
ATOM     22  C   UNL d   1       6.165   8.924  -0.243  0.00  0.00    -0.026 A 
ATOM     23  C   UNL d   1       7.364   9.660  -0.311  0.00  0.00     0.012 A 
ATOM     24  C   UNL d   1       5.140   9.348   0.629  0.00  0.00    -0.024 A 
ATOM     25  C   UNL d   1       7.557  10.795   0.479  0.00  0.00     0.001 A 
ATOM     26  C   UNL d   1       6.555  11.205   1.352  0.00  0.00     0.001 A 
ATOM     27  C   UNL d   1       5.359  10.485   1.431  0.00  0.00     0.012 A 
ATOM     28  C   UNL d   1       3.922   8.632   0.658  0.00  0.00     0.043 A 
ENDBRANCH  17  19
ENDBRANCH   4  17
TORSDOF 4
