REMARK  6 active torsions:
REMARK  status: ('A' for Active; 'I' for Inactive)
REMARK    1  A    between atoms: C_9  and  O_10 
REMARK    2  A    between atoms: C_12  and  O_13 
REMARK    3  A    between atoms: C_16  and  C_17 
REMARK    4  A    between atoms: N_18  and  N_19 
REMARK       I    between atoms: N_19  and  C_20 
REMARK       I    between atoms: C_20  and  N_21 
REMARK    5  A    between atoms: C_23  and  O_24 
REMARK    6  A    between atoms: C_27  and  C_28 
ROOT
ATOM      1  C   UNL d   1       0.698  -0.264  -0.089  0.00  0.00     0.019 C 
ATOM      2  C   UNL d   1       2.284  -0.070   0.142  0.00  0.00    -0.005 C 
ATOM      3  C   UNL d   1       2.953  -1.267  -0.544  0.00  0.00     0.013 C 
ATOM      4  C   UNL d   1       2.535  -1.390  -1.974  0.00  0.00     0.007 C 
ATOM      5  C   UNL d   1       2.927  -0.097  -2.640  0.00  0.00     0.009 C 
ATOM      6  C   UNL d   1       2.222   1.287  -1.966  0.00  0.00     0.026 C 
ATOM      7  C   UNL d   1       2.715   2.449  -2.884  0.00  0.00     0.011 C 
ATOM      8  C   UNL d   1       4.175   2.662  -2.915  0.00  0.00     0.039 C 
ATOM      9  C   UNL d   1       4.846   1.355  -3.101  0.00  0.00     0.073 C 
ATOM     10  C   UNL d   1       5.403   1.476  -4.459  0.00  0.00     0.070 C 
ATOM     11  C   UNL d   1       6.794   1.982  -4.278  0.00  0.00     0.121 C 
ATOM     12  C   UNL d   1       7.208   0.528  -4.391  0.00  0.00     0.033 C 
ATOM     13  C   UNL d   1       6.142  -0.499  -3.155  0.00  0.00     0.021 C 
ATOM     14  C   UNL d   1       4.420  -0.099  -3.238  0.00  0.00     0.031 C 
ATOM     15  C   UNL d   1       2.403   1.373  -0.337  0.00  0.00     0.070 C 
ATOM     16  C   UNL d   1       1.548   1.846   1.157  0.00  0.00     0.040 C 
ATOM     17  C   UNL d   1       2.666   1.520   2.121  0.00  0.00     0.013 C 
ATOM     18  C   UNL d   1       2.950   0.077   1.597  0.00  0.00     0.028 C 
ENDROOT
BRANCH  14  19
ATOM     19  C   UNL d   1       4.255  -1.052  -4.496  0.00  0.00     0.124 C 
ATOM     20  N   UNL d   1       3.275  -0.960  -5.341  0.00  0.00    -0.186 NA
BRANCH  20  21
ATOM     21  N   UNL d   1       3.479  -1.665  -6.491  0.00  0.00    -0.230 N 
ATOM     22  C   UNL d   1       2.465  -1.799  -7.382  0.00  0.00     0.334 C 
ATOM     23  N   UNL d   1       1.265  -1.382  -6.956  0.00  0.00    -0.351 N 
ATOM     24  O   UNL d   1       2.641  -2.305  -8.526  0.00  0.00    -0.246 OA
ATOM     25  H   UNL d   1       1.218  -0.979  -6.025  0.00  0.00     0.160 HD
ATOM     26  H   UNL d   1       0.447  -1.477  -7.534  0.00  0.00     0.160 HD
ATOM     27  H   UNL d   1       4.412  -1.930  -6.790  0.00  0.00     0.194 HD
ENDBRANCH  20  21
ENDBRANCH  14  19
BRANCH   9  28
ATOM     28  O   UNL d   1       5.660   1.432  -1.864  0.00  0.00    -0.389 OA
ATOM     29  H   UNL d   1       6.550   1.834  -2.027  0.00  0.00     0.210 HD
ENDBRANCH   9  28
BRANCH  11  30
ATOM     30  O   UNL d   1       7.515   2.322  -3.096  0.00  0.00    -0.395 OA
ATOM     31  H   UNL d   1       8.369   1.828  -3.142  0.00  0.00     0.210 HD
ENDBRANCH  11  30
BRANCH  15  32
ATOM     32  O   UNL d   1       3.724   1.882  -0.191  0.00  0.00    -0.389 OA
ATOM     33  H   UNL d   1       4.316   1.429  -0.823  0.00  0.00     0.210 HD
ENDBRANCH  15  32
BRANCH  18  34
ATOM     34  C   UNL d   1       2.442  -1.044   2.438  0.00  0.00    -0.045 A 
ATOM     35  C   UNL d   1       1.172  -1.331   2.724  0.00  0.00     0.087 A 
ATOM     36  C   UNL d   1       1.164  -2.659   3.266  0.00  0.00     0.283 A 
ATOM     37  O   UNL d   1       0.106  -3.277   3.549  0.00  0.00    -0.260 OA
ATOM     38  O   UNL d   1       2.417  -3.132   3.374  0.00  0.00    -0.314 OA
ATOM     39  C   UNL d   1       3.320  -2.151   2.854  0.00  0.00     0.213 A 
ENDBRANCH  18  34
TORSDOF 6
