@<TRIPOS>MOLECULE
*****
 64 65 0 0 0
SMALL
GASTEIGER

@<TRIPOS>ATOM
      1 C           0.9065   -0.0370   -0.0562 C.3     1  UNL1       -0.0653
      2 C           2.4113   -0.0076   -0.0708 C.3     1  UNL1       -0.0559
      3 C           2.8696    0.6338   -1.3693 C.3     1  UNL1       -0.0532
      4 C           4.3641    0.6410   -1.3655 C.3     1  UNL1       -0.0509
      5 C           4.9191    1.2033   -2.6600 C.3     1  UNL1       -0.0258
      6 C           6.4361    1.0105   -2.7535 C.3     1  UNL1        0.1022
      7 C           6.5173   -0.5391   -2.6596 C.2     1  UNL1        0.2348
      8 O           6.5207   -1.2399   -3.6657 O.2     1  UNL1       -0.2737
      9 N           6.6839   -1.0318   -1.3570 N.am    1  UNL1       -0.2946
     10 C           6.9520   -2.4402   -1.0585 C.3     1  UNL1        0.1356
     11 S           6.4554   -3.1372    0.4960 S.O2    1  UNL1        0.0129
     12 O           7.1191   -2.3930    1.5391 O.2     1  UNL1       -0.1678
     13 O           4.9970   -3.2285    0.4662 O.2     1  UNL1       -0.1678
     14 C           7.1191   -4.8011    0.4921 C.ar    1  UNL1        0.0899
     15 C           8.4723   -5.0360    0.7711 C.ar    1  UNL1       -0.0366
     16 C           8.9465   -6.3558    0.8586 C.ar    1  UNL1       -0.0570
     17 C           8.0812   -7.4434    0.6783 C.ar    1  UNL1       -0.0503
     18 C           8.5789   -8.8593    0.7790 C.3     1  UNL1       -0.0397
     19 C           6.7320   -7.1919    0.3995 C.ar    1  UNL1       -0.0570
     20 C           6.2528   -5.8801    0.3053 C.ar    1  UNL1       -0.0366
     21 N           7.0802    1.5846   -3.9876 N.am    1  UNL1       -0.2890
     22 C           6.2086    2.2018   -5.0033 C.3     1  UNL1        0.0042
     23 C           8.4834    1.8074   -4.1645 C.2     1  UNL1        0.2474
     24 O           8.8978    2.8165   -4.7394 O.2     1  UNL1       -0.2700
     25 C           9.5268    0.7331   -3.8526 C.ar    1  UNL1        0.0497
     26 C          10.8754    0.8255   -4.1932 C.ar    1  UNL1        0.0281
     27 C          11.7424   -0.2798   -3.9351 C.ar    1  UNL1        0.2803
     28 N          13.1818   -0.1638   -4.1264 N.pl3   1  UNL1        0.0798
     29 O          13.6191    0.9162   -4.5320 O.2     1  UNL1        0.0414
     30 O          13.8723   -1.1548   -3.8476 O.co2   1  UNL1       -0.5760
     31 C          11.2808   -1.5211   -3.4867 C.ar    1  UNL1        0.0926
     32 C           9.9522   -1.6269   -3.2228 C.ar    1  UNL1        0.2803
     33 N           9.4095   -2.9444   -2.9049 N.pl3   1  UNL1        0.0798
     34 O          10.0991   -3.6936   -2.2043 O.2     1  UNL1        0.0414
     35 O           8.2994   -3.2440   -3.3532 O.co2   1  UNL1       -0.5760
     36 C           9.1920   -0.4586   -3.2354 C.ar    1  UNL1        0.0281
     37 H           0.5467   -0.4692    0.8779 H       1  UNL1        0.0230
     38 H           0.5335   -0.6357   -0.8934 H       1  UNL1        0.0230
     39 H           0.5156    0.9796   -0.1565 H       1  UNL1        0.0230
     40 H           2.8075   -1.0291    0.0200 H       1  UNL1        0.0263
     41 H           2.7993    0.5592    0.7837 H       1  UNL1        0.0263
     42 H           2.4920    1.6509   -1.4873 H       1  UNL1        0.0265
     43 H           2.5249    0.0329   -2.2220 H       1  UNL1        0.0265
     44 H           4.5880   -0.4201   -1.2668 H       1  UNL1        0.0266
     45 H           4.7942    1.1661   -0.5053 H       1  UNL1        0.0266
     46 H           4.6342    2.2553   -2.7498 H       1  UNL1        0.0288
     47 H           4.4556    0.6463   -3.4879 H       1  UNL1        0.0288
     48 H           6.9423    1.4849   -1.9001 H       1  UNL1        0.0597
     49 H           6.4190   -0.4668   -0.5568 H       1  UNL1        0.1503
     50 H           8.0382   -2.4881   -0.9900 H       1  UNL1        0.0710
     51 H           6.5234   -3.0617   -1.8413 H       1  UNL1        0.0710
     52 H           9.1712   -4.2199    0.9371 H       1  UNL1        0.0637
     53 H           9.9979   -6.5351    1.0816 H       1  UNL1        0.0621
     54 H           9.6475   -8.8956    1.0169 H       1  UNL1        0.0278
     55 H           8.4321   -9.3813   -0.1724 H       1  UNL1        0.0278
     56 H           8.0457   -9.4005    1.5684 H       1  UNL1        0.0278
     57 H           6.0392   -8.0208    0.2652 H       1  UNL1        0.0621
     58 H           5.1967   -5.7164    0.1033 H       1  UNL1        0.0637
     59 H           5.1426    2.1067   -4.7925 H       1  UNL1        0.0429
     60 H           6.3736    1.6777   -5.9486 H       1  UNL1        0.0429
     61 H           6.4182    3.2678   -5.1316 H       1  UNL1        0.0429
     62 H          11.2658    1.7549   -4.6051 H       1  UNL1        0.0693
     63 H          11.9251   -2.3765   -3.3010 H       1  UNL1        0.0754
     64 H           8.5158   -0.3386   -2.4253 H       1  UNL1        0.0693
@<TRIPOS>UNITY_ATOM_ATTR
28 1
charge 1
30 1
charge -1
33 1
charge 1
35 1
charge -1
@<TRIPOS>BOND
     1     1     2    1
     2     2     3    1
     3     3     4    1
     4     4     5    1
     5     5     6    1
     6     6     7    1
     7     7     8    2
     8     7     9   am
     9     9    10    1
    10    10    11    1
    11    11    12    2
    12    11    13    2
    13    11    14    1
    14    14    15   ar
    15    15    16   ar
    16    16    17   ar
    17    17    18    1
    18    17    19   ar
    19    19    20   ar
    20    14    20   ar
    21     6    21    1
    22    21    22    1
    23    21    23   am
    24    23    24    2
    25    23    25    1
    26    25    26   ar
    27    26    27   ar
    28    27    28    1
    29    28    29    2
    30    28    30    1
    31    27    31   ar
    32    31    32   ar
    33    32    33    1
    34    33    34    2
    35    33    35    1
    36    32    36   ar
    37    25    36   ar
    38     1    37    1
    39     1    38    1
    40     1    39    1
    41     2    40    1
    42     2    41    1
    43     3    42    1
    44     3    43    1
    45     4    44    1
    46     4    45    1
    47     5    46    1
    48     5    47    1
    49     6    48    1
    50     9    49    1
    51    10    50    1
    52    10    51    1
    53    15    52    1
    54    16    53    1
    55    18    54    1
    56    18    55    1
    57    18    56    1
    58    19    57    1
    59    20    58    1
    60    22    59    1
    61    22    60    1
    62    22    61    1
    63    26    62    1
    64    31    63    1
    65    36    64    1
