@<TRIPOS>MOLECULE
*****
 49 50 0 0 0
SMALL
GASTEIGER

@<TRIPOS>ATOM
      1 O           1.0579   -0.0657   -0.0814 O.2     1  UNL1       -0.2758
      2 C           2.2844   -0.0069   -0.0832 C.2     1  UNL1        0.2131
      3 C           3.0557    1.3030    0.0848 C.3     1  UNL1        0.0254
      4 C           2.1087    2.4992    0.2303 C.3     1  UNL1       -0.0291
      5 C           2.8649    3.8199    0.3851 C.3     1  UNL1        0.0120
      6 N           1.9855    4.9721    0.4989 N.am    1  UNL1       -0.3151
      7 C           2.4778    6.2553    0.6449 C.2     1  UNL1        0.2161
      8 O           3.6691    6.5486    0.6691 O.2     1  UNL1       -0.2755
      9 C           1.4186    7.2893    0.8175 C.3     1  UNL1        0.0356
     10 C           1.4081    8.7213    0.3211 C.3     1  UNL1       -0.0412
     11 C           0.6733    7.6751   -0.4504 C.3     1  UNL1       -0.0412
     12 N           3.0098   -1.1559   -0.2425 N.am    1  UNL1       -0.3128
     13 C           4.4437   -1.2252   -0.2505 C.3     1  UNL1        0.0379
     14 C           5.0236   -2.6398   -0.4018 C.3     1  UNL1        0.0735
     15 O           4.5695   -3.2230   -1.6290 O.3     1  UNL1       -0.3900
     16 C           6.5763   -2.6444   -0.3848 C.3     1  UNL1       -0.0135
     17 C           7.1581   -1.3251    0.1557 C.3     1  UNL1       -0.0478
     18 C           8.6655   -1.3280    0.2753 C.3     1  UNL1       -0.0527
     19 C           9.1235   -2.4900    1.1386 C.3     1  UNL1       -0.0530
     20 C           8.6137   -3.8139    0.5777 C.3     1  UNL1       -0.0527
     21 C           7.0912   -3.8273    0.4545 C.3     1  UNL1       -0.0478
     22 H           3.6993    1.4502   -0.7908 H       1  UNL1        0.0359
     23 H           3.6951    1.2309    0.9730 H       1  UNL1        0.0359
     24 H           1.4557    2.3395    1.0977 H       1  UNL1        0.0285
     25 H           1.4520    2.5481   -0.6471 H       1  UNL1        0.0285
     26 H           3.5193    3.9868   -0.4772 H       1  UNL1        0.0462
     27 H           3.4948    3.7926    1.2814 H       1  UNL1        0.0462
     28 H           0.9825    4.8285    0.5165 H       1  UNL1        0.1487
     29 H           0.9391    7.2220    1.7891 H       1  UNL1        0.0394
     30 H           2.2955    9.1643   -0.1131 H       1  UNL1        0.0273
     31 H           0.7928    9.4482    0.8498 H       1  UNL1        0.0273
     32 H           1.1086    7.4185   -1.4129 H       1  UNL1        0.0273
     33 H          -0.4070    7.6306   -0.4345 H       1  UNL1        0.0273
     34 H           2.4778   -2.0113   -0.3652 H       1  UNL1        0.1488
     35 H           4.7606   -0.7881    0.7003 H       1  UNL1        0.0487
     36 H           4.7836   -0.5915   -1.0759 H       1  UNL1        0.0487
     37 H           4.6260   -3.2762    0.3974 H       1  UNL1        0.0611
     38 H           4.8706   -2.6582   -2.3625 H       1  UNL1        0.2099
     39 H           6.9481   -2.7859   -1.4103 H       1  UNL1        0.0326
     40 H           6.7458   -1.1251    1.1524 H       1  UNL1        0.0269
     41 H           6.8805   -0.4935   -0.5013 H       1  UNL1        0.0269
     42 H           8.9851   -0.3777    0.7173 H       1  UNL1        0.0265
     43 H           9.1103   -1.3928   -0.7237 H       1  UNL1        0.0265
     44 H           8.7506   -2.3556    2.1624 H       1  UNL1        0.0265
     45 H          10.2160   -2.4953    1.1880 H       1  UNL1        0.0265
     46 H           8.9374   -4.6350    1.2254 H       1  UNL1        0.0265
     47 H           9.0567   -3.9824   -0.4111 H       1  UNL1        0.0265
     48 H           6.6531   -3.7812    1.4604 H       1  UNL1        0.0269
     49 H           6.7674   -4.7759    0.0096 H       1  UNL1        0.0269
@<TRIPOS>BOND
     1     1     2    2
     2     2     3    1
     3     3     4    1
     4     4     5    1
     5     5     6    1
     6     6     7   am
     7     7     8    2
     8     7     9    1
     9     9    10    1
    10    10    11    1
    11     9    11    1
    12     2    12   am
    13    12    13    1
    14    13    14    1
    15    14    15    1
    16    14    16    1
    17    16    17    1
    18    17    18    1
    19    18    19    1
    20    19    20    1
    21    20    21    1
    22    16    21    1
    23     3    22    1
    24     3    23    1
    25     4    24    1
    26     4    25    1
    27     5    26    1
    28     5    27    1
    29     6    28    1
    30     9    29    1
    31    10    30    1
    32    10    31    1
    33    11    32    1
    34    11    33    1
    35    12    34    1
    36    13    35    1
    37    13    36    1
    38    14    37    1
    39    15    38    1
    40    16    39    1
    41    17    40    1
    42    17    41    1
    43    18    42    1
    44    18    43    1
    45    19    44    1
    46    19    45    1
    47    20    46    1
    48    20    47    1
    49    21    48    1
    50    21    49    1
