REMARK  10 active torsions:
REMARK  status: ('A' for Active; 'I' for Inactive)
REMARK    1  A    between atoms: C_2  and  N_3 
REMARK    2  A    between atoms: C_4  and  S_5 
REMARK    3  A    between atoms: S_5  and  C_6 
REMARK    4  A    between atoms: C_6  and  C_7 
REMARK       I    between atoms: C_7  and  N_9 
REMARK    5  A    between atoms: N_9  and  C_10 
REMARK    6  A    between atoms: C_18  and  CA_19 
REMARK    7  A    between atoms: CA_19  and  C_20 
REMARK    8  A    between atoms: CA_19  and  N_22 
REMARK    9  A    between atoms: C_20  and  O_21 
REMARK       I    between atoms: N_22  and  C_23 
REMARK   10  A    between atoms: C_23  and  C_25 
ROOT
ATOM      1  N   UNL d   1       3.068  -0.675   1.274  0.00  0.00    -0.310 N 
ATOM      2  C   UNL d   1       3.683  -0.362   2.467  0.00  0.00     0.192 A 
ATOM      3  N   UNL d   1       3.827  -1.478   3.150  0.00  0.00    -0.122 NA
ATOM      4  N   UNL d   1       3.373  -2.527   2.394  0.00  0.00    -0.132 NA
ATOM      5  C   UNL d   1       2.910  -2.068   1.244  0.00  0.00     0.155 A 
ENDROOT
BRANCH   5   6
ATOM      6  CA  UNL d   1       2.269  -2.995   0.175  0.00  0.00     0.180 C 
BRANCH   6   7
ATOM      7  C   UNL d   1       0.981  -3.647   0.755  0.00  0.00     0.197 C 
BRANCH   7   8
ATOM      8  O   UNL d   1       1.208  -4.518   1.860  0.00  0.00    -0.398 OA
ATOM      9  H   UNL d   1       1.942  -5.115   1.630  0.00  0.00     0.209 HD
ENDBRANCH   7   8
ENDBRANCH   6   7
BRANCH   6  10
ATOM     10  N   UNL d   1       2.005  -2.349  -1.125  0.00  0.00    -0.343 N 
ATOM     11  C   UNL d   1       1.390  -2.877  -2.231  0.00  0.00     0.254 C 
ATOM     12  O   UNL d   1       1.022  -4.041  -2.329  0.00  0.00    -0.268 OA
ATOM     13  H   UNL d   1       2.147  -1.371  -1.218  0.00  0.00     0.163 HD
BRANCH  11  14
ATOM     14  C   UNL d   1       1.064  -1.877  -3.308  0.00  0.00     0.053 A 
ATOM     15  C   UNL d   1      -0.237  -1.884  -3.837  0.00  0.00     0.019 A 
ATOM     16  C   UNL d   1      -0.623  -0.947  -4.806  0.00  0.00     0.001 A 
ATOM     17  C   UNL d   1       0.281   0.015  -5.250  0.00  0.00     0.002 A 
ATOM     18  C   UNL d   1       1.578   0.029  -4.741  0.00  0.00     0.025 A 
ATOM     19  C   UNL d   1       1.975  -0.919  -3.786  0.00  0.00     0.049 A 
ATOM     20 CL   UNL d   1       3.629  -0.863  -3.289  0.00  0.00    -0.083 Cl
ENDBRANCH  11  14
ENDBRANCH   6  10
ENDBRANCH   5   6
BRANCH   1  21
ATOM     21  C   UNL d   1       2.610   0.216   0.247  0.00  0.00     0.128 C 
ATOM     22  C   UNL d   1       1.088   0.234   0.138  0.00  0.00     0.027 C 
ENDBRANCH   1  21
BRANCH   2  23
ATOM     23  S   UNL d   1       4.211   1.152   3.156  0.00  0.00    -0.081 SA
BRANCH  23  24
ATOM     24  C   UNL d   1       4.067   2.556   2.021  0.00  0.00     0.185 C 
BRANCH  24  25
ATOM     25  C   UNL d   1       4.595   3.880   2.618  0.00  0.00     0.227 C 
ATOM     26  O   UNL d   1       5.138   3.951   3.717  0.00  0.00    -0.273 OA
ATOM     27  N   UNL d   1       4.407   5.018   1.822  0.00  0.00    -0.356 N 
ATOM     28  H   UNL d   1       4.051   4.924   0.880  0.00  0.00     0.162 HD
BRANCH  27  29
ATOM     29  C   UNL d   1       4.846   6.363   2.265  0.00  0.00     0.084 C 
ATOM     30  C   UNL d   1       4.598   7.454   1.194  0.00  0.00     0.025 C 
ATOM     31  C   UNL d   1       4.966   8.862   1.690  0.00  0.00     0.002 C 
ATOM     32  C   UNL d   1       4.255   9.210   2.994  0.00  0.00     0.000 C 
ATOM     33  C   UNL d   1       4.541   8.157   4.051  0.00  0.00     0.002 C 
ATOM     34  C   UNL d   1       4.142   6.767   3.571  0.00  0.00     0.025 C 
ENDBRANCH  27  29
ENDBRANCH  24  25
ENDBRANCH  23  24
ENDBRANCH   2  23
TORSDOF 10
