@<TRIPOS>MOLECULE
*****
 57 60 0 0 0
SMALL
GASTEIGER

@<TRIPOS>ATOM
      1 C           2.2453   -0.4055   -0.0016 C.3     1  UNL1       -0.0380
      2 C           0.8162   -0.0476    0.0075 C.ar    1  UNL1       -0.0292
      3 C           0.0950   -1.2446    0.0065 C.ar    1  UNL1       -0.0571
      4 C          -1.2634   -1.2024   -0.0000 C.ar    1  UNL1       -0.0614
      5 C          -1.8868    0.0417   -0.0077 C.ar    1  UNL1       -0.0600
      6 C          -1.1646    1.2567    0.0016 C.ar    1  UNL1       -0.0402
      7 C           0.2221    1.2676    0.0102 C.ar    1  UNL1        0.0364
      8 N           0.8699    2.6100    0.0276 N.am    1  UNL1       -0.2838
      9 C           2.2011    2.7659   -0.0160 C.2     1  UNL1        0.2372
     10 O           2.8126    1.7342   -0.1542 O.2     1  UNL1       -0.2735
     11 C           3.1918    3.8757   -0.0049 C.3     1  UNL1        0.1051
     12 N           4.7187    3.4299   -0.0468 N.ar    1  UNL1       -0.2784
     13 C           5.5669    4.5448   -0.1476 C.ar    1  UNL1        0.3335
     14 O           5.0917    5.6841   -0.2142 O.2     1  UNL1       -0.2462
     15 N           6.9508    4.3322   -0.0854 N.ar    1  UNL1       -0.2559
     16 C           7.8342    5.4748    0.0104 C.3     1  UNL1        0.0560
     17 C           7.6808    6.2494    1.2975 C.ar    1  UNL1       -0.0275
     18 C           8.4701    7.3835    1.5063 C.ar    1  UNL1       -0.0569
     19 C           8.2947    8.1452    2.6604 C.ar    1  UNL1       -0.0614
     20 C           7.3294    7.7888    3.6041 C.ar    1  UNL1       -0.0617
     21 C           6.5501    6.6593    3.4127 C.ar    1  UNL1       -0.0614
     22 C           6.7534    5.8804    2.2873 C.ar    1  UNL1       -0.0569
     23 C           7.6125    3.1241   -0.0227 C.ar    1  UNL1        0.2654
     24 O           8.8334    3.0233    0.0152 O.2     1  UNL1       -0.2668
     25 C           6.7788    1.9733   -0.0082 C.ar    1  UNL1        0.0742
     26 C           7.2314    0.5791    0.0155 C.ar    1  UNL1       -0.0168
     27 C           8.6313    0.1709    0.0364 C.3     1  UNL1       -0.0377
     28 C           6.2157   -0.3490    0.0069 C.ar    1  UNL1        0.0807
     29 C           6.1438   -1.8335    0.0070 C.2     1  UNL1        0.2643
     30 O           5.1031   -2.4989    0.0042 O.2     1  UNL1       -0.2683
     31 N           7.3788   -2.4956    0.0274 N.am    1  UNL1       -0.2491
     32 N           7.5266   -3.8934   -0.0223 N.3     1  UNL1       -0.2541
     33 S           4.8547    0.5719    0.0278 S.2     1  UNL1       -0.0653
     34 C           5.4212    2.1485   -0.0097 C.ar    1  UNL1        0.0979
     35 H           2.5776   -1.4434    0.0050 H       1  UNL1        0.0278
     36 H           2.6205   -0.0073    0.9524 H       1  UNL1        0.0278
     37 H           2.6077   -0.0473   -0.9778 H       1  UNL1        0.0278
     38 H           0.6334   -2.1952    0.0072 H       1  UNL1        0.0621
     39 H          -1.8019   -2.1407   -0.0020 H       1  UNL1        0.0618
     40 H          -2.9682    0.0628   -0.0217 H       1  UNL1        0.0618
     41 H          -1.7162    2.1885    0.0012 H       1  UNL1        0.0636
     42 H           0.2699    3.4220    0.0087 H       1  UNL1        0.1549
     43 H           3.0438    4.4863    0.8938 H       1  UNL1        0.0589
     44 H           3.0144    4.4899   -0.8982 H       1  UNL1        0.0589
     45 H           7.6673    6.1022   -0.8688 H       1  UNL1        0.0544
     46 H           8.8848    5.1578   -0.0272 H       1  UNL1        0.0544
     47 H           9.2182    7.6807    0.7733 H       1  UNL1        0.0621
     48 H           8.9044    9.0285    2.8209 H       1  UNL1        0.0618
     49 H           7.1836    8.3879    4.4958 H       1  UNL1        0.0618
     50 H           5.7776    6.3732    4.1195 H       1  UNL1        0.0618
     51 H           6.1328    4.9959    2.1935 H       1  UNL1        0.0621
     52 H           9.3363    0.9802    0.0520 H       1  UNL1        0.0278
     53 H           8.8056   -0.3991   -0.8798 H       1  UNL1        0.0278
     54 H           8.7778   -0.4099    0.9514 H       1  UNL1        0.0278
     55 H           8.2345   -1.9771   -0.0243 H       1  UNL1        0.1690
     56 H           6.5943   -4.3165    0.0163 H       1  UNL1        0.1405
     57 H           8.0084   -4.1858    0.8316 H       1  UNL1        0.1405
@<TRIPOS>BOND
     1     1     2    1
     2     2     3   ar
     3     3     4   ar
     4     4     5   ar
     5     5     6   ar
     6     6     7   ar
     7     2     7   ar
     8     7     8    1
     9     8     9   am
    10     9    10    2
    11     9    11    1
    12    11    12    1
    13    12    13   ar
    14    13    14    2
    15    13    15   ar
    16    15    16    1
    17    16    17    1
    18    17    18   ar
    19    18    19   ar
    20    19    20   ar
    21    20    21   ar
    22    21    22   ar
    23    17    22   ar
    24    15    23   ar
    25    23    24    2
    26    23    25   ar
    27    25    26   ar
    28    26    27    1
    29    26    28   ar
    30    28    29    1
    31    29    30    2
    32    29    31   am
    33    31    32    1
    34    28    33   ar
    35    33    34   ar
    36    25    34   ar
    37    12    34   ar
    38     1    35    1
    39     1    36    1
    40     1    37    1
    41     3    38    1
    42     4    39    1
    43     5    40    1
    44     6    41    1
    45     8    42    1
    46    11    43    1
    47    11    44    1
    48    16    45    1
    49    16    46    1
    50    18    47    1
    51    19    48    1
    52    20    49    1
    53    21    50    1
    54    22    51    1
    55    27    52    1
    56    27    53    1
    57    27    54    1
    58    31    55    1
    59    32    56    1
    60    32    57    1
