REMARK  3 active torsions:
REMARK  status: ('A' for Active; 'I' for Inactive)
REMARK    1  A    between atoms: C_4  and  C_5 
REMARK       I    between atoms: C_5  and  N_7 
REMARK    2  A    between atoms: N_7  and  N_8 
REMARK       I    between atoms: N_8  and  C_9 
REMARK    3  A    between atoms: C_9  and  C_11 
ROOT
ATOM      1  N   UNL d   1       6.932  -0.535  -2.385  0.00  0.00    -0.263 N 
ATOM      2  C   UNL d   1       7.619  -0.766  -3.574  0.00  0.00     0.277 C 
ATOM      3  O   UNL d   1       6.993  -0.949  -4.625  0.00  0.00    -0.265 OA
ATOM      4  H   UNL d   1       7.399  -0.273  -1.519  0.00  0.00     0.190 HD
ENDROOT
BRANCH   1   5
ATOM      5  N   UNL d   1       5.502  -0.516  -2.338  0.00  0.00    -0.264 N 
ATOM      6  C   UNL d   1       4.909  -0.245  -1.118  0.00  0.00     0.259 C 
ATOM      7  O   UNL d   1       5.599  -0.025  -0.123  0.00  0.00    -0.267 OA
ATOM      8  H   UNL d   1       5.010  -0.714  -3.206  0.00  0.00     0.190 HD
BRANCH   6   9
ATOM      9  C   UNL d   1       3.399  -0.239  -1.086  0.00  0.00     0.077 C 
ATOM     10  C   UNL d   1       2.670   0.015   0.031  0.00  0.00    -0.082 C 
ATOM     11  C   UNL d   1       1.155   0.015   0.032  0.00  0.00     0.043 C 
ATOM     12  C   UNL d   1       3.310   0.318   1.362  0.00  0.00     0.043 C 
ENDBRANCH   6   9
ENDBRANCH   1   5
BRANCH   2  13
ATOM     13  C   UNL d   1       9.088  -0.793  -3.482  0.00  0.00     0.080 A 
ATOM     14  S   UNL d   1      10.028  -0.077  -4.737  0.00  0.00    -0.096 SA
ATOM     15  C   UNL d   1      11.510  -0.523  -4.005  0.00  0.00     0.051 A 
ATOM     16  C   UNL d   1      11.306  -1.228  -2.844  0.00  0.00     0.015 A 
ATOM     17  C   UNL d   1       9.912  -1.391  -2.531  0.00  0.00    -0.039 A 
ATOM     18  C   UNL d   1       9.436  -2.172  -1.357  0.00  0.00     0.050 C 
ENDBRANCH   2  13
TORSDOF 3
