REMARK  14 active torsions:
REMARK  status: ('A' for Active; 'I' for Inactive)
REMARK    1  A    between atoms: C_2  and  C_14 
REMARK    2  A    between atoms: C_2  and  N_3 
REMARK       I    between atoms: N_3  and  C_4 
REMARK    3  A    between atoms: C_4  and  O_6 
REMARK    4  A    between atoms: O_6  and  C_7 
REMARK    5  A    between atoms: C_7  and  C_8 
REMARK       I    between atoms: C_14  and  N_16 
REMARK    6  A    between atoms: C_17  and  N_16 
REMARK    7  A    between atoms: C_17  and  C_27 
REMARK    8  A    between atoms: C_17  and  C_18 
REMARK    9  A    between atoms: C_18  and  S_19 
REMARK   10  A    between atoms: S_19  and  C_20 
REMARK   11  A    between atoms: C_20  and  C_21 
REMARK   12  A    between atoms: C_27  and  O_29 
REMARK   13  A    between atoms: O_29  and  C_30 
REMARK   14  A    between atoms: C_30  and  C_31 
ROOT
ATOM      1  C   UNL d   1       5.075   1.040   3.090  0.00  0.00     0.193 C 
ENDROOT
BRANCH   1   2
ATOM      2  C   UNL d   1       6.596   0.934   3.099  0.00  0.00     0.282 C 
ATOM      3  O   UNL d   1       7.260   0.444   2.192  0.00  0.00    -0.263 OA
BRANCH   2   4
ATOM      4  O   UNL d   1       7.135   1.411   4.241  0.00  0.00    -0.315 OA
BRANCH   4   5
ATOM      5  C   UNL d   1       8.565   1.359   4.182  0.00  0.00     0.217 C 
BRANCH   5   6
ATOM      6  C   UNL d   1       9.043   1.814   5.523  0.00  0.00    -0.034 A 
ATOM      7  C   UNL d   1       9.367   0.883   6.515  0.00  0.00     0.009 A 
ATOM      8  C   UNL d   1       9.570   1.312   7.824  0.00  0.00     0.001 A 
ATOM      9  C   UNL d   1       9.540   2.674   8.124  0.00  0.00     0.000 A 
ATOM     10  C   UNL d   1       9.274   3.608   7.125  0.00  0.00     0.001 A 
ATOM     11  C   UNL d   1       9.018   3.180   5.828  0.00  0.00     0.009 A 
ENDBRANCH   5   6
ENDBRANCH   4   5
ENDBRANCH   2   4
ENDBRANCH   1   2
BRANCH   1  12
ATOM     12  C   UNL d   1       4.626   0.981   1.649  0.00  0.00     0.109 C 
BRANCH  12  13
ATOM     13  S   UNL d   1       5.302   2.020   0.384  0.00  0.00    -0.162 SA
BRANCH  13  14
ATOM     14  C   UNL d   1       4.790   1.054  -1.155  0.00  0.00     0.112 C 
BRANCH  14  15
ATOM     15  C   UNL d   1       5.471   1.709  -2.335  0.00  0.00    -0.049 A 
ATOM     16  C   UNL d   1       5.554   3.113  -2.375  0.00  0.00     0.008 A 
ATOM     17  C   UNL d   1       6.135   3.779  -3.436  0.00  0.00     0.001 A 
ATOM     18  C   UNL d   1       6.681   3.046  -4.476  0.00  0.00     0.000 A 
ATOM     19  C   UNL d   1       6.610   1.650  -4.466  0.00  0.00     0.001 A 
ATOM     20  C   UNL d   1       5.999   0.976  -3.403  0.00  0.00     0.008 A 
ENDBRANCH  14  15
ENDBRANCH  13  14
ENDBRANCH  12  13
ENDBRANCH   1  12
BRANCH   1  21
ATOM     21  N   UNL d   1       4.434  -0.030   3.913  0.00  0.00    -0.345 N 
ATOM     22  C   UNL d   1       4.258  -1.383   3.689  0.00  0.00     0.240 C 
ATOM     23  O   UNL d   1       3.861  -2.067   4.638  0.00  0.00    -0.271 OA
ATOM     24  H   UNL d   1       4.215   0.234   4.872  0.00  0.00     0.163 HD
BRANCH  22  25
ATOM     25  C   UNL d   1       4.535  -2.039   2.290  0.00  0.00     0.174 C 
ATOM     26  C   UNL d   1       3.486  -1.631   1.232  0.00  0.00     0.042 C 
BRANCH  25  27
ATOM     27  N   UNL d   1       4.548  -3.512   2.272  0.00  0.00    -0.324 N 
ATOM     28  C   UNL d   1       4.748  -4.174   1.068  0.00  0.00     0.361 C 
ATOM     29  O   UNL d   1       5.125  -3.641   0.047  0.00  0.00    -0.238 OA
ATOM     30  H   UNL d   1       4.229  -4.018   3.087  0.00  0.00     0.165 HD
BRANCH  28  31
ATOM     31  O   UNL d   1       4.411  -5.490   1.141  0.00  0.00    -0.299 OA
BRANCH  31  32
ATOM     32  C   UNL d   1       4.537  -6.150  -0.140  0.00  0.00     0.219 C 
BRANCH  32  33
ATOM     33  C   UNL d   1       4.357  -7.633   0.062  0.00  0.00    -0.034 A 
ATOM     34  C   UNL d   1       3.251  -8.340  -0.429  0.00  0.00     0.009 A 
ATOM     35  C   UNL d   1       3.088  -9.693  -0.110  0.00  0.00     0.001 A 
ATOM     36  C   UNL d   1       4.068 -10.364   0.621  0.00  0.00     0.000 A 
ATOM     37  C   UNL d   1       5.191  -9.677   1.073  0.00  0.00     0.001 A 
ATOM     38  C   UNL d   1       5.329  -8.319   0.802  0.00  0.00     0.009 A 
ENDBRANCH  32  33
ENDBRANCH  31  32
ENDBRANCH  28  31
ENDBRANCH  25  27
ENDBRANCH  22  25
ENDBRANCH   1  21
TORSDOF 14
