@<TRIPOS>MOLECULE
*****
 50 53 0 0 0
SMALL
GASTEIGER

@<TRIPOS>ATOM
      1 C           0.9211    0.7618   -0.5816 C.3     1  UNL1        0.0789
      2 O           2.3164    0.5684   -0.4153 O.3     1  UNL1       -0.4933
      3 C           2.9420    0.9790    0.7296 C.ar    1  UNL1        0.1412
      4 C           4.2096    1.5458    0.4553 C.ar    1  UNL1       -0.0181
      5 C           5.0185    2.0733    1.4588 C.ar    1  UNL1       -0.0582
      6 C           4.5247    2.1144    2.7532 C.ar    1  UNL1       -0.0598
      7 C           3.2772    1.5192    3.0503 C.ar    1  UNL1       -0.0369
      8 C           2.4959    0.8634    2.0593 C.ar    1  UNL1        0.0749
      9 N           1.2975    0.1675    2.4803 N.am    1  UNL1       -0.2929
     10 C           0.6671   -0.9467    1.8709 C.2     1  UNL1        0.1511
     11 S           1.4429   -2.1845    1.0319 S.2     1  UNL1       -0.0171
     12 N          -0.7482   -0.8419    1.9027 N.am    1  UNL1       -0.2453
     13 N          -1.5668   -1.4356    0.8639 N.am    1  UNL1       -0.2311
     14 C          -2.8912   -1.8155    1.1528 C.2     1  UNL1        0.2601
     15 O          -3.4085   -1.6721    2.2179 O.2     1  UNL1       -0.2687
     16 C          -3.6328   -2.5233    0.0385 C.ar    1  UNL1        0.0389
     17 C          -4.9614   -2.2588   -0.3016 C.ar    1  UNL1       -0.0488
     18 C          -5.5166   -2.9770   -1.4112 C.ar    1  UNL1       -0.0482
     19 C          -4.8061   -4.0860   -1.9688 C.ar    1  UNL1        0.0498
     20 C          -3.8504   -4.6155   -1.1709 C.ar    1  UNL1        0.0505
     21 C          -3.0582   -3.6742   -0.5083 C.ar    1  UNL1       -0.0367
     22 C          -3.3767   -5.7478   -1.9623 C.2     1  UNL1        0.2582
     23 O          -3.9326   -6.8349   -2.0370 O.2     1  UNL1       -0.2692
     24 N          -2.8108   -5.1845   -3.0175 N.am    1  UNL1       -0.2024
     25 C          -1.7077   -6.0305   -3.6042 C.ar    1  UNL1        0.0446
     26 C          -0.7745   -6.8647   -2.8191 C.ar    1  UNL1       -0.0384
     27 C           0.1216   -7.8427   -3.3966 C.ar    1  UNL1       -0.0416
     28 C           0.0846   -8.0473   -4.7619 C.ar    1  UNL1        0.0411
     29 CL          0.9481   -9.3456   -5.5118 Cl      1  UNL1       -0.0835
     30 C          -0.7197   -7.2034   -5.5292 C.ar    1  UNL1       -0.0416
     31 C          -1.5607   -6.1913   -4.9684 C.ar    1  UNL1       -0.0384
     32 C          -4.0138   -4.4663   -3.3770 C.2     1  UNL1        0.2582
     33 O          -4.6175   -4.3985   -4.4372 O.2     1  UNL1       -0.2692
     34 H           0.5963    0.0449   -1.3440 H       1  UNL1        0.0660
     35 H           0.6786    1.7754   -0.8938 H       1  UNL1        0.0660
     36 H           0.3059    0.5805    0.2842 H       1  UNL1        0.0660
     37 H           4.5642    1.5847   -0.5734 H       1  UNL1        0.0655
     38 H           6.0101    2.4588    1.2232 H       1  UNL1        0.0619
     39 H           5.1238    2.5924    3.5293 H       1  UNL1        0.0618
     40 H           2.9694    1.5435    4.0936 H       1  UNL1        0.0637
     41 H           0.9361    0.4556    3.3813 H       1  UNL1        0.1540
     42 H          -1.2430   -0.5925    2.7562 H       1  UNL1        0.1718
     43 H          -1.1982   -1.4007   -0.0791 H       1  UNL1        0.1731
     44 H          -5.5496   -1.5345    0.2742 H       1  UNL1        0.0625
     45 H          -6.6187   -2.9214   -1.4746 H       1  UNL1        0.0625
     46 H          -1.9839   -3.8053   -0.4875 H       1  UNL1        0.0633
     47 H          -0.7236   -6.8518   -1.7247 H       1  UNL1        0.0637
     48 H           0.7983   -8.4706   -2.8002 H       1  UNL1        0.0633
     49 H          -0.7408   -7.3588   -6.6038 H       1  UNL1        0.0633
     50 H          -2.1675   -5.5951   -5.6319 H       1  UNL1        0.0637
@<TRIPOS>BOND
     1     1     2    1
     2     2     3    1
     3     3     4   ar
     4     4     5   ar
     5     5     6   ar
     6     6     7   ar
     7     7     8   ar
     8     3     8   ar
     9     8     9    1
    10     9    10    1
    11    10    11    2
    12    10    12    1
    13    12    13    1
    14    13    14   am
    15    14    15    2
    16    14    16    1
    17    16    17   ar
    18    17    18   ar
    19    18    19   ar
    20    19    20   ar
    21    20    21   ar
    22    16    21   ar
    23    20    22    1
    24    22    23    2
    25    22    24   am
    26    24    25    1
    27    25    26   ar
    28    26    27   ar
    29    27    28   ar
    30    28    29    1
    31    28    30   ar
    32    30    31   ar
    33    25    31   ar
    34    24    32   am
    35    19    32    1
    36    32    33    2
    37     1    34    1
    38     1    35    1
    39     1    36    1
    40     4    37    1
    41     5    38    1
    42     6    39    1
    43     7    40    1
    44     9    41    1
    45    12    42    1
    46    13    43    1
    47    17    44    1
    48    18    45    1
    49    21    46    1
    50    26    47    1
    51    27    48    1
    52    30    49    1
    53    31    50    1
