@<TRIPOS>MOLECULE
*****
 44 44 0 0 0
SMALL
GASTEIGER

@<TRIPOS>ATOM
      1 C           0.9925    0.0367    0.1277 C.3     1  UNL1       -0.0495
      2 C           2.5132    0.0739    0.1650 C.3     1  UNL1        0.0102
      3 N           3.0821    1.0316    1.1254 N.am    1  UNL1       -0.2993
      4 C           4.4624    1.1328    1.2214 C.2     1  UNL1        0.3059
      5 O           5.1702    0.4192    0.5110 O.2     1  UNL1       -0.2524
      6 N           4.9499    2.0510    2.1381 N.am    1  UNL1       -0.2389
      7 C           6.3241    2.2599    2.3269 C.2     1  UNL1        0.2375
      8 O           7.2049    1.6252    1.7390 O.2     1  UNL1       -0.2736
      9 C           6.7562    3.3297    3.3733 C.3     1  UNL1        0.0862
     10 N           8.2204    3.5593    3.3207 N.pl3   1  UNL1       -0.3354
     11 C           8.9620    4.1826    4.3165 C.ar    1  UNL1        0.0275
     12 C          10.2008    4.7655    4.0024 C.ar    1  UNL1       -0.0401
     13 C          11.0013    5.3802    4.9872 C.ar    1  UNL1       -0.0479
     14 C          10.5573    5.4799    6.3134 C.ar    1  UNL1        0.0368
     15 C          11.3919    6.2346    7.3073 C.2     1  UNL1        0.2443
     16 O          12.4790    6.6916    6.9527 O.2     1  UNL1       -0.2702
     17 N          10.8870    6.4262    8.5854 N.am    1  UNL1       -0.3090
     18 C          11.5938    7.2114    9.5977 C.3     1  UNL1        0.0178
     19 C          11.7525    8.6692    9.1650 C.3     1  UNL1       -0.0469
     20 C          10.8549    7.1738   10.9390 C.3     1  UNL1       -0.0469
     21 C           9.3271    4.9028    6.6318 C.ar    1  UNL1       -0.0479
     22 C           8.5465    4.2732    5.6451 C.ar    1  UNL1       -0.0401
     23 H           0.6436   -0.6993   -0.6091 H       1  UNL1        0.0245
     24 H           0.5777    1.0088   -0.1545 H       1  UNL1        0.0245
     25 H           0.5775   -0.2462    1.0995 H       1  UNL1        0.0245
     26 H           2.8920    0.3220   -0.8346 H       1  UNL1        0.0460
     27 H           2.8918   -0.9263    0.4112 H       1  UNL1        0.0460
     28 H           2.4520    1.5915    1.6782 H       1  UNL1        0.1502
     29 H           4.2869    2.5938    2.6676 H       1  UNL1        0.1591
     30 H           6.4315    2.9848    4.3589 H       1  UNL1        0.0557
     31 H           6.2759    4.2826    3.1350 H       1  UNL1        0.0557
     32 H           8.7237    2.8122    2.8274 H       1  UNL1        0.1466
     33 H          10.5464    4.7862    2.9690 H       1  UNL1        0.0636
     34 H          11.9720    5.7893    4.7049 H       1  UNL1        0.0626
     35 H          10.0026    6.0251    8.8529 H       1  UNL1        0.1493
     36 H          12.5850    6.7600    9.7249 H       1  UNL1        0.0493
     37 H          10.7745    9.1394    9.0149 H       1  UNL1        0.0247
     38 H          12.3052    8.7584    8.2263 H       1  UNL1        0.0247
     39 H          12.3002    9.2419    9.9202 H       1  UNL1        0.0247
     40 H           9.8536    7.6124   10.8521 H       1  UNL1        0.0247
     41 H          11.4017    7.7421   11.7006 H       1  UNL1        0.0247
     42 H          10.7364    6.1486   11.3040 H       1  UNL1        0.0247
     43 H           8.9379    4.9093    7.6416 H       1  UNL1        0.0626
     44 H           7.6090    3.8315    5.9603 H       1  UNL1        0.0636
@<TRIPOS>BOND
     1     1     2    1
     2     2     3    1
     3     3     4   am
     4     4     5    2
     5     4     6   am
     6     6     7   am
     7     7     8    2
     8     7     9    1
     9     9    10    1
    10    10    11    1
    11    11    12   ar
    12    12    13   ar
    13    13    14   ar
    14    14    15    1
    15    15    16    2
    16    15    17   am
    17    17    18    1
    18    18    19    1
    19    18    20    1
    20    14    21   ar
    21    21    22   ar
    22    11    22   ar
    23     1    23    1
    24     1    24    1
    25     1    25    1
    26     2    26    1
    27     2    27    1
    28     3    28    1
    29     6    29    1
    30     9    30    1
    31     9    31    1
    32    10    32    1
    33    12    33    1
    34    13    34    1
    35    17    35    1
    36    18    36    1
    37    19    37    1
    38    19    38    1
    39    19    39    1
    40    20    40    1
    41    20    41    1
    42    20    42    1
    43    21    43    1
    44    22    44    1
