REMARK  10 active torsions:
REMARK  status: ('A' for Active; 'I' for Inactive)
REMARK    1  A    between atoms: O_2  and  C_3 
REMARK    2  A    between atoms: C_5  and  C_6 
REMARK    3  A    between atoms: C_6  and  O_8 
REMARK    4  A    between atoms: O_8  and  C_9 
REMARK    5  A    between atoms: C_9  and  C_11 
REMARK    6  A    between atoms: C_11  and  C_13 
REMARK    7  A    between atoms: C_24  and  O_25 
REMARK    8  A    between atoms: O_25  and  C_26 
REMARK    9  A    between atoms: C_26  and  C_27 
REMARK       I    between atoms: C_27  and  N_29 
REMARK   10  A    between atoms: N_29  and  C_30 
ROOT
ATOM      1  C   UNL d   1       3.075  -0.976  -0.776  0.00  0.00     0.102 A 
ATOM      2  C   UNL d   1       4.196  -1.677  -0.271  0.00  0.00     0.057 A 
ATOM      3  C   UNL d   1       5.035  -2.466  -1.091  0.00  0.00     0.042 A 
ATOM      4  C   UNL d   1       4.675  -2.671  -2.419  0.00  0.00     0.020 A 
ATOM      5  C   UNL d   1       3.572  -1.981  -2.935  0.00  0.00     0.040 A 
ATOM      6  C   UNL d   1       2.788  -1.103  -2.150  0.00  0.00     0.102 A 
ENDROOT
BRANCH   3   7
ATOM      7  C   UNL d   1       6.338  -2.932  -0.534  0.00  0.00     0.294 C 
ATOM      8  O   UNL d   1       6.707  -2.633   0.607  0.00  0.00    -0.259 OA
BRANCH   7   9
ATOM      9  O   UNL d   1       7.090  -3.653  -1.396  0.00  0.00    -0.304 OA
BRANCH   9  10
ATOM     10  C   UNL d   1       8.386  -4.130  -0.912  0.00  0.00     0.202 C 
ATOM     11  C   UNL d   1       8.167  -5.142   0.197  0.00  0.00     0.048 C 
BRANCH  10  12
ATOM     12  C   UNL d   1       9.061  -4.845  -2.077  0.00  0.00     0.187 C 
ATOM     13  O   UNL d   1       8.436  -4.939  -3.138  0.00  0.00    -0.290 OA
BRANCH  12  14
ATOM     14  C   UNL d   1      10.435  -5.458  -1.989  0.00  0.00     0.020 A 
ATOM     15  C   UNL d   1      10.941  -6.061  -3.075  0.00  0.00     0.002 A 
ATOM     16  C   UNL d   1      10.461  -6.231  -4.404  0.00  0.00     0.014 A 
ATOM     17  C   UNL d   1      12.233  -6.653  -2.677  0.00  0.00     0.039 A 
ATOM     18  C   UNL d   1      11.127  -7.006  -5.260  0.00  0.00     0.001 A 
ATOM     19  C   UNL d   1      12.408  -7.577  -4.911  0.00  0.00     0.002 A 
ATOM     20  C   UNL d   1      12.974  -7.444  -3.694  0.00  0.00     0.030 A 
ATOM     21  N   UNL d   1      12.520  -6.374  -1.463  0.00  0.00    -0.385 N 
ATOM     22  C   UNL d   1      11.411  -5.565  -0.847  0.00  0.00     0.163 A 
ATOM     23  H   UNL d   1      13.389  -6.687  -1.024  0.00  0.00     0.160 HD
ENDBRANCH  12  14
ENDBRANCH  10  12
ENDBRANCH   9  10
ENDBRANCH   7   9
ENDBRANCH   3   7
BRANCH   1  24
ATOM     24  O   UNL d   1       2.578  -0.055   0.122  0.00  0.00    -0.353 OA
ATOM     25  C   UNL d   1       1.200  -0.065   0.492  0.00  0.00     0.210 C 
ENDBRANCH   1  24
BRANCH   6  26
ATOM     26  O   UNL d   1       1.882  -0.443  -2.947  0.00  0.00    -0.339 OA
BRANCH  26  27
ATOM     27  C   UNL d   1       0.921   0.335  -2.287  0.00  0.00     0.278 C 
BRANCH  27  28
ATOM     28  C   UNL d   1      -0.206   0.998  -3.058  0.00  0.00     0.246 C 
ATOM     29  O   UNL d   1      -0.374   0.747  -4.248  0.00  0.00    -0.271 OA
ATOM     30  N   UNL d   1      -1.019   1.861  -2.300  0.00  0.00    -0.325 N 
ATOM     31  H   UNL d   1      -0.727   2.213  -1.393  0.00  0.00     0.169 HD
BRANCH  30  32
ATOM     32  C   UNL d   1      -2.158   2.454  -2.890  0.00  0.00     0.035 A 
ATOM     33  C   UNL d   1      -2.485   3.797  -2.677  0.00  0.00     0.032 A 
ATOM     34  C   UNL d   1      -3.598   4.345  -3.333  0.00  0.00     0.044 A 
ATOM     35  C   UNL d   1      -4.350   3.558  -4.202  0.00  0.00     0.116 A 
ATOM     36  F   UNL d   1      -5.366   4.101  -4.885  0.00  0.00    -0.206 F 
ATOM     37  C   UNL d   1      -4.054   2.218  -4.386  0.00  0.00     0.044 A 
ATOM     38  C   UNL d   1      -2.967   1.669  -3.720  0.00  0.00     0.032 A 
ENDBRANCH  30  32
ENDBRANCH  27  28
ENDBRANCH  26  27
ENDBRANCH   6  26
TORSDOF 10
