REMARK  6 active torsions:
REMARK  status: ('A' for Active; 'I' for Inactive)
REMARK       I    between atoms: N_13  and  C_14 
REMARK    1  A    between atoms: C_14  and  C_16 
REMARK    2  A    between atoms: C_16  and  S_17 
REMARK    3  A    between atoms: S_17  and  C_18 
REMARK    4  A    between atoms: C_21  and  N_22 
REMARK    5  A    between atoms: N_22  and  C_23 
REMARK    6  A    between atoms: C_23  and  C_24 
ROOT
ATOM      1  C   UNL d   1       2.966   0.439  -1.435  0.00  0.00     0.033 C 
ATOM      2  C   UNL d   1       2.619   0.106   0.040  0.00  0.00     0.097 C 
ATOM      3  C   UNL d   1       3.020  -1.339   0.372  0.00  0.00     0.122 C 
ATOM      4  C   UNL d   1       4.488  -1.594   0.146  0.00  0.00     0.203 C 
ATOM      5  O   UNL d   1       4.883  -2.321  -0.782  0.00  0.00    -0.279 OA
ATOM      6  N   UNL d   1       5.378  -0.965   0.977  0.00  0.00    -0.227 NA
ATOM      7  C   UNL d   1       5.606   0.407   0.724  0.00  0.00     0.042 A 
ATOM      8  C   UNL d   1       6.923   0.680   0.324  0.00  0.00     0.026 A 
ATOM      9  C   UNL d   1       7.272   1.937  -0.143  0.00  0.00     0.002 A 
ATOM     10  C   UNL d   1       6.304   2.937  -0.173  0.00  0.00     0.002 A 
ATOM     11  C   UNL d   1       4.989   2.690   0.285  0.00  0.00     0.031 A 
ATOM     12  C   UNL d   1       4.607   1.413   0.746  0.00  0.00     0.059 A 
ATOM     13  N   UNL d   1       3.195   1.102   0.996  0.00  0.00    -0.311 N 
ATOM     14  C   UNL d   1       2.534   1.684   2.119  0.00  0.00     0.234 C 
ATOM     15  O   UNL d   1       3.144   2.483   2.841  0.00  0.00    -0.272 OA
ATOM     16  H   UNL d   1       5.253  -1.152   1.965  0.00  0.00     0.136 HD
ENDROOT
BRANCH  14  17
ATOM     17  C   UNL d   1       1.037   1.284   2.477  0.00  0.00     0.184 C 
BRANCH  17  18
ATOM     18  S   UNL d   1       0.441   2.173   4.001  0.00  0.00    -0.092 SA
BRANCH  18  19
ATOM     19  C   UNL d   1      -1.242   1.698   4.270  0.00  0.00     0.160 A 
ATOM     20  N   UNL d   1      -1.646   0.452   4.382  0.00  0.00    -0.133 NA
ATOM     21  N   UNL d   1      -3.002   0.367   4.698  0.00  0.00    -0.123 NA
ATOM     22  C   UNL d   1      -3.595   1.541   4.831  0.00  0.00     0.190 A 
ATOM     23  S   UNL d   1      -2.490   2.850   4.600  0.00  0.00    -0.022 SA
BRANCH  22  24
ATOM     24  N   UNL d   1      -4.921   1.658   5.112  0.00  0.00    -0.363 N 
ATOM     25  H   UNL d   1      -5.441   0.792   5.114  0.00  0.00     0.162 HD
BRANCH  24  26
ATOM     26  C   UNL d   1      -5.665   2.901   5.221  0.00  0.00     0.160 C 
BRANCH  26  27
ATOM     27  C   UNL d   1      -7.165   2.726   5.462  0.00  0.00    -0.041 C 
ATOM     28  C   UNL d   1      -7.793   1.479   5.601  0.00  0.00     0.009 C 
ATOM     29  C   UNL d   1      -9.184   1.365   5.627  0.00  0.00     0.001 C 
ATOM     30  C   UNL d   1      -9.978   2.505   5.658  0.00  0.00     0.000 C 
ATOM     31  C   UNL d   1      -9.375   3.759   5.673  0.00  0.00     0.001 C 
ATOM     32  C   UNL d   1      -7.986   3.871   5.524  0.00  0.00     0.009 C 
ENDBRANCH  26  27
ENDBRANCH  24  26
ENDBRANCH  22  24
ENDBRANCH  18  19
ENDBRANCH  17  18
ENDBRANCH  14  17
TORSDOF 6
