@<TRIPOS>MOLECULE
*****
 50 53 0 0 0
SMALL
GASTEIGER

@<TRIPOS>ATOM
      1 C           2.8306   -0.1638    1.4318 C.3     1  UNL1       -0.0466
      2 C           2.5228   -0.1599   -0.0620 C.3     1  UNL1        0.0214
      3 C           3.0928    1.0651   -0.8010 C.3     1  UNL1       -0.0038
      4 C           4.6276    1.1656   -0.6085 C.3     1  UNL1        0.1508
      5 C           5.0400    1.9333    0.6591 C.3     1  UNL1        0.4118
      6 F           4.7487    1.3719    1.8455 F       1  UNL1       -0.1684
      7 F           6.3612    2.2084    0.6962 F       1  UNL1       -0.1684
      8 F           4.4004    3.1393    0.6727 F       1  UNL1       -0.1684
      9 N           5.2164   -0.1689   -0.7553 N.ar    1  UNL1       -0.2383
     10 N           6.5242   -0.3572   -0.9967 N.ar    1  UNL1       -0.1767
     11 C           6.6340   -1.6914   -1.1028 C.ar    1  UNL1        0.0635
     12 C           5.3997   -2.3912   -0.9899 C.ar    1  UNL1        0.0971
     13 C           5.0740   -3.8341   -1.0196 C.2     1  UNL1        0.2650
     14 O           3.9306   -4.2538   -0.8812 O.2     1  UNL1       -0.2685
     15 N           6.1404   -4.7163   -1.1964 N.am    1  UNL1       -0.2310
     16 N           5.9502   -6.1586   -1.2222 N.am    1  UNL1       -0.2453
     17 C           7.0590   -6.9892   -1.4609 C.2     1  UNL1        0.1510
     18 S           8.5704   -6.2849   -1.7550 S.2     1  UNL1       -0.0171
     19 N           6.7724   -8.3725   -1.4606 N.am    1  UNL1       -0.2953
     20 C           7.7539   -9.4211   -1.6548 C.ar    1  UNL1        0.0404
     21 C           8.9536   -9.3559   -0.9313 C.ar    1  UNL1       -0.0399
     22 C          10.0008  -10.2450   -1.1579 C.ar    1  UNL1       -0.0594
     23 C           9.8507  -11.2697   -2.0800 C.ar    1  UNL1       -0.0539
     24 C           8.6360  -11.4449   -2.7514 C.ar    1  UNL1       -0.0161
     25 C           8.5092  -12.5288   -3.6381 C.ar    1  UNL1       -0.0540
     26 C           7.3274  -12.7402   -4.3388 C.ar    1  UNL1       -0.0612
     27 C           6.2656  -11.8608   -4.1661 C.ar    1  UNL1       -0.0611
     28 C           6.3795  -10.7679   -3.2924 C.ar    1  UNL1       -0.0523
     29 C           7.5561  -10.5268   -2.5452 C.ar    1  UNL1        0.0033
     30 C           4.4948   -1.3521   -0.8140 C.ar    1  UNL1        0.1301
     31 N           3.1418   -1.3259   -0.6805 N.pl3   1  UNL1       -0.3260
     32 H           2.5952    0.8119    1.8706 H       1  UNL1        0.0247
     33 H           3.8837   -0.4112    1.6026 H       1  UNL1        0.0247
     34 H           2.2978   -0.9346    1.9877 H       1  UNL1        0.0247
     35 H           1.4360   -0.1953   -0.1976 H       1  UNL1        0.0496
     36 H           2.5750    1.9899   -0.5246 H       1  UNL1        0.0306
     37 H           2.8955    0.9255   -1.8782 H       1  UNL1        0.0306
     38 H           5.0150    1.7609   -1.4459 H       1  UNL1        0.0636
     39 H           7.6257   -2.0966   -1.2579 H       1  UNL1        0.0856
     40 H           7.1013   -4.4105   -1.3174 H       1  UNL1        0.1731
     41 H           4.9899   -6.4782   -1.1093 H       1  UNL1        0.1718
     42 H           5.8076   -8.6550   -1.5795 H       1  UNL1        0.1539
     43 H           9.0942   -8.5951   -0.1694 H       1  UNL1        0.0636
     44 H          10.9361  -10.1251   -0.6181 H       1  UNL1        0.0618
     45 H          10.6935  -11.9357   -2.2604 H       1  UNL1        0.0624
     46 H           9.3351  -13.2237   -3.7900 H       1  UNL1        0.0624
     47 H           7.2412  -13.5843   -5.0193 H       1  UNL1        0.0618
     48 H           5.3434  -12.0211   -4.7190 H       1  UNL1        0.0618
     49 H           5.5295  -10.0987   -3.2119 H       1  UNL1        0.0624
     50 H           2.6203   -2.2058   -0.6424 H       1  UNL1        0.1477
@<TRIPOS>BOND
     1     2     3    1
     2     3     4    1
     3     4     5    1
     4     5     6    1
     5     5     7    1
     6     5     8    1
     7     4     9    1
     8     9    10   ar
     9    10    11   ar
    10    11    12   ar
    11    12    13    1
    12    13    14    2
    13    13    15   am
    14    15    16    1
    15    16    17    1
    16    17    18    2
    17    17    19    1
    18    19    20    1
    19    20    21   ar
    20    21    22   ar
    21    22    23   ar
    22    23    24   ar
    23    24    25   ar
    24    25    26   ar
    25    26    27   ar
    26    27    28   ar
    27    28    29   ar
    28    20    29   ar
    29    24    29   ar
    30    12    30   ar
    31     9    30   ar
    32    30    31    1
    33     2    31    1
    34     2     1    1
    35     1    32    1
    36     1    33    1
    37     1    34    1
    38     2    35    1
    39     3    36    1
    40     3    37    1
    41     4    38    1
    42    11    39    1
    43    15    40    1
    44    16    41    1
    45    19    42    1
    46    21    43    1
    47    22    44    1
    48    23    45    1
    49    25    46    1
    50    26    47    1
    51    27    48    1
    52    28    49    1
    53    31    50    1
