@<TRIPOS>MOLECULE
*****
 53 56 0 0 0
SMALL
GASTEIGER

@<TRIPOS>ATOM
      1 C           0.9838    0.0988   -0.0639 C.3     1  UNL1        0.0141
      2 C           2.4874    0.0130   -0.0820 C.2     1  UNL1        0.2351
      3 O           3.0580   -0.9126    0.5062 O.2     1  UNL1       -0.2740
      4 N           3.1542    0.9380   -0.8525 N.am    1  UNL1       -0.1460
      5 N           4.3407    0.6037   -1.4474 N.2     1  UNL1       -0.1339
      6 C           4.7865    1.7110   -1.9316 C.2     1  UNL1        0.2579
      7 C           5.9631    1.8332   -2.7275 C.ar    1  UNL1        0.1219
      8 C           6.2646    1.1798   -3.9059 C.ar    1  UNL1       -0.0040
      9 C           7.6053    1.5159   -4.2212 C.ar    1  UNL1        0.0932
     10 C           8.3401    1.0901   -5.4022 C.ar    1  UNL1        0.0021
     11 C           9.5450    0.3789   -5.3319 C.ar    1  UNL1       -0.0523
     12 C          10.2214    0.0004   -6.5036 C.ar    1  UNL1       -0.0579
     13 C           9.6442    0.2322   -7.7576 C.ar    1  UNL1       -0.0471
     14 C          10.3415   -0.2502   -9.0170 C.3     1  UNL1       -0.0253
     15 C           9.6273    0.1335  -10.3309 C.3     1  UNL1       -0.0427
     16 C           9.6172    1.6551  -10.5529 C.3     1  UNL1       -0.0624
     17 C          10.2922   -0.5178  -11.5401 C.3     1  UNL1       -0.0624
     18 C           8.4017    0.8833   -7.7946 C.ar    1  UNL1       -0.0579
     19 C           7.7864    1.3598   -6.6477 C.ar    1  UNL1       -0.0523
     20 N           8.1120    2.3455   -3.3005 N.ar    1  UNL1       -0.1732
     21 N           7.1024    2.5280   -2.4236 N.ar    1  UNL1       -0.2718
     22 O           4.0562    2.8429   -1.7185 O.2     1  UNL1       -0.4460
     23 C           2.9130    2.3677   -0.9705 C.3     1  UNL1        0.2170
     24 C           2.8733    3.0841    0.3684 C.ar    1  UNL1        0.0141
     25 C           1.7601    3.8457    0.7654 C.ar    1  UNL1       -0.0533
     26 C           1.7985    4.5977    1.9459 C.ar    1  UNL1       -0.0603
     27 C           2.9168    4.5435    2.7780 C.ar    1  UNL1       -0.0477
     28 C           4.0037    3.7547    2.4158 C.ar    1  UNL1        0.0183
     29 BR          5.5505    3.7146    3.5000 Br      1  UNL1       -0.0503
     30 C           3.9841    3.0271    1.2281 C.ar    1  UNL1       -0.0394
     31 H           0.5950   -0.7038    0.5745 H       1  UNL1        0.0323
     32 H           0.6008   -0.0728   -1.0749 H       1  UNL1        0.0323
     33 H           0.6208    1.0498    0.3235 H       1  UNL1        0.0323
     34 H           5.6130    0.5211   -4.4632 H       1  UNL1        0.0662
     35 H           9.9544    0.0963   -4.3657 H       1  UNL1        0.0624
     36 H          11.1887   -0.4937   -6.4280 H       1  UNL1        0.0620
     37 H          10.4109   -1.3457   -8.9551 H       1  UNL1        0.0316
     38 H          11.3717    0.1313   -9.0402 H       1  UNL1        0.0316
     39 H           8.5979   -0.2498  -10.2922 H       1  UNL1        0.0299
     40 H          10.6347    2.0320  -10.6814 H       1  UNL1        0.0232
     41 H           9.1932    2.2308   -9.7278 H       1  UNL1        0.0232
     42 H           9.0211    1.9034  -11.4352 H       1  UNL1        0.0232
     43 H          11.3162   -0.1526  -11.6641 H       1  UNL1        0.0232
     44 H           9.7312   -0.2727  -12.4492 H       1  UNL1        0.0232
     45 H          10.3194   -1.6072  -11.4456 H       1  UNL1        0.0232
     46 H           7.8694    1.0626   -8.7221 H       1  UNL1        0.0620
     47 H           6.8653    1.9270   -6.7488 H       1  UNL1        0.0624
     48 H           7.2938    3.1004   -1.6085 H       1  UNL1        0.1891
     49 H           2.0046    2.5520   -1.5558 H       1  UNL1        0.1026
     50 H           0.8539    3.8746    0.1623 H       1  UNL1        0.0622
     51 H           0.9643    5.2448    2.2111 H       1  UNL1        0.0618
     52 H           2.9332    5.1191    3.7001 H       1  UNL1        0.0629
     53 H           4.8429    2.4152    0.9595 H       1  UNL1        0.0633
@<TRIPOS>BOND
     1     1     2    1
     2     2     3    2
     3     2     4   am
     4     4     5    1
     5     5     6    2
     6     6     7    1
     7     7     8   ar
     8     8     9   ar
     9     9    10    1
    10    10    11   ar
    11    11    12   ar
    12    12    13   ar
    13    13    14    1
    14    14    15    1
    15    15    16    1
    16    15    17    1
    17    13    18   ar
    18    18    19   ar
    19    10    19   ar
    20     9    20   ar
    21    20    21   ar
    22     7    21   ar
    23     6    22    1
    24    22    23    1
    25     4    23    1
    26    23    24    1
    27    24    25   ar
    28    25    26   ar
    29    26    27   ar
    30    27    28   ar
    31    28    29    1
    32    28    30   ar
    33    24    30   ar
    34     1    31    1
    35     1    32    1
    36     1    33    1
    37     8    34    1
    38    11    35    1
    39    12    36    1
    40    14    37    1
    41    14    38    1
    42    15    39    1
    43    16    40    1
    44    16    41    1
    45    16    42    1
    46    17    43    1
    47    17    44    1
    48    17    45    1
    49    18    46    1
    50    19    47    1
    51    21    48    1
    52    23    49    1
    53    25    50    1
    54    26    51    1
    55    27    52    1
    56    30    53    1
