@<TRIPOS>MOLECULE
*****
 38 39 0 0 0
SMALL
GASTEIGER

@<TRIPOS>ATOM
      1 C          -8.1120   -1.1473    7.0588 C.3     1  UNL1       -0.0383
      2 C          -7.6871   -0.4879    5.7898 C.ar    1  UNL1       -0.0322
      3 C          -7.0922   -1.2409    4.7967 C.ar    1  UNL1       -0.0542
      4 C          -6.6906   -0.6243    3.6285 C.ar    1  UNL1       -0.0213
      5 C          -6.8812    0.7353    3.4389 C.ar    1  UNL1        0.1249
      6 N          -6.4552    1.3615    2.2552 N.am    1  UNL1       -0.2689
      7 C          -5.9185    0.7099    1.1557 C.2     1  UNL1        0.2383
      8 O          -5.6896   -0.4996    1.0760 O.2     1  UNL1       -0.2734
      9 C          -5.4421    1.5741   -0.0207 C.3     1  UNL1        0.0972
     10 C          -3.9136    1.4867   -0.0443 C.3     1  UNL1       -0.0381
     11 N          -5.9145    2.9487    0.0186 N.am    1  UNL1       -0.3003
     12 C          -7.2631    3.2085   -0.0921 C.2     1  UNL1        0.2447
     13 O          -8.1217    2.3274   -0.1013 O.2     1  UNL1       -0.2702
     14 C          -7.6683    4.6239   -0.1205 C.ar    1  UNL1        0.0367
     15 C          -8.7637    5.0380    0.6478 C.ar    1  UNL1       -0.0496
     16 C          -9.2568    6.3342    0.5013 C.ar    1  UNL1       -0.0610
     17 C          -8.6164    7.2287   -0.3570 C.ar    1  UNL1       -0.0617
     18 C          -7.5060    6.8202   -1.0981 C.ar    1  UNL1       -0.0610
     19 C          -7.0320    5.5143   -0.9871 C.ar    1  UNL1       -0.0496
     20 N          -7.4597    1.5036    4.3913 N.ar    1  UNL1       -0.2399
     21 C          -7.8486    0.8731    5.5401 C.ar    1  UNL1        0.0326
     22 H          -7.8967   -2.2235    7.0304 H       1  UNL1        0.0278
     23 H          -9.1884   -1.0322    7.2074 H       1  UNL1        0.0278
     24 H          -7.5656   -0.7262    7.9065 H       1  UNL1        0.0278
     25 H          -6.9218   -2.3077    4.8975 H       1  UNL1        0.0622
     26 H          -6.2267   -1.2618    2.8954 H       1  UNL1        0.0652
     27 H          -6.6894    2.3434    2.1875 H       1  UNL1        0.1563
     28 H          -5.8425    1.1042   -0.9302 H       1  UNL1        0.0592
     29 H          -3.4792    1.9552    0.8456 H       1  UNL1        0.0252
     30 H          -3.4963    1.9747   -0.9298 H       1  UNL1        0.0252
     31 H          -3.5744    0.4420   -0.0537 H       1  UNL1        0.0252
     32 H          -5.2394    3.7001   -0.0456 H       1  UNL1        0.1498
     33 H          -9.2429    4.3516    1.3442 H       1  UNL1        0.0625
     34 H         -10.1535    6.6405    1.0352 H       1  UNL1        0.0618
     35 H          -8.9914    8.2444   -0.4577 H       1  UNL1        0.0618
     36 H          -7.0317    7.5102   -1.7905 H       1  UNL1        0.0618
     37 H          -6.2049    5.1870   -1.6089 H       1  UNL1        0.0625
     38 H          -8.3081    1.5151    6.2893 H       1  UNL1        0.0833
@<TRIPOS>BOND
     1     1     2    1
     2     2     3   ar
     3     3     4   ar
     4     4     5   ar
     5     5     6    1
     6     6     7   am
     7     7     8    2
     8     9    11    1
     9    11    12   am
    10    12    13    2
    11    12    14    1
    12    14    15   ar
    13    15    16   ar
    14    16    17   ar
    15    17    18   ar
    16    18    19   ar
    17    14    19   ar
    18     5    20   ar
    19    20    21   ar
    20     2    21   ar
    21     9    10    1
    22     9     7    1
    23     1    22    1
    24     1    23    1
    25     1    24    1
    26     3    25    1
    27     4    26    1
    28     6    27    1
    29     9    28    1
    30    10    29    1
    31    10    30    1
    32    10    31    1
    33    11    32    1
    34    15    33    1
    35    16    34    1
    36    17    35    1
    37    18    36    1
    38    19    37    1
    39    21    38    1
