@<TRIPOS>MOLECULE
*****
 44 44 0 0 0
SMALL
GASTEIGER

@<TRIPOS>ATOM
      1 C           2.4778   -0.0072   -0.0127 C.3     1  UNL1       -0.0397
      2 C           0.9777   -0.0060    0.0022 C.ar    1  UNL1       -0.0502
      3 C           0.2417   -1.1951    0.0038 C.ar    1  UNL1       -0.0554
      4 C          -1.1618   -1.1618   -0.0021 C.ar    1  UNL1       -0.0197
      5 C          -1.8500    0.0574   -0.0101 C.ar    1  UNL1        0.1205
      6 O          -3.2236   -0.0128   -0.0308 O.3     1  UNL1       -0.4920
      7 C          -3.9295    1.2410   -0.0542 C.3     1  UNL1        0.0900
      8 C          -5.4430    0.9905   -0.0882 C.3     1  UNL1       -0.0103
      9 C          -6.2877    2.2852   -0.1059 C.3     1  UNL1        0.0285
     10 C          -7.8004    1.9931   -0.1368 C.2     1  UNL1        0.2292
     11 O          -8.2508    0.8463   -0.1490 O.2     1  UNL1       -0.2743
     12 N          -8.6400    3.0988   -0.1493 N.am    1  UNL1       -0.2332
     13 N         -10.0647    2.9081   -0.1877 N.am    1  UNL1       -0.2182
     14 C         -10.8954    4.0150   -0.1666 C.2     1  UNL1        0.3162
     15 O         -10.4366    5.1575   -0.1041 O.2     1  UNL1       -0.2513
     16 N         -12.2494    3.7414   -0.2550 N.am    1  UNL1       -0.2959
     17 C         -13.2700    4.8093   -0.2776 C.3     1  UNL1        0.0190
     18 C         -13.1122    5.7061   -1.5084 C.3     1  UNL1       -0.0468
     19 C         -14.7097    4.2701   -0.2683 C.3     1  UNL1       -0.0468
     20 C          -1.1100    1.2400    0.0000 C.ar    1  UNL1       -0.0197
     21 C           0.2885    1.2096    0.0046 C.ar    1  UNL1       -0.0554
     22 H           2.8826   -1.0240    0.0006 H       1  UNL1        0.0278
     23 H           2.8657    0.5215    0.8645 H       1  UNL1        0.0278
     24 H           2.8437    0.4890   -0.9180 H       1  UNL1        0.0278
     25 H           0.7534   -2.1556    0.0054 H       1  UNL1        0.0621
     26 H          -1.7128   -2.0996   -0.0037 H       1  UNL1        0.0654
     27 H          -3.6404    1.8048   -0.9492 H       1  UNL1        0.0696
     28 H          -3.6818    1.8114    0.8487 H       1  UNL1        0.0696
     29 H          -5.7174    0.3773    0.7791 H       1  UNL1        0.0302
     30 H          -5.6789    0.3784   -0.9678 H       1  UNL1        0.0302
     31 H          -6.0198    2.8806   -0.9872 H       1  UNL1        0.0360
     32 H          -6.0566    2.8804    0.7858 H       1  UNL1        0.0360
     33 H          -8.3248    4.0681   -0.1449 H       1  UNL1        0.1728
     34 H         -10.3874    1.9449   -0.1926 H       1  UNL1        0.1744
     35 H         -12.5624    2.7812   -0.2366 H       1  UNL1        0.1505
     36 H         -13.1270    5.4165    0.6253 H       1  UNL1        0.0493
     37 H         -13.2467    5.1268   -2.4282 H       1  UNL1        0.0247
     38 H         -12.1237    6.1686   -1.5498 H       1  UNL1        0.0247
     39 H         -13.8491    6.5171   -1.5037 H       1  UNL1        0.0247
     40 H         -14.9140    3.6559   -1.1526 H       1  UNL1        0.0247
     41 H         -15.4346    5.0967   -0.2748 H       1  UNL1        0.0247
     42 H         -14.9152    3.6638    0.6188 H       1  UNL1        0.0247
     43 H          -1.5880    2.2121    0.0014 H       1  UNL1        0.0654
     44 H           0.8365    2.1490    0.0058 H       1  UNL1        0.0621
@<TRIPOS>BOND
     1     1     2    1
     2     2     3   ar
     3     3     4   ar
     4     4     5   ar
     5     5     6    1
     6     6     7    1
     7     7     8    1
     8     8     9    1
     9     9    10    1
    10    10    11    2
    11    10    12   am
    12    12    13    1
    13    13    14   am
    14    14    15    2
    15    14    16   am
    16    16    17    1
    17    17    18    1
    18    17    19    1
    19     5    20   ar
    20    20    21   ar
    21     2    21   ar
    22     1    22    1
    23     1    23    1
    24     1    24    1
    25     3    25    1
    26     4    26    1
    27     7    27    1
    28     7    28    1
    29     8    29    1
    30     8    30    1
    31     9    31    1
    32     9    32    1
    33    12    33    1
    34    13    34    1
    35    16    35    1
    36    17    36    1
    37    18    37    1
    38    18    38    1
    39    18    39    1
    40    19    40    1
    41    19    41    1
    42    19    42    1
    43    20    43    1
    44    21    44    1
