REMARK  4 active torsions:
REMARK  status: ('A' for Active; 'I' for Inactive)
REMARK    1  A    between atoms: C_5  and  N_6 
REMARK    2  A    between atoms: N_6  and  N_7 
REMARK       I    between atoms: N_7  and  C_8 
REMARK    3  A    between atoms: C_8  and  C_10 
REMARK    4  A    between atoms: C_10  and  N_11 
ROOT
ATOM      1  N   UNL d   1       5.264   1.272   3.993  0.00  0.00    -0.254 N 
ATOM      2  C   UNL d   1       6.076   1.101   5.107  0.00  0.00     0.256 C 
ATOM      3  O   UNL d   1       6.344  -0.054   5.431  0.00  0.00    -0.270 OA
ATOM      4  H   UNL d   1       5.035   2.201   3.674  0.00  0.00     0.190 HD
ENDROOT
BRANCH   2   5
ATOM      5  C   UNL d   1       6.535   2.421   5.775  0.00  0.00     0.259 C 
BRANCH   5   6
ATOM      6  N   UNL d   1       7.344   2.263   6.971  0.00  0.00    -0.225 N 
ATOM      7  N   UNL d   1       7.493   0.992   7.442  0.00  0.00    -0.181 NA
ATOM      8  C   UNL d   1       8.223   0.768   8.479  0.00  0.00     0.151 A 
ATOM      9  C   UNL d   1       8.898   1.819   9.207  0.00  0.00    -0.001 A 
ATOM     10  C   UNL d   1       9.762   1.496  10.244  0.00  0.00     0.014 C 
ATOM     11  C   UNL d   1       8.714   3.128   8.782  0.00  0.00     0.045 A 
ATOM     12  C   UNL d   1      10.566   2.505  10.758  0.00  0.00     0.001 C 
ATOM     13  C   UNL d   1      10.321   3.839  10.416  0.00  0.00     0.001 C 
ATOM     14  C   UNL d   1       9.362   4.160   9.454  0.00  0.00     0.018 C 
ATOM     15  C   UNL d   1       7.888   3.387   7.587  0.00  0.00     0.275 A 
ATOM     16  O   UNL d   1       7.734   4.532   7.166  0.00  0.00    -0.266 OA
ENDBRANCH   5   6
ENDBRANCH   2   5
BRANCH   1  17
ATOM     17  N   UNL d   1       4.834   0.061   3.406  0.00  0.00    -0.126 N 
ATOM     18  H   UNL d   1       5.184  -0.791   3.877  0.00  0.00     0.206 HD
BRANCH  17  19
ATOM     19  C   UNL d   1       4.058  -0.069   2.291  0.00  0.00     0.738 A 
ATOM     20  N   UNL d   1       3.590   1.238   1.629  0.00  0.00    -0.110 N 
ATOM     21  N   UNL d   1       2.849   1.237   0.553  0.00  0.00    -0.188 NA
ATOM     22  H   UNL d   1       3.892   2.097   2.071  0.00  0.00     0.207 HD
ATOM     23  C   UNL d   1       2.429  -0.047  -0.021  0.00  0.00     0.220 A 
ATOM     24  C   UNL d   1       0.907  -0.056  -0.014  0.00  0.00     0.046 C 
ATOM     25  C   UNL d   1       2.946  -1.297   0.683  0.00  0.00     0.286 A 
ATOM     26  N   UNL d   1       3.727  -1.218   1.807  0.00  0.00    -0.023 NA
ATOM     27  O   UNL d   1       2.631  -2.397   0.221  0.00  0.00    -0.268 OA
ENDBRANCH  17  19
ENDBRANCH   1  17
TORSDOF 4
