@<TRIPOS>MOLECULE
*****
 65 69 0 0 0
SMALL
GASTEIGER

@<TRIPOS>ATOM
      1 C           0.9882    0.0261   -0.1296 C.3     1  UNL1       -0.0307
      2 C           2.4866   -0.1333   -0.2036 C.3     1  UNL1        0.0870
      3 O           2.9153   -0.5318    1.0879 O.3     1  UNL1       -0.4886
      4 C           3.4167    0.4520    1.8818 C.ar    1  UNL1        0.1621
      5 C           3.8015   -0.0430    3.1815 C.ar    1  UNL1       -0.0081
      6 C           4.3944    0.8072    4.0710 C.ar    1  UNL1        0.0008
      7 C           4.7371    0.6745    5.5473 C.3     1  UNL1       -0.0050
      8 N           5.2744    2.0057    6.3071 N.4     1  UNL1        0.2480
      9 C           4.2360    3.0506    6.7368 C.3     1  UNL1       -0.0181
     10 C           4.1937    4.1588    5.6740 C.3     1  UNL1        0.0568
     11 S           2.7890    4.1234    4.3586 S.3     1  UNL1       -0.0970
     12 C           1.3220    3.3769    5.0710 C.ar    1  UNL1        0.0973
     13 C           0.9770    3.8379    6.3199 C.ar    1  UNL1       -0.0298
     14 C          -0.3413    3.7462    6.7258 C.ar    1  UNL1       -0.0578
     15 C          -1.2784    3.1509    5.8923 C.ar    1  UNL1       -0.0435
     16 C          -0.8391    2.6182    4.6906 C.ar    1  UNL1        0.0288
     17 N           0.4513    2.7132    4.2649 N.ar    1  UNL1       -0.2488
     18 C           5.7068    4.1927    5.1667 C.3     1  UNL1        0.0161
     19 C           6.3978    2.8135    5.5411 C.3     1  UNL1        0.0586
     20 C           7.7118    3.0081    6.2810 C.2     1  UNL1        0.2655
     21 O           7.7959    2.6196    7.4261 O.2     1  UNL1       -0.2693
     22 N           8.7055    3.6416    5.5111 N.am    1  UNL1       -0.2808
     23 C           9.9587    3.9794    6.0688 C.ar    1  UNL1        0.0356
     24 C          10.6065    3.0771    6.9053 C.ar    1  UNL1       -0.0393
     25 C          11.8013    3.4051    7.5428 C.ar    1  UNL1       -0.0441
     26 C          12.3387    4.6787    7.3237 C.ar    1  UNL1        0.0393
     27 S          13.7609    5.3728    7.9934 S.2     1  UNL1       -0.0723
     28 C          13.4610    6.8224    7.1282 C.ar    1  UNL1        0.0764
     29 C          14.3996    7.9737    7.2535 C.3     1  UNL1       -0.0159
     30 N          12.3803    6.8224    6.3738 N.ar    1  UNL1       -0.2442
     31 C          11.7331    5.5983    6.4665 C.ar    1  UNL1        0.0802
     32 C          10.5378    5.2295    5.7980 C.ar    1  UNL1       -0.0139
     33 C           4.6685    2.0033    3.4647 C.ar    1  UNL1       -0.0499
     34 C           4.3681    2.5675    2.2540 C.ar    1  UNL1       -0.0161
     35 C           3.5919    1.7995    1.4872 C.ar    1  UNL1        0.1585
     36 O           2.9851    2.4513    0.4568 O.3     1  UNL1       -0.5033
     37 H           0.5886    0.3422   -1.0920 H       1  UNL1        0.0262
     38 H           0.6891    0.7499    0.6400 H       1  UNL1        0.0262
     39 H           0.5501   -0.9326    0.1626 H       1  UNL1        0.0262
     40 H           2.9846    0.7369   -0.6318 H       1  UNL1        0.0694
     41 H           2.7826   -0.9273   -0.8865 H       1  UNL1        0.0694
     42 H           3.5650   -1.0685    3.4501 H       1  UNL1        0.0660
     43 H           5.5589   -0.0410    5.6685 H       1  UNL1        0.0867
     44 H           3.8830    0.3245    6.1426 H       1  UNL1        0.0867
     45 H           5.7132    1.6516    7.1784 H       1  UNL1        0.2045
     46 H           4.6542    3.5136    7.6416 H       1  UNL1        0.0826
     47 H           3.3004    2.5632    7.0123 H       1  UNL1        0.0826
     48 H           3.9846    5.1395    6.1025 H       1  UNL1        0.0471
     49 H           1.6827    4.4018    6.9081 H       1  UNL1        0.0644
     50 H          -0.6333    4.2266    7.6526 H       1  UNL1        0.0619
     51 H          -2.3289    3.1445    6.1650 H       1  UNL1        0.0633
     52 H          -1.5503    2.1497    4.0072 H       1  UNL1        0.0830
     53 H           6.2442    5.0317    5.6074 H       1  UNL1        0.0338
     54 H           5.7917    4.3639    4.0794 H       1  UNL1        0.0338
     55 H           6.6982    2.1699    4.7022 H       1  UNL1        0.0950
     56 H           8.5014    4.0538    4.6048 H       1  UNL1        0.1550
     57 H          10.1990    2.0815    7.0625 H       1  UNL1        0.0636
     58 H          12.2870    2.6926    8.2015 H       1  UNL1        0.0630
     59 H          15.2410    7.7631    7.9227 H       1  UNL1        0.0298
     60 H          13.8695    8.8477    7.6441 H       1  UNL1        0.0298
     61 H          14.8076    8.2281    6.2705 H       1  UNL1        0.0298
     62 H          10.0662    5.9702    5.1603 H       1  UNL1        0.0658
     63 H           4.8732    2.7388    4.1420 H       1  UNL1        0.0623
     64 H           4.4940    3.6395    2.1151 H       1  UNL1        0.0655
     65 H           3.2529    3.3883    0.4267 H       1  UNL1        0.2923
@<TRIPOS>UNITY_ATOM_ATTR
8 1
charge 1
@<TRIPOS>BOND
     1     1     2    1
     2     2     3    1
     3     3     4    1
     4     4     5   ar
     5     5     6   ar
     6     6     7    1
     7     7     8    1
     8     8     9    1
     9     9    10    1
    10    11    12    1
    11    12    13   ar
    12    13    14   ar
    13    14    15   ar
    14    15    16   ar
    15    16    17   ar
    16    12    17   ar
    17    10    18    1
    18    18    19    1
    19     8    19    1
    20    19    20    1
    21    20    21    2
    22    20    22   am
    23    22    23    1
    24    23    24   ar
    25    24    25   ar
    26    25    26   ar
    27    26    27   ar
    28    27    28   ar
    29    28    29    1
    30    28    30   ar
    31    30    31   ar
    32    26    31   ar
    33    31    32   ar
    34    23    32   ar
    35     6    33   ar
    36    33    34   ar
    37    34    35   ar
    38     4    35   ar
    39    35    36    1
    40    10    11    1
    41     1    37    1
    42     1    38    1
    43     1    39    1
    44     2    40    1
    45     2    41    1
    46     5    42    1
    47     7    43    1
    48     7    44    1
    49     8    45    1
    50     9    46    1
    51     9    47    1
    52    10    48    1
    53    13    49    1
    54    14    50    1
    55    15    51    1
    56    16    52    1
    57    18    53    1
    58    18    54    1
    59    19    55    1
    60    22    56    1
    61    24    57    1
    62    25    58    1
    63    29    59    1
    64    29    60    1
    65    29    61    1
    66    32    62    1
    67    33    63    1
    68    34    64    1
    69    36    65    1
