@<TRIPOS>MOLECULE
*****
 40 42 0 0 0
SMALL
GASTEIGER

@<TRIPOS>ATOM
      1 C           1.0944    0.4915   -0.7567 C.3     1  UNL1        0.0134
      2 C           2.5948    0.3354   -0.6237 C.2     1  UNL1        0.2234
      3 O           3.1905   -0.6281   -1.1211 O.2     1  UNL1       -0.2748
      4 N           3.2145    1.3100    0.1749 N.am    1  UNL1       -0.2502
      5 N           4.5428    1.0041    0.6408 N.3     1  UNL1       -0.2256
      6 C           5.0998    1.8632    1.7290 C.3     1  UNL1        0.1126
      7 C           4.5838    1.4490    3.1792 C.2     1  UNL1        0.1879
      8 O           5.3618    1.3145    4.1452 O.2     1  UNL1       -0.2899
      9 C           3.1530    1.3910    3.4792 C.ar    1  UNL1        0.0444
     10 C           2.5005    2.0765    4.4920 C.ar    1  UNL1        0.0133
     11 N           1.1558    1.8177    4.3924 N.ar    1  UNL1       -0.3600
     12 C           0.9357    0.8637    3.4262 C.ar    1  UNL1        0.0472
     13 C          -0.2484    0.2930    2.9398 C.ar    1  UNL1       -0.0378
     14 C          -0.1242   -0.7663    2.0314 C.ar    1  UNL1       -0.0598
     15 C           1.1277   -1.2704    1.6773 C.ar    1  UNL1       -0.0611
     16 C           2.2888   -0.6614    2.1505 C.ar    1  UNL1       -0.0519
     17 C           2.1942    0.4660    2.9797 C.ar    1  UNL1        0.0102
     18 C           6.6518    1.8620    1.7114 C.ar    1  UNL1       -0.0215
     19 C           7.4152    1.0097    0.8920 C.ar    1  UNL1       -0.0566
     20 C           8.8015    0.9165    1.0379 C.ar    1  UNL1       -0.0614
     21 C           9.4651    1.7184    1.9591 C.ar    1  UNL1       -0.0617
     22 C           8.7408    2.6032    2.7508 C.ar    1  UNL1       -0.0614
     23 C           7.3513    2.6837    2.6201 C.ar    1  UNL1       -0.0566
     24 H           0.6727   -0.3631   -1.3003 H       1  UNL1        0.0323
     25 H           0.7931    1.4400   -1.1886 H       1  UNL1        0.0323
     26 H           0.6267    0.5023    0.2153 H       1  UNL1        0.0323
     27 H           2.5880    1.7890    0.8199 H       1  UNL1        0.1690
     28 H           5.1318    1.0901   -0.1917 H       1  UNL1        0.1454
     29 H           4.7920    2.9005    1.5414 H       1  UNL1        0.0609
     30 H           2.8861    2.7070    5.2842 H       1  UNL1        0.0814
     31 H           0.4422    2.1776    5.0124 H       1  UNL1        0.1654
     32 H          -1.2272    0.6770    3.2084 H       1  UNL1        0.0638
     33 H          -1.0025   -1.1261    1.4979 H       1  UNL1        0.0618
     34 H           1.2271   -1.9939    0.8679 H       1  UNL1        0.0618
     35 H           3.2553   -0.9603    1.7479 H       1  UNL1        0.0624
     36 H           6.9606    0.3662    0.1440 H       1  UNL1        0.0621
     37 H           9.3541    0.1879    0.4499 H       1  UNL1        0.0618
     38 H          10.5431    1.6424    2.0673 H       1  UNL1        0.0618
     39 H           9.2504    3.2014    3.5018 H       1  UNL1        0.0618
     40 H           6.8104    3.3448    3.2958 H       1  UNL1        0.0621
@<TRIPOS>BOND
     1     1     2    1
     2     2     3    2
     3     2     4   am
     4     4     5    1
     5     5     6    1
     6     6     7    1
     7     7     8    2
     8     7     9    1
     9     9    10   ar
    10    10    11   ar
    11    11    12   ar
    12    12    13   ar
    13    13    14   ar
    14    14    15   ar
    15    15    16   ar
    16    16    17   ar
    17     9    17   ar
    18    12    17   ar
    19     6    18    1
    20    18    19   ar
    21    19    20   ar
    22    20    21   ar
    23    21    22   ar
    24    22    23   ar
    25    18    23   ar
    26     1    24    1
    27     1    25    1
    28     1    26    1
    29     4    27    1
    30     5    28    1
    31     6    29    1
    32    10    30    1
    33    11    31    1
    34    13    32    1
    35    14    33    1
    36    15    34    1
    37    16    35    1
    38    19    36    1
    39    20    37    1
    40    21    38    1
    41    22    39    1
    42    23    40    1
