REMARK  14 active torsions:
REMARK  status: ('A' for Active; 'I' for Inactive)
REMARK    1  A    between atoms: C_2  and  C_3 
REMARK    2  A    between atoms: C_2  and  O_29 
REMARK    3  A    between atoms: C_3  and  C_4 
REMARK    4  A    between atoms: C_5  and  C_4 
REMARK    5  A    between atoms: C_5  and  C_17 
REMARK    6  A    between atoms: C_5  and  N_6 
REMARK       I    between atoms: N_6  and  C_7 
REMARK    7  A    between atoms: C_7  and  O_9 
REMARK    8  A    between atoms: O_9  and  C_10 
REMARK    9  A    between atoms: C_10  and  C_11 
REMARK   10  A    between atoms: C_17  and  O_19 
REMARK   11  A    between atoms: O_19  and  C_20 
REMARK   12  A    between atoms: C_23  and  N_24 
REMARK   13  A    between atoms: O_29  and  C_30 
REMARK   14  A    between atoms: C_30  and  C_31 
ROOT
ATOM      1  C   UNL d   1       2.820  -3.920  -0.201  0.00  0.00     0.187 C 
ENDROOT
BRANCH   1   2
ATOM      2  C   UNL d   1       1.717  -5.022  -0.212  0.00  0.00     0.287 C 
ATOM      3  O   UNL d   1       0.523  -4.803  -0.042  0.00  0.00    -0.263 OA
BRANCH   2   4
ATOM      4  O   UNL d   1       2.277  -6.298  -0.388  0.00  0.00    -0.277 OA
BRANCH   4   5
ATOM      5  C   UNL d   1       1.387  -7.387  -0.429  0.00  0.00     0.079 A 
ATOM      6  C   UNL d   1       1.652  -8.539   0.319  0.00  0.00     0.040 A 
ATOM      7  C   UNL d   1       0.840  -9.669   0.184  0.00  0.00     0.039 A 
ATOM      8  C   UNL d   1      -0.279  -9.604  -0.653  0.00  0.00     0.103 A 
ATOM      9  C   UNL d   1      -0.537  -8.452  -1.406  0.00  0.00     0.039 A 
ATOM     10  C   UNL d   1       0.310  -7.353  -1.305  0.00  0.00     0.040 A 
BRANCH   8  11
ATOM     11  N   UNL d   1      -1.217 -10.729  -0.710  0.00  0.00    -0.116 N 
ATOM     12  O   UNL d   1      -0.962 -11.727  -0.020  0.00  0.00    -0.532 OA
ATOM     13  O   UNL d   1      -2.218 -10.607  -1.430  0.00  0.00    -0.532 OA
ENDBRANCH   8  11
ENDBRANCH   4   5
ENDBRANCH   2   4
ENDBRANCH   1   2
BRANCH   1  14
ATOM     14  N   UNL d   1       2.135  -2.619  -0.343  0.00  0.00    -0.323 N 
ATOM     15  C   UNL d   1       1.357  -2.468  -1.473  0.00  0.00     0.361 C 
ATOM     16  O   UNL d   1       1.583  -3.094  -2.514  0.00  0.00    -0.238 OA
ATOM     17  H   UNL d   1       1.879  -2.076   0.475  0.00  0.00     0.165 HD
BRANCH  15  18
ATOM     18  O   UNL d   1       0.280  -1.670  -1.284  0.00  0.00    -0.299 OA
BRANCH  18  19
ATOM     19  C   UNL d   1      -0.631  -1.669  -2.414  0.00  0.00     0.219 C 
BRANCH  19  20
ATOM     20  C   UNL d   1      -1.910  -0.915  -2.106  0.00  0.00    -0.034 A 
ATOM     21  C   UNL d   1      -1.919   0.106  -1.151  0.00  0.00     0.009 A 
ATOM     22  C   UNL d   1      -3.118   0.692  -0.747  0.00  0.00     0.001 A 
ATOM     23  C   UNL d   1      -4.312   0.350  -1.377  0.00  0.00     0.000 A 
ATOM     24  C   UNL d   1      -4.310  -0.601  -2.396  0.00  0.00     0.001 A 
ATOM     25  C   UNL d   1      -3.115  -1.232  -2.760  0.00  0.00     0.009 A 
ENDBRANCH  19  20
ENDBRANCH  18  19
ENDBRANCH  15  18
ENDBRANCH   1  14
BRANCH   1  26
ATOM     26  C   UNL d   1       3.709  -4.001   1.058  0.00  0.00     0.045 C 
BRANCH  26  27
ATOM     27  C   UNL d   1       3.962  -5.444   1.523  0.00  0.00     0.113 C 
BRANCH  27  28
ATOM     28  C   UNL d   1       4.838  -5.560   2.734  0.00  0.00     0.259 C 
ATOM     29  O   UNL d   1       5.310  -4.580   3.298  0.00  0.00    -0.265 OA
BRANCH  28  30
ATOM     30  O   UNL d   1       5.075  -6.814   3.187  0.00  0.00    -0.317 OA
BRANCH  30  31
ATOM     31  C   UNL d   1       4.501  -7.994   2.583  0.00  0.00     0.217 C 
BRANCH  31  32
ATOM     32  C   UNL d   1       4.905  -9.228   3.351  0.00  0.00    -0.034 A 
ATOM     33  C   UNL d   1       4.121 -10.393   3.311  0.00  0.00     0.009 A 
ATOM     34  C   UNL d   1       4.426 -11.475   4.141  0.00  0.00     0.001 A 
ATOM     35  C   UNL d   1       5.568 -11.442   4.939  0.00  0.00     0.000 A 
ATOM     36  C   UNL d   1       6.388 -10.317   4.933  0.00  0.00     0.001 A 
ATOM     37  C   UNL d   1       6.059  -9.220   4.143  0.00  0.00     0.009 A 
ENDBRANCH  31  32
ENDBRANCH  30  31
ENDBRANCH  28  30
ENDBRANCH  27  28
ENDBRANCH  26  27
ENDBRANCH   1  26
TORSDOF 14
