@<TRIPOS>MOLECULE
*****
 40 43 0 0 0
SMALL
GASTEIGER

@<TRIPOS>ATOM
      1 O           1.8268   -2.2755   -2.4270 O.2     1  UNL1       -0.2738
      2 C           1.9710   -1.2448   -1.7760 C.2     1  UNL1        0.2358
      3 N           1.3085   -0.0542   -2.0421 N.am    1  UNL1       -0.2067
      4 N           0.4484    0.1029   -3.1137 N.2     1  UNL1       -0.1876
      5 C          -0.1144    1.2635   -3.3216 C.2     1  UNL1        0.0548
      6 C           0.1654    2.4696   -2.5620 C.ar    1  UNL1        0.0195
      7 C          -0.7457    3.3691   -2.0397 C.ar    1  UNL1        0.0114
      8 N          -0.0483    4.2866   -1.2833 N.ar    1  UNL1       -0.3600
      9 C           1.3070    4.0647   -1.4006 C.ar    1  UNL1        0.0471
     10 C           2.4105    4.7304   -0.8523 C.ar    1  UNL1       -0.0378
     11 C           3.6884    4.2568   -1.1917 C.ar    1  UNL1       -0.0598
     12 C           3.8615    3.1641   -2.0343 C.ar    1  UNL1       -0.0611
     13 C           2.7553    2.5263   -2.5753 C.ar    1  UNL1       -0.0520
     14 C           1.4603    2.9672   -2.2409 C.ar    1  UNL1        0.0083
     15 C           2.8655   -1.1634   -0.5581 C.3     1  UNL1        0.0434
     16 C           4.3665   -1.4359   -0.5402 C.3     1  UNL1       -0.0261
     17 C           5.1987   -2.0093   -1.6437 C.3     1  UNL1       -0.0492
     18 C           4.7035   -3.3448   -2.1756 C.3     1  UNL1       -0.0528
     19 C           4.3589   -4.3096   -1.0490 C.3     1  UNL1       -0.0528
     20 C           3.2466   -3.7708   -0.1548 C.3     1  UNL1       -0.0492
     21 C           3.4380   -2.3381    0.2354 C.3     1  UNL1       -0.0261
     22 H           1.4537    0.7300   -1.4191 H       1  UNL1        0.1772
     23 H          -0.8481    1.3561   -4.1419 H       1  UNL1        0.0852
     24 H          -1.8273    3.4139   -2.0869 H       1  UNL1        0.0813
     25 H          -0.4658    5.0231   -0.7281 H       1  UNL1        0.1654
     26 H           2.2976    5.5860   -0.1947 H       1  UNL1        0.0638
     27 H           4.5704    4.7579   -0.8014 H       1  UNL1        0.0618
     28 H           4.8528    2.7972   -2.2845 H       1  UNL1        0.0618
     29 H           2.8865    1.6702   -3.2340 H       1  UNL1        0.0624
     30 H           2.5521   -0.3460    0.0909 H       1  UNL1        0.0400
     31 H           4.9720   -0.7411    0.0395 H       1  UNL1        0.0311
     32 H           6.2209   -2.1561   -1.2629 H       1  UNL1        0.0268
     33 H           5.2791   -1.2809   -2.4567 H       1  UNL1        0.0268
     34 H           5.4601   -3.7872   -2.8315 H       1  UNL1        0.0265
     35 H           3.8283   -3.1872   -2.8032 H       1  UNL1        0.0265
     36 H           5.2568   -4.5080   -0.4496 H       1  UNL1        0.0265
     37 H           4.0403   -5.2692   -1.4716 H       1  UNL1        0.0265
     38 H           3.2124   -4.3887    0.7528 H       1  UNL1        0.0268
     39 H           2.2722   -3.9015   -0.6324 H       1  UNL1        0.0268
     40 H           3.4705   -2.2424    1.3175 H       1  UNL1        0.0311
@<TRIPOS>BOND
     1     1     2    2
     2     2     3   am
     3     3     4    1
     4     4     5    2
     5     5     6    1
     6     6     7   ar
     7     7     8   ar
     8     8     9   ar
     9     9    10   ar
    10    10    11   ar
    11    11    12   ar
    12    12    13   ar
    13    13    14   ar
    14     6    14   ar
    15     9    14   ar
    16    15    16    1
    17    16    17    1
    18    17    18    1
    19    18    19    1
    20    19    20    1
    21    20    21    1
    22    16    21    1
    23    15    21    1
    24    15     2    1
    25     3    22    1
    26     5    23    1
    27     7    24    1
    28     8    25    1
    29    10    26    1
    30    11    27    1
    31    12    28    1
    32    13    29    1
    33    15    30    1
    34    16    31    1
    35    17    32    1
    36    17    33    1
    37    18    34    1
    38    18    35    1
    39    19    36    1
    40    19    37    1
    41    20    38    1
    42    20    39    1
    43    21    40    1
