@<TRIPOS>MOLECULE
*****
 60 63 0 0 0
SMALL
GASTEIGER

@<TRIPOS>ATOM
      1 C           1.8782    1.4751   -0.0201 C.3     1  UNL1       -0.0394
      2 C           0.6030    0.6722    0.0097 C.ar    1  UNL1       -0.0458
      3 C          -0.5979    1.3979    0.0275 C.ar    1  UNL1       -0.0585
      4 C          -1.7999    0.7311    0.0699 C.ar    1  UNL1       -0.0597
      5 C          -1.8022   -0.6579    0.1277 C.ar    1  UNL1       -0.0402
      6 C          -0.6344   -1.4503    0.1124 C.ar    1  UNL1        0.0379
      7 N          -0.7277   -2.8971    0.1113 N.am    1  UNL1       -0.2689
      8 C          -1.9102   -3.6129    0.2946 C.2     1  UNL1        0.3082
      9 O          -2.9661   -3.0963    0.6695 O.2     1  UNL1       -0.2522
     10 N          -1.8415   -4.9710    0.0004 N.am    1  UNL1       -0.2675
     11 C          -3.0638   -5.7267   -0.1215 C.ar    1  UNL1        0.0576
     12 C          -3.2379   -6.9309    0.6349 C.ar    1  UNL1       -0.0174
     13 C          -4.4052   -7.7183    0.4922 C.ar    1  UNL1        0.0355
     14 N          -4.5326   -9.0213    1.0819 N.am    1  UNL1       -0.2814
     15 C          -5.5555   -9.9247    0.7674 C.2     1  UNL1        0.2483
     16 O          -6.5179   -9.7266    0.0203 O.2     1  UNL1       -0.2699
     17 C          -5.5331  -11.2849    1.3522 C.ar    1  UNL1        0.0372
     18 C          -6.0305  -12.3496    0.5695 C.ar    1  UNL1       -0.0469
     19 C          -6.2630  -13.6005    1.1408 C.ar    1  UNL1       -0.0257
     20 C          -5.9357  -13.8013    2.4742 C.ar    1  UNL1        0.1234
     21 F          -6.1042  -15.0138    3.0172 F       1  UNL1       -0.2055
     22 C          -5.4336  -12.7615    3.2562 C.ar    1  UNL1       -0.0257
     23 C          -5.2404  -11.4922    2.7003 C.ar    1  UNL1       -0.0469
     24 C          -5.4248   -7.2081   -0.3034 C.ar    1  UNL1       -0.0386
     25 C          -5.2656   -6.0413   -1.0393 C.ar    1  UNL1       -0.0371
     26 C          -4.0939   -5.2842   -0.9987 C.ar    1  UNL1        0.0514
     27 N          -4.0535   -4.2089   -1.8661 N.pl3   1  UNL1       -0.3285
     28 C          -2.9470   -3.8633   -2.7349 C.3     1  UNL1        0.0123
     29 C          -2.8235   -2.3595   -2.5926 C.3     1  UNL1       -0.0358
     30 C          -4.2359   -1.8805   -2.3019 C.3     1  UNL1       -0.0358
     31 C          -4.9352   -3.0634   -1.6236 C.3     1  UNL1        0.0123
     32 C           0.5985   -0.7631    0.0371 C.ar    1  UNL1       -0.0263
     33 C           1.9269   -1.4736    0.0295 C.3     1  UNL1       -0.0377
     34 H           1.6711    2.5526   -0.0306 H       1  UNL1        0.0278
     35 H           2.4539    1.2477   -0.9210 H       1  UNL1        0.0278
     36 H           2.4729    1.2699    0.8741 H       1  UNL1        0.0278
     37 H          -0.6063    2.4854    0.0152 H       1  UNL1        0.0620
     38 H          -2.7448    1.2674    0.0603 H       1  UNL1        0.0618
     39 H          -2.7926   -1.0943    0.1275 H       1  UNL1        0.0636
     40 H           0.1169   -3.4275   -0.0286 H       1  UNL1        0.1564
     41 H          -0.9980   -5.4725    0.2300 H       1  UNL1        0.1564
     42 H          -2.4884   -7.2124    1.3710 H       1  UNL1        0.0655
     43 H          -3.7478   -9.3610    1.6240 H       1  UNL1        0.1551
     44 H          -6.2763  -12.1905   -0.4808 H       1  UNL1        0.0626
     45 H          -6.7174  -14.4025    0.5659 H       1  UNL1        0.0646
     46 H          -5.2317  -12.9405    4.3074 H       1  UNL1        0.0646
     47 H          -4.9274  -10.6692    3.3339 H       1  UNL1        0.0626
     48 H          -6.3822   -7.6985   -0.4173 H       1  UNL1        0.0637
     49 H          -6.0634   -5.7637   -1.7232 H       1  UNL1        0.0637
     50 H          -3.2333   -4.0966   -3.7640 H       1  UNL1        0.0464
     51 H          -2.0116   -4.3859   -2.5186 H       1  UNL1        0.0464
     52 H          -2.3537   -1.8667   -3.4453 H       1  UNL1        0.0281
     53 H          -2.1817   -2.1449   -1.7581 H       1  UNL1        0.0281
     54 H          -4.7325   -1.6331   -3.2436 H       1  UNL1        0.0281
     55 H          -4.2608   -0.9808   -1.6765 H       1  UNL1        0.0281
     56 H          -5.9119   -3.2270   -2.0920 H       1  UNL1        0.0464
     57 H          -5.1085   -2.8679   -0.5583 H       1  UNL1        0.0464
     58 H           1.8407   -2.5601    0.0288 H       1  UNL1        0.0278
     59 H           2.4934   -1.2010    0.9258 H       1  UNL1        0.0278
     60 H           2.5020   -1.2022   -0.8623 H       1  UNL1        0.0278
@<TRIPOS>BOND
     1     1     2    1
     2     2     3   ar
     3     3     4   ar
     4     4     5   ar
     5     5     6   ar
     6     6     7    1
     7     7     8   am
     8     8     9    2
     9     8    10   am
    10    10    11    1
    11    11    12   ar
    12    12    13   ar
    13    13    14    1
    14    14    15   am
    15    15    16    2
    16    15    17    1
    17    17    18   ar
    18    18    19   ar
    19    19    20   ar
    20    20    21    1
    21    20    22   ar
    22    22    23   ar
    23    17    23   ar
    24    13    24   ar
    25    24    25   ar
    26    25    26   ar
    27    11    26   ar
    28    26    27    1
    29    27    28    1
    30    28    29    1
    31    29    30    1
    32    30    31    1
    33    27    31    1
    34     6    32   ar
    35     2    32   ar
    36    32    33    1
    37     1    34    1
    38     1    35    1
    39     1    36    1
    40     3    37    1
    41     4    38    1
    42     5    39    1
    43     7    40    1
    44    10    41    1
    45    12    42    1
    46    14    43    1
    47    18    44    1
    48    19    45    1
    49    22    46    1
    50    23    47    1
    51    24    48    1
    52    25    49    1
    53    28    50    1
    54    28    51    1
    55    29    52    1
    56    29    53    1
    57    30    54    1
    58    30    55    1
    59    31    56    1
    60    31    57    1
    61    33    58    1
    62    33    59    1
    63    33    60    1
