REMARK  4 active torsions:
REMARK  status: ('A' for Active; 'I' for Inactive)
REMARK       I    between atoms: C_2  and  N_3 
REMARK    1  A    between atoms: C_2  and  C_11 
REMARK    2  A    between atoms: N_3  and  C_4 
REMARK    3  A    between atoms: C_7  and  O_8 
REMARK    4  A    between atoms: C_13  and  C_14 
ROOT
ATOM      1  C   UNL d   1       3.027   0.306  -1.127  0.00  0.00     0.047 A 
ATOM      2  C   UNL d   1       4.138  -0.446  -1.501  0.00  0.00     0.050 A 
ATOM      3  C   UNL d   1       4.856  -0.060  -2.626  0.00  0.00     0.070 A 
ATOM      4  N   UNL d   1       4.531   1.025  -3.365  0.00  0.00    -0.247 NA
ATOM      5  C   UNL d   1       3.441   1.739  -3.033  0.00  0.00     0.068 A 
ATOM      6  C   UNL d   1       3.102   2.838  -3.821  0.00  0.00     0.032 A 
ATOM      7  C   UNL d   1       1.987   3.632  -3.547  0.00  0.00     0.002 A 
ATOM      8  C   UNL d   1       1.181   3.323  -2.464  0.00  0.00     0.001 A 
ATOM      9  C   UNL d   1       1.503   2.234  -1.657  0.00  0.00     0.015 A 
ATOM     10  C   UNL d   1       2.634   1.421  -1.917  0.00  0.00     0.008 A 
ENDROOT
BRANCH   1  11
ATOM     11  C   UNL d   1       2.228  -0.150   0.053  0.00  0.00     0.257 C 
ATOM     12  O   UNL d   1       1.001  -0.175  -0.051  0.00  0.00    -0.267 OA
ATOM     13  N   UNL d   1       2.924  -0.467   1.220  0.00  0.00    -0.323 N 
ATOM     14  H   UNL d   1       3.893  -0.181   1.299  0.00  0.00     0.169 HD
BRANCH  13  15
ATOM     15  C   UNL d   1       2.248  -0.804   2.424  0.00  0.00     0.035 A 
ATOM     16  C   UNL d   1       1.140  -1.662   2.419  0.00  0.00     0.032 A 
ATOM     17  C   UNL d   1       0.457  -1.970   3.602  0.00  0.00     0.039 A 
ATOM     18  C   UNL d   1       0.873  -1.400   4.797  0.00  0.00     0.065 A 
ATOM     19  C   UNL d   1       1.970  -0.545   4.823  0.00  0.00     0.039 A 
ATOM     20  C   UNL d   1       2.678  -0.268   3.643  0.00  0.00     0.032 A 
BRANCH  18  21
ATOM     21  O   UNL d   1       0.236  -1.651   5.977  0.00  0.00    -0.361 OA
ATOM     22  H   UNL d   1      -0.490  -2.277   5.822  0.00  0.00     0.217 HD
ENDBRANCH  18  21
ENDBRANCH  13  15
ENDBRANCH   1  11
BRANCH   3  23
ATOM     23  C   UNL d   1       6.018  -0.826  -3.076  0.00  0.00     0.010 A 
ATOM     24  C   UNL d   1       7.300  -0.267  -3.147  0.00  0.00     0.017 A 
ATOM     25  C   UNL d   1       8.390  -1.065  -3.495  0.00  0.00     0.020 A 
ATOM     26  C   UNL d   1       8.165  -2.402  -3.776  0.00  0.00     0.116 A 
ATOM     27  N   UNL d   1       6.946  -2.979  -3.742  0.00  0.00    -0.272 NA
ATOM     28  C   UNL d   1       5.908  -2.176  -3.405  0.00  0.00     0.130 A 
ENDBRANCH   3  23
TORSDOF 4
