@<TRIPOS>MOLECULE
*****
 51 52 0 0 0
SMALL
GASTEIGER

@<TRIPOS>ATOM
      1 C           1.0720   -0.0678   -0.0073 C.3     1  UNL1       -0.0307
      2 C           2.5884   -0.0688    0.0067 C.3     1  UNL1        0.0868
      3 O           2.9952   -1.4365    0.0982 O.3     1  UNL1       -0.4915
      4 C           4.3490   -1.6360    0.0918 C.ar    1  UNL1        0.1326
      5 C           5.2199   -0.8800    0.9030 C.ar    1  UNL1       -0.0181
      6 C           6.5909   -1.1551    0.9489 C.ar    1  UNL1       -0.0443
      7 C           7.1005   -2.1995    0.1927 C.ar    1  UNL1        0.0188
      8 BR          8.9508   -2.5904    0.2701 Br      1  UNL1       -0.0503
      9 C           6.2471   -2.9595   -0.6101 C.ar    1  UNL1       -0.0321
     10 C           4.8524   -2.6935   -0.6739 C.ar    1  UNL1        0.0797
     11 C           4.0296   -3.5666   -1.5897 C.2     1  UNL1        0.2531
     12 O           4.6764   -4.4251   -2.1973 O.2     1  UNL1       -0.2697
     13 N           2.6297   -3.3936   -1.7412 N.am    1  UNL1       -0.2626
     14 C           1.7608   -4.1414   -2.5736 C.2     1  UNL1        0.1533
     15 S           2.2391   -5.4136   -3.5774 S.2     1  UNL1       -0.0170
     16 N           0.4041   -3.7653   -2.5445 N.am    1  UNL1       -0.2454
     17 N          -0.5554   -4.4951   -3.3757 N.am    1  UNL1       -0.2323
     18 C          -1.9086   -4.1689   -3.3850 C.2     1  UNL1        0.2667
     19 O          -2.3373   -3.2495   -2.6857 O.2     1  UNL1       -0.2705
     20 C          -2.8196   -5.0384   -4.3195 C.3     1  UNL1        0.1666
     21 O          -4.1741   -4.5658   -4.2697 O.3     1  UNL1       -0.4827
     22 C          -5.1318   -5.2229   -4.9984 C.ar    1  UNL1        0.1217
     23 C          -5.2547   -6.6079   -5.0981 C.ar    1  UNL1       -0.0170
     24 C          -6.3393   -7.1842   -5.7909 C.ar    1  UNL1       -0.0467
     25 C          -6.4747   -8.6778   -5.8937 C.3     1  UNL1       -0.0396
     26 C          -7.3052   -6.3564   -6.3857 C.ar    1  UNL1       -0.0557
     27 C          -7.1981   -4.9650   -6.2898 C.ar    1  UNL1       -0.0467
     28 C          -8.2155   -4.0570   -6.9209 C.3     1  UNL1       -0.0396
     29 C          -6.1160   -4.4138   -5.5815 C.ar    1  UNL1       -0.0170
     30 H           0.6834    0.9500   -0.0855 H       1  UNL1        0.0262
     31 H           0.6841   -0.5278    0.9085 H       1  UNL1        0.0262
     32 H           0.6921   -0.6622   -0.8448 H       1  UNL1        0.0262
     33 H           2.9309    0.5162    0.8653 H       1  UNL1        0.0694
     34 H           2.9719    0.3699   -0.9219 H       1  UNL1        0.0694
     35 H           4.8524   -0.0826    1.5424 H       1  UNL1        0.0655
     36 H           7.2449   -0.5629    1.5869 H       1  UNL1        0.0630
     37 H           6.6757   -3.7754   -1.1932 H       1  UNL1        0.0637
     38 H           2.2272   -2.6642   -1.1632 H       1  UNL1        0.1569
     39 H          -0.0023   -3.0231   -1.9760 H       1  UNL1        0.1718
     40 H          -0.1538   -5.2448   -3.9389 H       1  UNL1        0.1729
     41 H          -2.7550   -6.0813   -3.9903 H       1  UNL1        0.0795
     42 H          -2.4554   -4.9525   -5.3509 H       1  UNL1        0.0795
     43 H          -4.5432   -7.2625   -4.6074 H       1  UNL1        0.0657
     44 H          -5.6619   -9.1868   -5.3656 H       1  UNL1        0.0278
     45 H          -6.4382   -8.9890   -6.9429 H       1  UNL1        0.0278
     46 H          -7.4197   -9.0120   -5.4521 H       1  UNL1        0.0278
     47 H          -8.1462   -6.8020   -6.9169 H       1  UNL1        0.0623
     48 H          -8.9921   -4.6170   -7.4534 H       1  UNL1        0.0278
     49 H          -7.7288   -3.3949   -7.6450 H       1  UNL1        0.0278
     50 H          -8.7069   -3.4478   -6.1552 H       1  UNL1        0.0278
     51 H          -6.0403   -3.3332   -5.4810 H       1  UNL1        0.0657
@<TRIPOS>BOND
     1     1     2    1
     2     2     3    1
     3     3     4    1
     4     4     5   ar
     5     5     6   ar
     6     6     7   ar
     7     7     8    1
     8     7     9   ar
     9     9    10   ar
    10     4    10   ar
    11    10    11    1
    12    11    12    2
    13    11    13   am
    14    13    14    1
    15    14    15    2
    16    14    16    1
    17    16    17    1
    18    17    18   am
    19    18    19    2
    20    18    20    1
    21    20    21    1
    22    21    22    1
    23    22    23   ar
    24    23    24   ar
    25    24    25    1
    26    24    26   ar
    27    26    27   ar
    28    27    28    1
    29    27    29   ar
    30    22    29   ar
    31     1    30    1
    32     1    31    1
    33     1    32    1
    34     2    33    1
    35     2    34    1
    36     5    35    1
    37     6    36    1
    38     9    37    1
    39    13    38    1
    40    16    39    1
    41    17    40    1
    42    20    41    1
    43    20    42    1
    44    23    43    1
    45    25    44    1
    46    25    45    1
    47    25    46    1
    48    26    47    1
    49    28    48    1
    50    28    49    1
    51    28    50    1
    52    29    51    1
