@<TRIPOS>MOLECULE
*****
 57 60 0 0 0
SMALL
GASTEIGER

@<TRIPOS>ATOM
      1 C           0.9135   -0.1125    0.0929 C.3     1  UNL1        0.0379
      2 O           2.3186   -0.0061   -0.0525 O.3     1  UNL1       -0.3658
      3 C           2.7684    0.8645   -1.1193 C.3     1  UNL1        0.1605
      4 C           2.2361    2.3193   -0.8325 C.2     1  UNL1        0.2507
      5 O           2.9472    3.1642   -0.2682 O.2     1  UNL1       -0.2722
      6 N           0.9010    2.6034   -1.1892 N.am    1  UNL1       -0.2828
      7 C           0.3667    3.9183   -1.0295 C.ar    1  UNL1        0.0386
      8 C          -0.6978    4.1633   -0.1228 C.ar    1  UNL1       -0.0109
      9 C          -1.1338    5.5168   -0.0687 C.ar    1  UNL1        0.1149
     10 N          -2.0449    6.1185    0.7221 N.ar    1  UNL1       -0.1470
     11 N          -2.1022    7.3806    0.2154 N.ar    1  UNL1       -0.1492
     12 C          -2.9375    8.3869    0.7523 C.ar    1  UNL1        0.0862
     13 C          -3.6811    9.2239   -0.0915 C.ar    1  UNL1       -0.0343
     14 C          -4.3888   10.3080    0.4457 C.ar    1  UNL1       -0.0563
     15 C          -4.3982   10.5455    1.8305 C.ar    1  UNL1       -0.0447
     16 C          -5.0930   11.7839    2.3927 C.3     1  UNL1       -0.0215
     17 C          -6.5815   11.8183    2.0338 C.3     1  UNL1       -0.0587
     18 C          -4.9428   11.9236    3.9139 C.3     1  UNL1       -0.0587
     19 C          -3.7072    9.6399    2.6565 C.ar    1  UNL1       -0.0563
     20 C          -2.9566    8.5891    2.1281 C.ar    1  UNL1       -0.0343
     21 N          -1.2538    7.6806   -0.7857 N.ar    1  UNL1       -0.1471
     22 C          -0.5730    6.5416   -0.9461 C.ar    1  UNL1        0.1135
     23 C           0.4804    6.2870   -1.8243 C.ar    1  UNL1       -0.0277
     24 C           0.9137    4.9492   -1.8587 C.ar    1  UNL1       -0.0271
     25 C           1.9998    4.6300   -2.8392 C.3     1  UNL1       -0.0379
     26 C           4.3222    0.7893   -1.1697 C.ar    1  UNL1        0.0083
     27 C           5.0047   -0.2496   -0.4998 C.ar    1  UNL1       -0.0542
     28 C           6.3942   -0.2130   -0.2994 C.ar    1  UNL1       -0.0613
     29 C           7.1536    0.8237   -0.8239 C.ar    1  UNL1       -0.0604
     30 C           6.5337    1.7599   -1.6347 C.ar    1  UNL1       -0.0430
     31 C           5.1449    1.7207   -1.8347 C.ar    1  UNL1        0.0471
     32 CL          4.5836    2.7833   -3.0601 Cl      1  UNL1       -0.0832
     33 H           0.6789   -0.8187    0.8909 H       1  UNL1        0.0524
     34 H           0.4625   -0.4537   -0.8430 H       1  UNL1        0.0524
     35 H           0.4787    0.8341    0.4200 H       1  UNL1        0.0524
     36 H           2.3825    0.4777   -2.0712 H       1  UNL1        0.0744
     37 H           0.2283    1.8492   -1.1939 H       1  UNL1        0.1549
     38 H          -1.1267    3.4124    0.5277 H       1  UNL1        0.0659
     39 H          -3.7456    9.0246   -1.1593 H       1  UNL1        0.0639
     40 H          -4.9289   10.9700   -0.2296 H       1  UNL1        0.0621
     41 H          -4.6099   12.6632    1.9416 H       1  UNL1        0.0343
     42 H          -7.1001   10.9419    2.4365 H       1  UNL1        0.0235
     43 H          -6.7402   11.8330    0.9507 H       1  UNL1        0.0235
     44 H          -7.0602   12.7158    2.4417 H       1  UNL1        0.0235
     45 H          -5.4086   11.0751    4.4294 H       1  UNL1        0.0235
     46 H          -5.4146   12.8370    4.2865 H       1  UNL1        0.0235
     47 H          -3.8851   11.9605    4.2010 H       1  UNL1        0.0235
     48 H          -3.7146    9.7423    3.7377 H       1  UNL1        0.0621
     49 H          -2.3395    7.9905    2.7933 H       1  UNL1        0.0639
     50 H           0.9196    7.0557   -2.4443 H       1  UNL1        0.0643
     51 H           2.2490    5.4669   -3.4924 H       1  UNL1        0.0278
     52 H           1.7212    3.7754   -3.4665 H       1  UNL1        0.0278
     53 H           2.8902    4.4331   -2.2544 H       1  UNL1        0.0278
     54 H           4.4566   -1.1018   -0.1015 H       1  UNL1        0.0622
     55 H           6.8813   -0.9883    0.2867 H       1  UNL1        0.0618
     56 H           8.2233    0.8839   -0.6446 H       1  UNL1        0.0618
     57 H           7.1358    2.5201   -2.1289 H       1  UNL1        0.0632
@<TRIPOS>BOND
     1     1     2    1
     2     2     3    1
     3     3     4    1
     4     4     5    2
     5     4     6   am
     6     6     7    1
     7     7     8   ar
     8     8     9   ar
     9     9    10   ar
    10    10    11   ar
    11    11    12    1
    12    12    13   ar
    13    13    14   ar
    14    14    15   ar
    15    15    16    1
    16    16    17    1
    17    16    18    1
    18    15    19   ar
    19    19    20   ar
    20    12    20   ar
    21    11    21   ar
    22    21    22   ar
    23     9    22   ar
    24    22    23   ar
    25    23    24   ar
    26     7    24   ar
    27    24    25    1
    28     3    26    1
    29    26    27   ar
    30    27    28   ar
    31    28    29   ar
    32    29    30   ar
    33    30    31   ar
    34    26    31   ar
    35    31    32    1
    36     1    33    1
    37     1    34    1
    38     1    35    1
    39     3    36    1
    40     6    37    1
    41     8    38    1
    42    13    39    1
    43    14    40    1
    44    16    41    1
    45    17    42    1
    46    17    43    1
    47    17    44    1
    48    18    45    1
    49    18    46    1
    50    18    47    1
    51    19    48    1
    52    20    49    1
    53    23    50    1
    54    25    51    1
    55    25    52    1
    56    25    53    1
    57    27    54    1
    58    28    55    1
    59    29    56    1
    60    30    57    1
