@<TRIPOS>MOLECULE
*****
 55 57 0 0 0
SMALL
GASTEIGER

@<TRIPOS>ATOM
      1 C           2.1836    0.1803    1.0820 C.3     1  UNL1       -0.0397
      2 C           0.7301    0.0692    1.3002 C.ar    1  UNL1       -0.0504
      3 C           0.0026   -1.3420    0.6236 C.ar    1  UNL1       -0.0585
      4 C          -1.5067   -1.3475   -0.2251 C.ar    1  UNL1       -0.0568
      5 C          -2.4215    0.1950   -0.3509 C.ar    1  UNL1       -0.0303
      6 C          -3.7757    0.0210   -0.7638 C.3     1  UNL1        0.0371
      7 N          -4.2389    1.3512   -0.8249 N.am    1  UNL1       -0.3072
      8 C          -5.4518    1.7115   -0.3485 C.2     1  UNL1        0.2461
      9 O          -5.9527    2.7028   -0.8805 O.2     1  UNL1       -0.2701
     10 C          -6.1296    0.9072    0.7830 C.ar    1  UNL1        0.0579
     11 C          -7.5230    1.1328    0.7841 C.ar    1  UNL1       -0.0478
     12 C          -8.3793    0.4518    1.6532 C.ar    1  UNL1       -0.0609
     13 C          -7.8708   -0.4948    2.5334 C.ar    1  UNL1       -0.0600
     14 C          -6.4979   -0.7458    2.5735 C.ar    1  UNL1       -0.0397
     15 C          -5.5939   -0.0155    1.7791 C.ar    1  UNL1        0.0456
     16 N          -4.1919   -0.2849    2.1200 N.am    1  UNL1       -0.2835
     17 C          -3.2045    0.6439    1.8116 C.2     1  UNL1        0.2343
     18 O          -3.6276    1.7992    1.6471 O.2     1  UNL1       -0.2738
     19 C          -1.4733    0.0580    1.3923 C.3     1  UNL1        0.0861
     20 N          -0.5320    0.4888   -0.4888 N.pl3   1  UNL1       -0.3342
     21 C           0.6254    0.8215   -1.3594 C.ar    1  UNL1        0.0464
     22 C           1.3005   -0.4107   -1.7220 C.ar    1  UNL1       -0.0341
     23 C           2.7138   -0.4908   -1.4965 C.ar    1  UNL1       -0.0204
     24 C           3.2137   -1.9153   -0.8895 C.3     1  UNL1        0.0693
     25 O           2.2254   -2.9282   -0.5711 O.3     1  UNL1       -0.3904
     26 C           3.4810    0.8221   -1.2577 C.ar    1  UNL1       -0.0549
     27 C           2.7543    2.1493   -1.1595 C.ar    1  UNL1       -0.0413
     28 C           1.3185    2.1667   -1.2953 C.ar    1  UNL1        0.0618
     29 CL          0.4833    3.7447   -0.8927 Cl      1  UNL1       -0.0816
     30 C          -1.6669    1.7826    0.4178 C.ar    1  UNL1       -0.0568
     31 C          -0.0562    1.6305    1.2139 C.ar    1  UNL1       -0.0585
     32 H           2.7078   -0.7361    0.9441 H       1  UNL1        0.0278
     33 H           2.8592    0.9339    1.4382 H       1  UNL1        0.0278
     34 H           2.0115    0.5903    0.1374 H       1  UNL1        0.0278
     35 H           0.5226   -2.2523    0.4674 H       1  UNL1        0.0620
     36 H          -1.8823   -2.3632   -0.3155 H       1  UNL1        0.0621
     37 H          -4.0767   -0.6462    0.0361 H       1  UNL1        0.0512
     38 H          -3.9372   -0.5974   -1.6364 H       1  UNL1        0.0512
     39 H          -3.6238    2.0214   -0.3516 H       1  UNL1        0.1493
     40 H          -7.9612    1.8672    0.1052 H       1  UNL1        0.0626
     41 H          -9.4478    0.6580    1.6358 H       1  UNL1        0.0618
     42 H          -8.5385   -1.0139    3.2186 H       1  UNL1        0.0618
     43 H          -6.1313   -1.4736    3.2924 H       1  UNL1        0.0636
     44 H          -3.9491   -1.1599    2.5705 H       1  UNL1        0.1549
     45 H          -1.7571   -1.0086    1.6311 H       1  UNL1        0.0557
     46 H          -1.0487    0.4197    2.3503 H       1  UNL1        0.0557
     47 H          -1.1145    1.1557   -1.1176 H       1  UNL1        0.1466
     48 H           0.6705   -1.3122   -1.5965 H       1  UNL1        0.0640
     49 H           3.8363   -1.8913    0.0268 H       1  UNL1        0.0607
     50 H           3.8076   -2.3091   -1.6926 H       1  UNL1        0.0607
     51 H           2.0700   -2.9083    0.3971 H       1  UNL1        0.2098
     52 H           4.4953    0.7661   -0.7851 H       1  UNL1        0.0621
     53 H           3.2078    3.0557   -0.6796 H       1  UNL1        0.0633
     54 H          -1.9351    2.7864    0.1568 H       1  UNL1        0.0621
     55 H           0.6830    2.4148    1.1166 H       1  UNL1        0.0620
@<TRIPOS>BOND
     1     1     2    1
     2     2     3   ar
     3     3     4   ar
     4     4     5   ar
     5     5     6    1
     6     6     7    1
     7     7     8   am
     8     8     9    2
     9     8    10    1
    10    10    11   ar
    11    11    12   ar
    12    12    13   ar
    13    13    14   ar
    14    14    15   ar
    15    10    15   ar
    16    15    16    1
    17    16    17   am
    18    17    18    2
    19    17    19    1
    20    19    20    1
    21    20    21    1
    22    21    22   ar
    23    22    23   ar
    24    23    24    1
    25    24    25    1
    26    23    26   ar
    27    26    27   ar
    28    27    28   ar
    29    21    28   ar
    30    28    29    1
    31     5    30   ar
    32    30    31   ar
    33     2    31   ar
    34     1    32    1
    35     1    33    1
    36     1    34    1
    37     3    35    1
    38     4    36    1
    39     6    37    1
    40     6    38    1
    41     7    39    1
    42    11    40    1
    43    12    41    1
    44    13    42    1
    45    14    43    1
    46    16    44    1
    47    19    45    1
    48    19    46    1
    49    20    47    1
    50    22    48    1
    51    24    49    1
    52    24    50    1
    53    25    51    1
    54    26    52    1
    55    27    53    1
    56    30    54    1
    57    31    55    1
