@<TRIPOS>MOLECULE
*****
 31 31 0 0 0
SMALL
GASTEIGER

@<TRIPOS>ATOM
      1 C           1.0013    0.0322    0.0520 C.3     1  UNL1       -0.0495
      2 C           2.5250    0.0246    0.0416 C.3     1  UNL1        0.0102
      3 N           3.0641   -0.7606   -1.0552 N.am    1  UNL1       -0.2995
      4 C           4.4130   -0.9146   -1.2715 C.2     1  UNL1        0.3022
      5 O           5.2430   -0.3860   -0.5295 O.2     1  UNL1       -0.2526
      6 N           4.7850   -1.6952   -2.3617 N.am    1  UNL1       -0.2844
      7 C           3.8617   -2.3430   -3.2893 C.3     1  UNL1        0.0050
      8 C           6.2392   -1.8752   -2.6073 C.3     1  UNL1        0.0409
      9 C           6.5742   -2.7425   -3.8137 C.ar    1  UNL1       -0.0298
     10 C           6.5220   -4.1455   -3.7192 C.ar    1  UNL1       -0.0536
     11 C           6.5779   -4.9440   -4.8679 C.ar    1  UNL1       -0.0199
     12 C           6.7194   -4.3399   -6.1127 C.ar    1  UNL1        0.1169
     13 O           6.7310   -5.0618   -7.2700 O.3     1  UNL1       -0.5068
     14 C           6.8361   -2.9594   -6.2209 C.ar    1  UNL1       -0.0199
     15 C           6.7682   -2.1606   -5.0764 C.ar    1  UNL1       -0.0536
     16 H           0.6247    0.6301    0.8890 H       1  UNL1        0.0245
     17 H           0.5984   -0.9815    0.1538 H       1  UNL1        0.0245
     18 H           0.5986    0.4572   -0.8740 H       1  UNL1        0.0245
     19 H           2.9021   -0.3939    0.9802 H       1  UNL1        0.0460
     20 H           2.9024    1.0481   -0.0511 H       1  UNL1        0.0460
     21 H           2.3948   -1.1905   -1.6636 H       1  UNL1        0.1502
     22 H           2.8118   -2.1742   -3.0749 H       1  UNL1        0.0429
     23 H           4.0177   -3.4237   -3.2459 H       1  UNL1        0.0429
     24 H           4.0490   -1.9655   -4.2980 H       1  UNL1        0.0429
     25 H           6.6962   -2.3087   -1.7075 H       1  UNL1        0.0514
     26 H           6.6953   -0.8828   -2.7274 H       1  UNL1        0.0514
     27 H           6.3614   -4.6151   -2.7502 H       1  UNL1        0.0622
     28 H           6.4771   -6.0207   -4.7707 H       1  UNL1        0.0654
     29 H           6.6265   -6.0039   -7.0607 H       1  UNL1        0.2921
     30 H           6.9468   -2.5038   -7.2010 H       1  UNL1        0.0654
     31 H           6.8126   -1.0792   -5.1842 H       1  UNL1        0.0622
@<TRIPOS>BOND
     1     1     2    1
     2     2     3    1
     3     3     4   am
     4     4     5    2
     5     4     6   am
     6     6     7    1
     7     6     8    1
     8     8     9    1
     9     9    10   ar
    10    10    11   ar
    11    11    12   ar
    12    12    13    1
    13    12    14   ar
    14    14    15   ar
    15     9    15   ar
    16     1    16    1
    17     1    17    1
    18     1    18    1
    19     2    19    1
    20     2    20    1
    21     3    21    1
    22     7    22    1
    23     7    23    1
    24     7    24    1
    25     8    25    1
    26     8    26    1
    27    10    27    1
    28    11    28    1
    29    13    29    1
    30    14    30    1
    31    15    31    1
