REMARK  12 active torsions:
REMARK  status: ('A' for Active; 'I' for Inactive)
REMARK    1  A    between atoms: C_2  and  C_3 
REMARK    2  A    between atoms: C_4  and  C_5 
REMARK    3  A    between atoms: C_5  and  O_7 
REMARK    4  A    between atoms: C_12  and  C_13 
REMARK    5  A    between atoms: N_14  and  C_13 
REMARK    6  A    between atoms: N_14  and  C_26 
REMARK    7  A    between atoms: N_14  and  C_15 
REMARK    8  A    between atoms: C_16  and  C_15 
REMARK    9  A    between atoms: C_16  and  C_18 
REMARK   10  A    between atoms: C_16  and  O_17 
REMARK   11  A    between atoms: C_18  and  O_19 
REMARK   12  A    between atoms: O_19  and  C_20 
ROOT
ATOM      1  N   UNL d   1       1.705   4.483   0.268  0.00  0.00    -0.058 N 
ATOM      2  H   UNL d   1       1.182   5.381   0.226  0.00  0.00     0.281 HD
ENDROOT
BRANCH   1   3
ATOM      3  C   UNL d   1       2.803   4.658  -0.772  0.00  0.00     0.188 C 
ATOM      4  C   UNL d   1       4.136   4.166  -0.193  0.00  0.00     0.033 C 
ATOM      5  C   UNL d   1       5.286   4.215  -1.141  0.00  0.00     0.002 C 
ATOM      6  C   UNL d   1       4.932   3.459  -2.396  0.00  0.00     0.000 C 
ATOM      7  C   UNL d   1       3.662   4.022  -3.033  0.00  0.00     0.002 C 
ATOM      8  C   UNL d   1       2.493   3.929  -2.072  0.00  0.00     0.033 C 
ENDBRANCH   1   3
BRANCH   1   9
ATOM      9  C   UNL d   1       0.601   3.457   0.024  0.00  0.00     0.269 C 
BRANCH   9  10
ATOM     10  C   UNL d   1       0.329   2.486   1.175  0.00  0.00     0.168 C 
BRANCH  10  11
ATOM     11  C   UNL d   1      -0.453   3.114   2.354  0.00  0.00     0.209 C 
BRANCH  11  12
ATOM     12  O   UNL d   1      -0.037   4.428   2.667  0.00  0.00    -0.349 OA
BRANCH  12  13
ATOM     13  C   UNL d   1      -0.289   4.955   3.891  0.00  0.00     0.068 C 
ATOM     14  C   UNL d   1      -0.321   6.326   3.868  0.00  0.00     0.037 C 
ATOM     15  C   UNL d   1      -0.214   7.024   5.059  0.00  0.00     0.003 C 
ATOM     16  C   UNL d   1      -0.212   6.426   6.293  0.00  0.00     0.000 C 
ATOM     17  C   UNL d   1      -0.325   5.057   6.322  0.00  0.00     0.003 C 
ATOM     18  C   UNL d   1      -0.321   4.315   5.123  0.00  0.00     0.037 C 
ENDBRANCH  12  13
ENDBRANCH  11  12
ENDBRANCH  10  11
BRANCH  10  19
ATOM     19  O   UNL d   1      -0.405   1.363   0.683  0.00  0.00    -0.392 OA
ATOM     20  H   UNL d   1      -1.309   1.647   0.454  0.00  0.00     0.210 HD
ENDBRANCH  10  19
ENDBRANCH   9  10
ENDBRANCH   1   9
BRANCH   1  21
ATOM     21  C   UNL d   1       2.304   4.547   1.654  0.00  0.00     0.313 C 
BRANCH  21  22
ATOM     22  C   UNL d   1       2.354   5.943   2.217  0.00  0.00     0.134 C 
ATOM     23  N   UNL d   1       1.904   7.004   1.605  0.00  0.00    -0.225 NA
ATOM     24  C   UNL d   1       1.821   8.128   2.412  0.00  0.00     0.116 A 
ATOM     25  S   UNL d   1       0.849   9.482   1.969  0.00  0.00    -0.063 SA
ATOM     26  C   UNL d   1       2.191   8.205   3.749  0.00  0.00     0.076 A 
ATOM     27  C   UNL d   1       0.955  10.246   3.523  0.00  0.00     0.089 A 
ATOM     28  C   UNL d   1       1.683   9.442   4.410  0.00  0.00    -0.017 A 
ATOM     29  C   UNL d   1       2.707   6.941   4.326  0.00  0.00     0.260 C 
ATOM     30  N   UNL d   1       2.893   5.918   3.464  0.00  0.00    -0.309 N 
ATOM     31  O   UNL d   1       2.763   6.577   5.497  0.00  0.00    -0.267 OA
ATOM     32  H   UNL d   1       2.910   5.045   3.986  0.00  0.00     0.170 HD
BRANCH  27  33
ATOM     33  C   UNL d   1       0.265  11.556   3.721  0.00  0.00     0.300 C 
ATOM     34  O   UNL d   1      -0.270  12.231   2.876  0.00  0.00    -0.259 OA
BRANCH  33  35
ATOM     35  O   UNL d   1       0.364  11.943   5.037  0.00  0.00    -0.322 OA
ATOM     36  C   UNL d   1       0.025  13.298   5.367  0.00  0.00     0.213 C 
ENDBRANCH  33  35
ENDBRANCH  27  33
BRANCH  28  37
ATOM     37  C   UNL d   1       1.744   9.693   5.918  0.00  0.00     0.037 C 
ATOM     38  C   UNL d   1       3.034   9.209   6.507  0.00  0.00     0.010 C 
ENDBRANCH  28  37
ENDBRANCH  21  22
ENDBRANCH   1  21
TORSDOF 12
