REMARK  7 active torsions:
REMARK  status: ('A' for Active; 'I' for Inactive)
REMARK    1  A    between atoms: O_2  and  C_3 
REMARK    2  A    between atoms: C_6  and  C_7 
REMARK       I    between atoms: C_7  and  N_9 
REMARK       I    between atoms: C_10  and  N_11 
REMARK       I    between atoms: C_10  and  N_23 
REMARK    3  A    between atoms: N_11  and  C_12 
REMARK    4  A    between atoms: C_12  and  C_13 
REMARK    5  A    between atoms: C_13  and  C_14 
REMARK    6  A    between atoms: N_23  and  C_24 
REMARK    7  A    between atoms: C_33  and  O_34 
ROOT
ATOM      1  C   UNL d   1       5.342  -3.918  -2.662  0.00  0.00     0.294 C 
ATOM      2  O   UNL d   1       6.114  -4.248  -1.780  0.00  0.00    -0.265 OA
ATOM      3  N   UNL d   1       5.075  -4.499  -3.911  0.00  0.00    -0.023 NA
ATOM      4  C   UNL d   1       5.844  -5.403  -4.479  0.00  0.00     0.704 C 
ATOM      5  N   UNL d   1       7.043  -5.902  -4.022  0.00  0.00    -0.224 N 
ATOM      6  N   UNL d   1       5.527  -5.936  -5.730  0.00  0.00    -0.190 N 
ATOM      7  H   UNL d   1       7.524  -6.580  -4.593  0.00  0.00     0.177 HD
ATOM      8  H   UNL d   1       4.726  -5.523  -6.197  0.00  0.00     0.184 HD
ENDROOT
BRANCH   5   9
ATOM      9  C   UNL d   1       7.422  -5.812  -2.655  0.00  0.00     0.142 C 
BRANCH   9  10
ATOM     10  C   UNL d   1       8.510  -6.619  -2.094  0.00  0.00     0.057 C 
BRANCH  10  11
ATOM     11  C   UNL d   1       8.912  -6.144  -0.719  0.00  0.00    -0.048 A 
ATOM     12  C   UNL d   1       9.887  -6.818  -0.127  0.00  0.00    -0.006 A 
ATOM     13  C   UNL d   1      10.583  -7.952  -0.602  0.00  0.00     0.014 C 
ATOM     14  C   UNL d   1      10.105  -6.216   1.183  0.00  0.00     0.038 A 
ATOM     15  C   UNL d   1      11.392  -8.581   0.246  0.00  0.00     0.001 C 
ATOM     16  C   UNL d   1      11.677  -8.015   1.554  0.00  0.00     0.002 C 
ATOM     17  C   UNL d   1      11.102  -6.892   2.041  0.00  0.00     0.030 C 
ATOM     18  N   UNL d   1       9.363  -5.187   1.355  0.00  0.00    -0.385 N 
ATOM     19  C   UNL d   1       8.425  -5.025   0.181  0.00  0.00     0.155 A 
ATOM     20  H   UNL d   1       9.438  -4.590   2.180  0.00  0.00     0.160 HD
ENDBRANCH  10  11
ENDBRANCH   9  10
ENDBRANCH   5   9
BRANCH   6  21
ATOM     21  C   UNL d   1       6.069  -7.063  -6.423  0.00  0.00     0.056 A 
ATOM     22  C   UNL d   1       6.374  -6.939  -7.798  0.00  0.00     0.054 A 
ATOM     23  C   UNL d   1       6.942  -8.004  -8.516  0.00  0.00     0.036 A 
ATOM     24 CL   UNL d   1       7.146  -7.901 -10.224  0.00  0.00    -0.084 Cl
ATOM     25  C   UNL d   1       7.308  -9.176  -7.870  0.00  0.00     0.024 A 
ATOM     26  C   UNL d   1       7.005  -9.327  -6.522  0.00  0.00     0.011 A 
ATOM     27  C   UNL d   1       6.356  -8.305  -5.798  0.00  0.00    -0.035 A 
ATOM     28  C   UNL d   1       5.943  -8.633  -4.387  0.00  0.00     0.050 C 
ENDBRANCH   6  21
BRANCH   1  29
ATOM     29  C   UNL d   1       4.584  -2.821  -2.081  0.00  0.00     0.037 A 
ATOM     30  C   UNL d   1       4.932  -2.416  -0.765  0.00  0.00     0.020 A 
ATOM     31  C   UNL d   1       4.141  -1.539  -0.055  0.00  0.00     0.040 A 
ATOM     32  C   UNL d   1       3.046  -0.951  -0.686  0.00  0.00     0.101 A 
ATOM     33  C   UNL d   1       2.763  -1.301  -2.041  0.00  0.00     0.102 A 
ATOM     34  C   UNL d   1       3.520  -2.260  -2.718  0.00  0.00     0.056 A 
BRANCH  32  35
ATOM     35  O   UNL d   1       2.551   0.084   0.067  0.00  0.00    -0.353 OA
ATOM     36  C   UNL d   1       1.181   0.084   0.448  0.00  0.00     0.210 C 
ENDBRANCH  32  35
BRANCH  33  37
ATOM     37  O   UNL d   1       1.849  -0.820  -2.937  0.00  0.00    -0.353 OA
ATOM     38  C   UNL d   1       0.891   0.025  -2.386  0.00  0.00     0.210 C 
ENDBRANCH  33  37
ENDBRANCH   1  29
TORSDOF 7
