@<TRIPOS>MOLECULE
*****
 62 66 0 0 0
SMALL
GASTEIGER

@<TRIPOS>ATOM
      1 O           2.9071   -3.6221   -0.8850 O.co2   1  TRP1       -0.5479
      2 C           2.6838   -2.4183   -1.2095 C.2     1  TRP1        0.0623
      3 OXT         2.3305   -1.9485   -2.3280 O.co2   1  TRP1       -0.5479
      4 CA          3.0016   -1.3744   -0.0943 C.3     1  TRP1        0.0667
      5 CB          2.1416   -0.0941   -0.0932 C.3     1  TRP1       -0.0019
      6 CG          0.6912   -0.2803   -0.4045 C.ar    1  TRP1       -0.0203
      7 CD1         0.0159   -1.4813   -0.4757 C.ar    1  TRP1        0.0060
      8 NE1        -1.1934   -1.2563   -1.0520 N.ar    1  TRP1       -0.3604
      9 CE2        -1.4112    0.0923   -1.1689 C.ar    1  TRP1        0.0467
     10 CZ2        -2.5283    0.7759   -1.6458 C.ar    1  TRP1       -0.0378
     11 CH2        -2.4599    2.1703   -1.6733 C.ar    1  TRP1       -0.0598
     12 CZ3        -1.3178    2.8488   -1.2482 C.ar    1  TRP1       -0.0611
     13 CE3        -0.1994    2.1455   -0.7906 C.ar    1  TRP1       -0.0523
     14 CD2        -0.2475    0.7380   -0.7490 C.ar    1  TRP1        0.0029
     15 N           4.4635   -1.1249   -0.1432 N.am    1  TRP1       -0.3055
     16 C           5.3144   -2.0366    0.4476 C.2     0  UNK0        0.2345
     17 O           4.8846   -2.9166    1.2096 O.2     0  UNK0       -0.2737
     18 C           6.8324   -1.8518    0.3183 C.3     0  UNK0        0.1103
     19 C           7.2078   -0.8146    1.4619 C.3     0  UNK0       -0.0003
     20 C           6.5310    0.5542    1.4446 C.ar    0  UNK0       -0.0451
     21 C           7.2295    1.7462    1.2418 C.ar    0  UNK0       -0.0585
     22 C           6.5409    2.9689    1.1938 C.ar    0  UNK0       -0.0615
     23 C           5.1531    2.9965    1.1465 C.ar    0  UNK0       -0.0617
     24 C           4.4629    1.8300    1.3784 C.ar    0  UNK0       -0.0615
     25 C           5.1589    0.6648    1.6808 C.ar    0  UNK0       -0.0585
     26 N           7.6518   -3.1517    0.3751 N.am    0  UNK0       -0.2445
     27 C           9.0313   -3.0517    0.5772 C.2     0  UNK0        0.2521
     28 O           9.6798   -1.9979    0.5107 O.2     0  UNK0       -0.2698
     29 C           9.7946   -4.2937    0.8207 C.ar    0  UNK0        0.0579
     30 C          10.9760   -4.3280    1.5567 C.ar    0  UNK0       -0.0478
     31 C          11.7289   -5.5009    1.5738 C.ar    0  UNK0       -0.0609
     32 C          11.2961   -6.6198    0.8558 C.ar    0  UNK0       -0.0600
     33 C          10.0949   -6.5779    0.1406 C.ar    0  UNK0       -0.0400
     34 C           9.3028   -5.4319    0.1926 C.ar    0  UNK0        0.0424
     35 N           7.9928   -5.4267   -0.2276 N.pl3   0  UNK0       -0.3031
     36 C           7.1080   -4.5151    0.4707 C.3     0  UNK0        0.1965
     37 O           5.9092   -4.7626   -0.1867 O.3     0  UNK0       -0.3588
     38 HA          2.8000   -1.8316    0.8881 H       1  TRP1        0.0563
     39 HB1         2.1429    0.3387    0.9161 H       1  TRP1        0.0335
     40 HB2         2.5744    0.6613   -0.7616 H       1  TRP1        0.0335
     41 HD1         0.3581   -2.4972   -0.3285 H       1  TRP1        0.0810
     42 HE1        -1.8067   -1.9896   -1.3723 H       1  TRP1        0.1653
     43 HZ2        -3.4062    0.2397   -1.9854 H       1  TRP1        0.0638
     44 HH2        -3.3131    2.7310   -2.0412 H       1  TRP1        0.0618
     45 HZ3        -1.2872    3.9337   -1.2827 H       1  TRP1        0.0618
     46 HE3         0.6947    2.6737   -0.4738 H       1  TRP1        0.0624
     47 H           4.7900   -0.3030   -0.6409 H       1  TRP1        0.1494
     48 H           7.0658   -1.4150   -0.6601 H       0  UNK0        0.0601
     49 H           8.2809   -0.6201    1.4651 H       0  UNK0        0.0336
     50 H           6.9937   -1.2720    2.4364 H       0  UNK0        0.0336
     51 H           8.3125    1.7449    1.1520 H       0  UNK0        0.0620
     52 H           7.0826    3.9075    1.1925 H       0  UNK0        0.0618
     53 H           4.5955    3.9121    0.9837 H       0  UNK0        0.0618
     54 H           3.3817    1.8358    1.3409 H       0  UNK0        0.0618
     55 H           4.5851   -0.2065    1.9907 H       0  UNK0        0.0620
     56 H          11.2836   -3.4571    2.1269 H       0  UNK0        0.0626
     57 H          12.6602   -5.5391    2.1316 H       0  UNK0        0.0618
     58 H          11.8722   -7.5412    0.8918 H       0  UNK0        0.0618
     59 H           9.7487   -7.4635   -0.3867 H       0  UNK0        0.0636
     60 H           7.7407   -5.5904   -1.1935 H       0  UNK0        0.1501
     61 H           7.0756   -4.8077    1.5329 H       0  UNK0        0.1036
     62 H           5.2180   -4.1382    0.0977 H       0  UNK0        0.2134
@<TRIPOS>UNITY_ATOM_ATTR
3 1
charge -1
@<TRIPOS>BOND
     1     1     2   ar
     2     2     3   ar
     3     5     6    1
     4     6     7   ar
     5     7     8   ar
     6     8     9   ar
     7     9    10   ar
     8    10    11   ar
     9    11    12   ar
    10    12    13   ar
    11    13    14   ar
    12     6    14   ar
    13     9    14   ar
    14     4    15    1
    15    15    16   am
    16    16    17    2
    17    16    18    1
    18    18    19    1
    19    19    20    1
    20    20    21   ar
    21    21    22   ar
    22    22    23   ar
    23    23    24   ar
    24    24    25   ar
    25    20    25   ar
    26    18    26    1
    27    26    27   am
    28    27    28    2
    29    27    29    1
    30    29    30   ar
    31    30    31   ar
    32    31    32   ar
    33    32    33   ar
    34    33    34   ar
    35    29    34   ar
    36    34    35    1
    37    35    36    1
    38    26    36    1
    39    36    37    1
    40     4     5    1
    41     4     2    1
    42     4    38    1
    43     5    39    1
    44     5    40    1
    45     7    41    1
    46     8    42    1
    47    10    43    1
    48    11    44    1
    49    12    45    1
    50    13    46    1
    51    15    47    1
    52    18    48    1
    53    19    49    1
    54    19    50    1
    55    21    51    1
    56    22    52    1
    57    23    53    1
    58    24    54    1
    59    25    55    1
    60    30    56    1
    61    31    57    1
    62    32    58    1
    63    33    59    1
    64    35    60    1
    65    36    61    1
    66    37    62    1
