REMARK  10 active torsions:
REMARK  status: ('A' for Active; 'I' for Inactive)
REMARK    1  A    between atoms: C_2  and  C_3 
REMARK       I    between atoms: C_2  and  N_19 
REMARK    2  A    between atoms: C_3  and  O_4 
REMARK    3  A    between atoms: O_4  and  C_5 
REMARK    4  A    between atoms: C_5  and  C_7 
REMARK    5  A    between atoms: C_7  and  C_8 
REMARK    6  A    between atoms: C_8  and  C_9 
REMARK    7  A    between atoms: C_9  and  C_10 
REMARK    8  A    between atoms: N_19  and  C_20 
REMARK    9  A    between atoms: C_25  and  C_26 
REMARK       I    between atoms: C_26  and  N_28 
REMARK   10  A    between atoms: N_28  and  C_29 
ROOT
ATOM      1  O   UNL d   1       0.978  -0.024   0.105  0.00  0.00    -0.271 OA
ATOM      2  C   UNL d   1       2.203   0.014  -0.025  0.00  0.00     0.246 C 
ATOM      3  N   UNL d   1       2.973   0.184   1.112  0.00  0.00    -0.324 N 
ATOM      4  H   UNL d   1       2.438   0.278   1.972  0.00  0.00     0.169 HD
ENDROOT
BRANCH   3   5
ATOM      5  C   UNL d   1       4.378   0.089   1.209  0.00  0.00     0.050 C 
ATOM      6  C   UNL d   1       5.141   0.818   0.289  0.00  0.00     0.030 C 
ATOM      7  C   UNL d   1       6.511   0.627   0.166  0.00  0.00     0.002 C 
ATOM      8  C   UNL d   1       7.168  -0.175   1.082  0.00  0.00     0.001 C 
ATOM      9  C   UNL d   1       6.449  -0.768   2.123  0.00  0.00     0.019 C 
ATOM     10  C   UNL d   1       5.042  -0.681   2.185  0.00  0.00     0.059 C 
BRANCH  10  11
ATOM     11  C   UNL d   1       4.395  -1.502   3.271  0.00  0.00     0.258 C 
ATOM     12  O   UNL d   1       5.083  -2.160   4.021  0.00  0.00    -0.267 OA
ATOM     13  N   UNL d   1       3.009  -1.513   3.276  0.00  0.00    -0.323 N 
ATOM     14  H   UNL d   1       2.586  -1.434   2.362  0.00  0.00     0.169 HD
BRANCH  13  15
ATOM     15  C   UNL d   1       2.292  -2.351   4.132  0.00  0.00     0.037 C 
ATOM     16  C   UNL d   1       2.482  -2.513   5.511  0.00  0.00     0.032 C 
ATOM     17  C   UNL d   1       1.528  -3.274   6.227  0.00  0.00     0.042 C 
ATOM     18  C   UNL d   1       0.676  -4.052   5.460  0.00  0.00     0.105 C 
ATOM     19  C   UNL d   1       0.995  -4.232   4.155  0.00  0.00     0.107 C 
ATOM     20  O   UNL d   1      -0.563  -4.626   5.635  0.00  0.00    -0.323 OA
ATOM     21  C   UNL d   1       1.371  -3.129   3.486  0.00  0.00     0.069 C 
ATOM     22  O   UNL d   1       0.355  -5.263   3.558  0.00  0.00    -0.323 OA
ATOM     23  C   UNL d   1      -0.860  -5.019   4.241  0.00  0.00     0.352 C 
ENDBRANCH  13  15
ENDBRANCH  10  11
ENDBRANCH   3   5
BRANCH   2  24
ATOM     24  C   UNL d   1       2.885  -0.199  -1.390  0.00  0.00     0.281 C 
BRANCH  24  25
ATOM     25  O   UNL d   1       1.964  -0.347  -2.475  0.00  0.00    -0.312 OA
BRANCH  25  26
ATOM     26  C   UNL d   1       2.591  -0.394  -3.689  0.00  0.00     0.259 C 
ATOM     27  O   UNL d   1       3.785  -0.372  -3.861  0.00  0.00    -0.265 OA
BRANCH  26  28
ATOM     28  C   UNL d   1       1.563  -0.468  -4.803  0.00  0.00     0.111 C 
BRANCH  28  29
ATOM     29  C   UNL d   1       2.271  -0.572  -6.152  0.00  0.00     0.014 C 
BRANCH  29  30
ATOM     30  C   UNL d   1       1.283  -0.650  -7.310  0.00  0.00     0.037 C 
BRANCH  30  31
ATOM     31  C   UNL d   1       2.018  -0.687  -8.608  0.00  0.00    -0.050 A 
ATOM     32  C   UNL d   1       2.459   0.367  -9.299  0.00  0.00    -0.006 A 
ATOM     33  C   UNL d   1       2.409   1.772  -9.079  0.00  0.00     0.014 A 
ATOM     34  C   UNL d   1       3.133  -0.205 -10.478  0.00  0.00     0.038 A 
ATOM     35  C   UNL d   1       2.979   2.580  -9.985  0.00  0.00     0.001 A 
ATOM     36  C   UNL d   1       3.640   2.049 -11.169  0.00  0.00     0.002 A 
ATOM     37  C   UNL d   1       3.739   0.733 -11.443  0.00  0.00     0.030 A 
ATOM     38  N   UNL d   1       3.090  -1.481 -10.485  0.00  0.00    -0.385 N 
ATOM     39  C   UNL d   1       2.377  -1.975  -9.287  0.00  0.00     0.155 A 
ATOM     40  H   UNL d   1       3.498  -2.055 -11.221  0.00  0.00     0.160 HD
ENDBRANCH  30  31
ENDBRANCH  29  30
ENDBRANCH  28  29
ENDBRANCH  26  28
ENDBRANCH  25  26
ENDBRANCH  24  25
ENDBRANCH   2  24
TORSDOF 10
