REMARK  10 active torsions:
REMARK  status: ('A' for Active; 'I' for Inactive)
REMARK    1  A    between atoms: C_2  and  C_3 
REMARK    2  A    between atoms: C_3  and  O_4 
REMARK    3  A    between atoms: O_4  and  C_5 
REMARK    4  A    between atoms: C_8  and  C_9 
REMARK       I    between atoms: C_9  and  N_11 
REMARK    5  A    between atoms: N_11  and  N_12 
REMARK       I    between atoms: N_12  and  C_13 
REMARK       I    between atoms: C_13  and  N_15 
REMARK    6  A    between atoms: N_15  and  C_16 
REMARK    7  A    between atoms: C_16  and  C_17 
REMARK    8  A    between atoms: C_17  and  C_18 
REMARK    9  A    between atoms: C_18  and  N_19 
REMARK   10  A    between atoms: C_25  and  O_26 
ROOT
ATOM      1  C   UNL d   1       8.417   0.014  -5.362  0.00  0.00     0.270 C 
ATOM      2  O   UNL d   1       9.420  -0.678  -5.287  0.00  0.00    -0.266 OA
ATOM      3  N   UNL d   1       8.146   0.795  -6.499  0.00  0.00    -0.262 N 
ATOM      4  H   UNL d   1       7.318   1.368  -6.620  0.00  0.00     0.190 HD
ENDROOT
BRANCH   3   5
ATOM      5  N   UNL d   1       9.037   0.779  -7.629  0.00  0.00    -0.249 N 
ATOM      6  C   UNL d   1       8.727   1.567  -8.734  0.00  0.00     0.334 C 
ATOM      7  O   UNL d   1       7.725   2.263  -8.792  0.00  0.00    -0.246 OA
ATOM      8  N   UNL d   1       9.646   1.506  -9.774  0.00  0.00    -0.342 N 
ATOM      9  H   UNL d   1      10.457   0.914  -9.672  0.00  0.00     0.164 HD
ATOM     10  H   UNL d   1       9.852   0.182  -7.543  0.00  0.00     0.192 HD
BRANCH   8  11
ATOM     11  C   UNL d   1       9.451   2.294 -10.998  0.00  0.00     0.126 C 
BRANCH  11  12
ATOM     12  C   UNL d   1      10.562   2.110 -12.039  0.00  0.00     0.040 C 
BRANCH  12  13
ATOM     13  C   UNL d   1      10.327   2.933 -13.314  0.00  0.00     0.130 C 
BRANCH  13  14
ATOM     14  N   UNL d   1      11.404   2.729 -14.309  0.00  0.00    -0.352 N 
ATOM     15  C   UNL d   1      11.826   1.503 -14.819  0.00  0.00     0.108 A 
ATOM     16  C   UNL d   1      12.833   1.760 -15.704  0.00  0.00     0.106 A 
ATOM     17  N   UNL d   1      12.979   3.125 -15.733  0.00  0.00    -0.361 N 
ATOM     18  C   UNL d   1      12.112   3.710 -14.899  0.00  0.00     0.182 A 
ATOM     19  H   UNL d   1      13.649   3.630 -16.309  0.00  0.00     0.166 HD
ENDBRANCH  13  14
ENDBRANCH  12  13
ENDBRANCH  11  12
ENDBRANCH   8  11
ENDBRANCH   3   5
BRANCH   1  20
ATOM     20  C   UNL d   1       7.402   0.017  -4.220  0.00  0.00     0.036 A 
ATOM     21  C   UNL d   1       7.586  -0.790  -3.088  0.00  0.00     0.020 A 
ATOM     22  C   UNL d   1       6.592  -0.883  -2.074  0.00  0.00     0.040 A 
ATOM     23  C   UNL d   1       5.401  -0.122  -2.102  0.00  0.00     0.102 A 
ATOM     24  C   UNL d   1       5.250   0.744  -3.215  0.00  0.00     0.102 A 
ATOM     25  C   UNL d   1       6.238   0.781  -4.244  0.00  0.00     0.056 A 
BRANCH  23  26
ATOM     26  O   UNL d   1       4.681  -0.208  -0.909  0.00  0.00    -0.345 OA
BRANCH  26  27
ATOM     27  C   UNL d   1       3.287  -0.532  -0.957  0.00  0.00     0.202 C 
BRANCH  27  28
ATOM     28  C   UNL d   1       2.466  -0.424   0.303  0.00  0.00    -0.011 C 
ATOM     29  C   UNL d   1       1.132  -0.222   0.203  0.00  0.00     0.009 C 
ENDBRANCH  27  28
ENDBRANCH  26  27
ENDBRANCH  23  26
BRANCH  24  30
ATOM     30  O   UNL d   1       4.310   1.696  -3.545  0.00  0.00    -0.353 OA
ATOM     31  C   UNL d   1       3.147   1.718  -2.779  0.00  0.00     0.210 C 
ENDBRANCH  24  30
ENDBRANCH   1  20
TORSDOF 10
