REMARK  4 active torsions:
REMARK  status: ('A' for Active; 'I' for Inactive)
REMARK    1  A    between atoms: C_5  and  O_6 
REMARK    2  A    between atoms: C_7  and  C_8 
REMARK       I    between atoms: C_8  and  N_10 
REMARK    3  A    between atoms: N_10  and  N_11 
REMARK    4  A    between atoms: N_11  and  C_12 
ROOT
ATOM      1  C   UNL d   1      -1.323  -2.650  -0.062  0.00  0.00     0.272 C 
ATOM      2  O   UNL d   1      -2.552  -2.735  -0.122  0.00  0.00    -0.266 OA
ATOM      3  N   UNL d   1      -0.537  -3.810  -0.018  0.00  0.00    -0.265 N 
ATOM      4  H   UNL d   1       0.461  -3.814  -0.172  0.00  0.00     0.190 HD
ENDROOT
BRANCH   3   5
ATOM      5  N   UNL d   1      -1.189  -5.036  -0.197  0.00  0.00    -0.295 N 
ATOM      6  H   UNL d   1      -2.195  -5.016  -0.378  0.00  0.00     0.187 HD
BRANCH   5   7
ATOM      7  C   UNL d   1      -0.469  -6.237  -0.207  0.00  0.00     0.086 A 
ATOM      8  C   UNL d   1       0.648  -6.447   0.615  0.00  0.00     0.037 A 
ATOM      9  C   UNL d   1       1.342  -7.665   0.591  0.00  0.00     0.045 A 
ATOM     10  C   UNL d   1       0.953  -8.669  -0.287  0.00  0.00     0.119 A 
ATOM     11  F   UNL d   1       1.622  -9.830  -0.303  0.00  0.00    -0.206 F 
ATOM     12  C   UNL d   1      -0.119  -8.482  -1.145  0.00  0.00     0.086 A 
ATOM     13  C   UNL d   1      -0.819  -7.276  -1.095  0.00  0.00     0.147 A 
ATOM     14  F   UNL d   1      -1.849  -7.110  -1.939  0.00  0.00    -0.204 F 
ENDBRANCH   5   7
ENDBRANCH   3   5
BRANCH   1  15
ATOM     15  C   UNL d   1      -0.609  -1.308  -0.041  0.00  0.00     0.067 A 
ATOM     16  C   UNL d   1      -1.317  -0.087  -0.024  0.00  0.00     0.081 A 
ATOM     17  C   UNL d   1      -0.646   1.146  -0.038  0.00  0.00     0.038 A 
ATOM     18  C   UNL d   1       0.746   1.189  -0.033  0.00  0.00     0.009 A 
ATOM     19  C   UNL d   1       1.478   0.002  -0.006  0.00  0.00    -0.061 A 
ATOM     20  C   UNL d   1       2.978   0.027   0.068  0.00  0.00     0.048 C 
ATOM     21  C   UNL d   1       0.798  -1.232  -0.026  0.00  0.00     0.026 A 
BRANCH  16  22
ATOM     22  O   UNL d   1      -2.684  -0.059   0.025  0.00  0.00    -0.360 OA
ATOM     23  H   UNL d   1      -3.006   0.854   0.079  0.00  0.00     0.217 HD
ENDBRANCH  16  22
ENDBRANCH   1  15
TORSDOF 4
