@<TRIPOS>MOLECULE
*****
 36 37 0 0 0
SMALL
GASTEIGER

@<TRIPOS>ATOM
      1 C           1.2028   -0.5926   -0.0532 C.3     1  UNL1        0.0004
      2 N           2.6027   -0.1088   -0.0063 N.am    1  UNL1       -0.3144
      3 C           3.2515    0.8845   -0.7604 C.2     1  UNL1        0.2442
      4 O           4.3003    0.5385   -1.3371 O.2     1  UNL1       -0.2702
      5 C           2.8876    2.3869   -0.7626 C.ar    1  UNL1        0.0416
      6 C           3.6954    3.2973   -1.4574 C.ar    1  UNL1       -0.0493
      7 C           3.3907    4.6690   -1.4319 C.ar    1  UNL1       -0.0590
      8 C           2.2693    5.1483   -0.7236 C.ar    1  UNL1       -0.0360
      9 C           1.4470    4.2857    0.0069 C.ar    1  UNL1        0.0675
     10 N           0.3785    4.8169    0.7889 N.2     1  UNL1       -0.2546
     11 C          -0.6300    4.0951    1.1721 C.2     1  UNL1        0.0389
     12 C          -1.7528    4.4535    2.0425 C.ar    1  UNL1        0.0359
     13 C          -2.4304    3.4229    2.7360 C.ar    1  UNL1       -0.0313
     14 C          -3.6056    3.7226    3.4133 C.ar    1  UNL1        0.0418
     15 CL         -4.4596    2.4932    4.2659 Cl      1  UNL1       -0.0835
     16 C          -4.0998    5.0250    3.3853 C.ar    1  UNL1       -0.0399
     17 C          -3.4155    6.0346    2.6891 C.ar    1  UNL1       -0.0182
     18 C          -2.2394    5.7454    2.0157 C.ar    1  UNL1        0.1255
     19 O          -1.5874    6.6741    1.2683 O.3     1  UNL1       -0.5061
     20 C           1.8233    2.9343    0.0057 C.ar    1  UNL1       -0.0130
     21 C           1.0563    1.9540    0.7588 C.3     1  UNL1       -0.0370
     22 H           1.1542   -1.6383    0.2465 H       1  UNL1        0.0426
     23 H           0.7588   -0.4066   -1.0327 H       1  UNL1        0.0426
     24 H           0.5746   -0.1546    0.7315 H       1  UNL1        0.0426
     25 H           3.2456   -0.8525    0.2274 H       1  UNL1        0.1487
     26 H           4.5789    2.9578   -1.9996 H       1  UNL1        0.0625
     27 H           4.0339    5.3746   -1.9579 H       1  UNL1        0.0618
     28 H           2.0550    6.2152   -0.7235 H       1  UNL1        0.0639
     29 H          -0.8074    3.0672    0.8682 H       1  UNL1        0.0837
     30 H          -2.0656    2.3960    2.7374 H       1  UNL1        0.0640
     31 H          -5.0263    5.2632    3.8996 H       1  UNL1        0.0633
     32 H          -3.8213    7.0378    2.6616 H       1  UNL1        0.0655
     33 H          -1.9948    7.5455    1.3318 H       1  UNL1        0.2922
     34 H           0.4010    2.0872    1.6059 H       1  UNL1        0.0278
     35 H           1.8028    1.3917    1.3056 H       1  UNL1        0.0278
     36 H           0.4448    1.5428   -0.0588 H       1  UNL1        0.0278
@<TRIPOS>BOND
     1     1     2    1
     2     2     3   am
     3     3     4    2
     4     3     5    1
     5     5     6   ar
     6     6     7   ar
     7     7     8   ar
     8     8     9   ar
     9     9    10    1
    10    10    11    2
    11    11    12    1
    12    12    13   ar
    13    13    14   ar
    14    14    15    1
    15    14    16   ar
    16    16    17   ar
    17    17    18   ar
    18    12    18   ar
    19    18    19    1
    20     9    20   ar
    21     5    20   ar
    22    20    21    1
    23     1    22    1
    24     1    23    1
    25     1    24    1
    26     2    25    1
    27     6    26    1
    28     7    27    1
    29     8    28    1
    30    11    29    1
    31    13    30    1
    32    16    31    1
    33    17    32    1
    34    19    33    1
    35    21    34    1
    36    21    35    1
    37    21    36    1
