@<TRIPOS>MOLECULE
*****
 46 46 0 0 0
SMALL
GASTEIGER

@<TRIPOS>ATOM
      1 C           1.0535    0.0563    0.0697 C.3     1  UNL1       -0.0375
      2 C           2.5796    0.0368    0.0678 C.3     1  UNL1        0.0679
      3 O           3.0474    0.4006    1.3688 O.3     1  UNL1       -0.3905
      4 C           3.1181   -1.3518   -0.3246 C.3     1  UNL1        0.0378
      5 N           4.5698   -1.4307   -0.3541 N.am    1  UNL1       -0.3051
      6 C           5.2438   -2.5968   -0.6751 C.2     1  UNL1        0.2994
      7 O           4.7124   -3.6627   -0.9751 O.2     1  UNL1       -0.2652
      8 C           6.7865   -2.4889   -0.6312 C.2     1  UNL1        0.3031
      9 O           7.2775   -1.4179   -0.2844 O.2     1  UNL1       -0.2648
     10 N           7.4838   -3.6258   -1.0401 N.am    1  UNL1       -0.2777
     11 C           8.8938   -3.7257   -0.9981 C.ar    1  UNL1        0.0345
     12 C           9.6026   -4.4454   -1.9652 C.ar    1  UNL1       -0.0404
     13 C          10.9964   -4.5702   -1.8701 C.ar    1  UNL1       -0.0593
     14 C          11.6827   -3.9657   -0.8163 C.ar    1  UNL1       -0.0495
     15 C          10.9774   -3.2674    0.1729 C.ar    1  UNL1        0.0385
     16 C          11.7314   -2.7279    1.3357 C.2     1  UNL1        0.2445
     17 O          12.9514   -2.8804    1.3562 O.2     1  UNL1       -0.2702
     18 N          11.0222   -2.1020    2.3501 N.am    1  UNL1       -0.3066
     19 C          11.6656   -1.5419    3.5436 C.3     1  UNL1        0.0265
     20 C          12.3711   -2.6535    4.3333 C.3     1  UNL1       -0.0442
     21 C          12.6576   -0.4446    3.1353 C.3     1  UNL1       -0.0442
     22 C          10.6033   -0.9062    4.4634 C.3     1  UNL1       -0.0442
     23 C           9.5911   -3.1457    0.0627 C.ar    1  UNL1       -0.0284
     24 H           0.6769    1.0429    0.3624 H       1  UNL1        0.0255
     25 H           0.6513   -0.6587    0.7964 H       1  UNL1        0.0255
     26 H           0.6520   -0.1893   -0.9184 H       1  UNL1        0.0255
     27 H           2.9498    0.7969   -0.6290 H       1  UNL1        0.0606
     28 H           2.7121   -0.2561    2.0041 H       1  UNL1        0.2098
     29 H           2.7492   -1.6329   -1.3168 H       1  UNL1        0.0487
     30 H           2.7720   -2.1047    0.3928 H       1  UNL1        0.0487
     31 H           5.1239   -0.6184   -0.0819 H       1  UNL1        0.1492
     32 H           6.9476   -4.3908   -1.4413 H       1  UNL1        0.1553
     33 H           9.1040   -4.8604   -2.8369 H       1  UNL1        0.0636
     34 H          11.5562   -5.1387   -2.6107 H       1  UNL1        0.0618
     35 H          12.7688   -4.0481   -0.7615 H       1  UNL1        0.0625
     36 H          10.0223   -1.9899    2.2863 H       1  UNL1        0.1495
     37 H          13.1414   -3.1550    3.7411 H       1  UNL1        0.0250
     38 H          11.6552   -3.4232    4.6463 H       1  UNL1        0.0250
     39 H          12.8582   -2.2540    5.2278 H       1  UNL1        0.0250
     40 H          13.4448   -0.8246    2.4785 H       1  UNL1        0.0250
     41 H          13.1482   -0.0092    4.0106 H       1  UNL1        0.0250
     42 H          12.1455    0.3579    2.5909 H       1  UNL1        0.0250
     43 H           9.8618   -1.6427    4.7942 H       1  UNL1        0.0250
     44 H          10.0602   -0.1005    3.9560 H       1  UNL1        0.0250
     45 H          11.0698   -0.4792    5.3596 H       1  UNL1        0.0250
     46 H           9.0215   -2.6382    0.8271 H       1  UNL1        0.0644
@<TRIPOS>BOND
     1     1     2    1
     2     2     3    1
     3     2     4    1
     4     4     5    1
     5     5     6   am
     6     6     7    2
     7     6     8    1
     8     8     9    2
     9     8    10   am
    10    10    11    1
    11    11    12   ar
    12    12    13   ar
    13    13    14   ar
    14    14    15   ar
    15    15    16    1
    16    16    17    2
    17    16    18   am
    18    18    19    1
    19    19    20    1
    20    19    21    1
    21    19    22    1
    22    15    23   ar
    23    11    23   ar
    24     1    24    1
    25     1    25    1
    26     1    26    1
    27     2    27    1
    28     3    28    1
    29     4    29    1
    30     4    30    1
    31     5    31    1
    32    10    32    1
    33    12    33    1
    34    13    34    1
    35    14    35    1
    36    18    36    1
    37    20    37    1
    38    20    38    1
    39    20    39    1
    40    21    40    1
    41    21    41    1
    42    21    42    1
    43    22    43    1
    44    22    44    1
    45    22    45    1
    46    23    46    1
