REMARK  10 active torsions:
REMARK  status: ('A' for Active; 'I' for Inactive)
REMARK    1  A    between atoms: N_1  and  C_2 
REMARK    2  A    between atoms: C_6  and  C_7 
REMARK       I    between atoms: C_7  and  N_9 
REMARK    3  A    between atoms: N_9  and  C_10 
REMARK    4  A    between atoms: C_10  and  C_11 
REMARK    5  A    between atoms: C_11  and  N_12 
REMARK    6  A    between atoms: N_12  and  C_13 
REMARK    7  A    between atoms: C_13  and  C_14 
REMARK    8  A    between atoms: C_20  and  O_21 
REMARK    9  A    between atoms: O_21  and  C_22 
REMARK   10  A    between atoms: C_22  and  C_23 
ROOT
ATOM      1  C   UNL d   1       5.873  -5.945  -0.193  0.00  0.00     0.273 C 
ENDROOT
BRANCH   1   2
ATOM      2  N   UNL d   1       4.518  -5.557  -0.422  0.00  0.00    -0.070 N 
ATOM      3  H   UNL d   1       4.223  -6.163  -1.205  0.00  0.00     0.277 HD
ATOM      4  H   UNL d   1       4.272  -5.925   0.485  0.00  0.00     0.277 HD
BRANCH   2   5
ATOM      5  C   UNL d   1       3.972  -4.188  -0.478  0.00  0.00     0.252 C 
BRANCH   5   6
ATOM      6  C   UNL d   1       2.420  -4.137  -0.678  0.00  0.00     0.150 C 
BRANCH   6   7
ATOM      7  N   UNL d   1       1.766  -2.831  -0.512  0.00  0.00    -0.354 N 
ATOM      8  C   UNL d   1       0.405  -2.487  -0.491  0.00  0.00     0.276 C 
ATOM      9  O   UNL d   1      -0.484  -3.320  -0.773  0.00  0.00    -0.266 OA
ATOM     10  H   UNL d   1       2.312  -2.192   0.018  0.00  0.00     0.162 HD
BRANCH   8  11
ATOM     11  C   UNL d   1       0.040  -1.101  -0.153  0.00  0.00     0.201 A 
ATOM     12  N   UNL d   1      -1.241  -0.710  -0.029  0.00  0.00    -0.096 NA
ATOM     13  O   UNL d   1      -1.206   0.676   0.060  0.00  0.00    -0.104 OA
ATOM     14  N   UNL d   1       0.101   1.137   0.071  0.00  0.00    -0.085 NA
ATOM     15  C   UNL d   1       0.861   0.047  -0.013  0.00  0.00     0.188 A 
BRANCH  15  16
ATOM     16  N   UNL d   1       2.204   0.090  -0.022  0.00  0.00    -0.380 N 
ATOM     17  H   UNL d   1       2.659   0.994   0.027  0.00  0.00     0.158 HD
ATOM     18  H   UNL d   1       2.847  -0.666   0.089  0.00  0.00     0.158 HD
ENDBRANCH  15  16
ENDBRANCH   8  11
ENDBRANCH   6   7
ENDBRANCH   5   6
ENDBRANCH   2   5
ENDBRANCH   1   2
BRANCH   1  19
ATOM     19  C   UNL d   1       5.903  -7.460  -0.084  0.00  0.00     0.002 A 
ATOM     20  C   UNL d   1       7.248  -7.909  -0.134  0.00  0.00     0.030 A 
ATOM     21  C   UNL d   1       7.566  -9.254  -0.137  0.00  0.00     0.011 A 
ATOM     22 BR   UNL d   1       9.383  -9.758  -0.194  0.00  0.00    -0.051 Br
ATOM     23  C   UNL d   1       6.548 -10.191  -0.110  0.00  0.00     0.022 A 
ATOM     24  C   UNL d   1       5.203  -9.775  -0.036  0.00  0.00     0.039 A 
ATOM     25  C   UNL d   1       4.829  -8.411   0.032  0.00  0.00     0.077 A 
BRANCH  25  26
ATOM     26  O   UNL d   1       3.445  -8.299   0.210  0.00  0.00    -0.346 OA
BRANCH  26  27
ATOM     27  C   UNL d   1       2.680  -7.101   0.472  0.00  0.00     0.216 C 
BRANCH  27  28
ATOM     28  C   UNL d   1       1.212  -6.939   0.745  0.00  0.00    -0.012 C 
ATOM     29  C   UNL d   1       0.482  -8.012   0.314  0.00  0.00     0.013 C 
ATOM     30  C   UNL d   1      -0.884  -7.886   0.269  0.00  0.00     0.024 C 
ATOM     31  C   UNL d   1      -1.501  -6.642   0.419  0.00  0.00     0.035 C 
ATOM     32 CL   UNL d   1      -3.205  -6.515   0.364  0.00  0.00    -0.084 Cl
ATOM     33  C   UNL d   1      -0.785  -5.535   0.807  0.00  0.00     0.048 C 
ATOM     34  C   UNL d   1       0.537  -5.731   1.150  0.00  0.00     0.044 C 
ATOM     35 CL   UNL d   1       1.192  -4.484   2.220  0.00  0.00    -0.084 Cl
ENDBRANCH  27  28
ENDBRANCH  26  27
ENDBRANCH  25  26
ENDBRANCH   1  19
TORSDOF 10
