@<TRIPOS>MOLECULE
*****
 63 66 0 0 0
SMALL
GASTEIGER

@<TRIPOS>ATOM
      1 C           1.1025   -0.0003    0.0388 C.3     1  UNL1        0.0788
      2 O           2.5239   -0.0031    0.1011 O.3     1  UNL1       -0.4950
      3 C           3.1431   -0.9223   -0.7033 C.ar    1  UNL1        0.1243
      4 C           4.2492   -1.5799   -0.1529 C.ar    1  UNL1        0.0218
      5 C           5.0428   -2.4202   -0.9394 C.ar    1  UNL1        0.1243
      6 O           6.1817   -2.9098   -0.3565 O.3     1  UNL1       -0.4950
      7 C           7.0813   -3.5997   -1.2280 C.3     1  UNL1        0.0788
      8 C           4.6646   -2.6741   -2.2538 C.ar    1  UNL1       -0.0061
      9 C           3.5782   -2.0015   -2.8209 C.ar    1  UNL1        0.0630
     10 C           3.3130   -2.2215   -4.2740 C.2     1  UNL1        0.3408
     11 O           4.0340   -2.9758   -4.9072 O.2     1  UNL1       -0.2483
     12 N           2.2294   -1.5428   -4.7819 N.am    1  UNL1        0.0006
     13 C           1.8634   -1.7673   -6.0085 C.2     1  UNL1        0.3842
     14 N           0.6972   -1.1977   -6.4435 N.pl3   1  UNL1       -0.2767
     15 C           0.0567   -0.0891   -5.7731 C.3     1  UNL1        0.0684
     16 C          -0.9717    0.5783   -6.6693 C.3     1  UNL1        0.0059
     17 C          -1.8896    1.5639   -6.0150 C.2     1  UNL1        0.0106
     18 C          -2.8501    2.1515   -6.7263 C.ar    1  UNL1        0.0510
     19 C          -3.1952    2.0125   -8.0938 C.ar    1  UNL1       -0.0482
     20 C          -4.1392    2.8143   -8.5918 C.ar    1  UNL1       -0.0608
     21 C          -4.8820    3.7218   -7.7322 C.ar    1  UNL1       -0.0555
     22 C          -4.6310    3.8881   -6.4148 C.ar    1  UNL1        0.0098
     23 C          -3.5414    3.0766   -5.8244 C.ar    1  UNL1        0.2086
     24 N          -3.0632    3.0139   -4.6379 N.2     1  UNL1       -0.2369
     25 C          -1.9255    2.0363   -4.5895 C.3     1  UNL1        0.1661
     26 N           2.4755   -2.6002   -6.9112 N.pl3   1  UNL1       -0.2448
     27 C           2.3762   -2.6830   -8.3148 C.ar    1  UNL1        0.1028
     28 C           2.4265   -3.9701   -8.8937 C.ar    1  UNL1       -0.0216
     29 C           2.2898   -4.1535  -10.2733 C.ar    1  UNL1       -0.0401
     30 C           2.0333   -3.0556  -11.0819 C.ar    1  UNL1        0.0414
     31 CL          1.7018   -3.2700  -12.7550 Cl      1  UNL1       -0.0835
     32 C           2.0154   -1.7741  -10.5386 C.ar    1  UNL1       -0.0372
     33 C           2.2224   -1.5666   -9.1638 C.ar    1  UNL1       -0.0107
     34 C           2.3323   -0.1433   -8.6883 C.3     1  UNL1       -0.0364
     35 C           2.8181   -1.1168   -2.0457 C.ar    1  UNL1       -0.0061
     36 H           0.7424    0.7733    0.7253 H       1  UNL1        0.0660
     37 H           0.7014   -0.9622    0.3719 H       1  UNL1        0.0660
     38 H           0.7250    0.2556   -0.9558 H       1  UNL1        0.0660
     39 H           4.5017   -1.4222    0.8937 H       1  UNL1        0.0691
     40 H           8.0004   -3.8201   -0.6785 H       1  UNL1        0.0660
     41 H           7.3593   -2.9918   -2.0991 H       1  UNL1        0.0660
     42 H           6.6419   -4.5517   -1.5434 H       1  UNL1        0.0660
     43 H           5.2182   -3.3764   -2.8687 H       1  UNL1        0.0662
     44 H           0.4196   -1.4250   -7.3913 H       1  UNL1        0.2577
     45 H           0.7938    0.6682   -5.4792 H       1  UNL1        0.0658
     46 H          -0.4394   -0.4726   -4.8807 H       1  UNL1        0.0658
     47 H          -1.5918   -0.1984   -7.1387 H       1  UNL1        0.0343
     48 H          -0.4629    1.0936   -7.4996 H       1  UNL1        0.0343
     49 H          -2.6734    1.2884   -8.7089 H       1  UNL1        0.0626
     50 H          -4.3578    2.7777   -9.6554 H       1  UNL1        0.0618
     51 H          -5.6944    4.2522   -8.2264 H       1  UNL1        0.0620
     52 H          -5.2208    4.5817   -5.8269 H       1  UNL1        0.0683
     53 H          -3.4432    3.5589   -3.8638 H       1  UNL1        0.4459
     54 H          -2.1763    1.2336   -3.8898 H       1  UNL1        0.1077
     55 H          -1.0163    2.5619   -4.2793 H       1  UNL1        0.1077
     56 H           3.3205   -3.0536   -6.5477 H       1  UNL1        0.2646
     57 H           2.5385   -4.8531   -8.2639 H       1  UNL1        0.0652
     58 H           2.3646   -5.1489  -10.7047 H       1  UNL1        0.0633
     59 H           1.8580   -0.9220  -11.1955 H       1  UNL1        0.0636
     60 H           2.2629    0.5637   -9.5181 H       1  UNL1        0.0279
     61 H           3.2726    0.0151   -8.1544 H       1  UNL1        0.0279
     62 H           1.5124    0.1510   -8.0466 H       1  UNL1        0.0279
     63 H           2.0093   -0.5641   -2.5082 H       1  UNL1        0.0662
@<TRIPOS>UNITY_ATOM_ATTR
24 1
charge 1
@<TRIPOS>BOND
     1     1     2    1
     2     2     3    1
     3     3     4   ar
     4     4     5   ar
     5     5     6    1
     6     6     7    1
     7     5     8   ar
     8     8     9   ar
     9     9    10    1
    10    10    11    2
    11    10    12    1
    12    12    13    2
    13    13    14    1
    14    14    15    1
    15    15    16    1
    16    16    17    1
    17    17    18    2
    18    18    19   ar
    19    19    20   ar
    20    20    21   ar
    21    21    22   ar
    22    22    23   ar
    23    18    23   ar
    24    23    24    2
    25    24    25    1
    26    17    25    1
    27    13    26    1
    28    26    27    1
    29    27    28   ar
    30    28    29   ar
    31    29    30   ar
    32    30    31    1
    33    30    32   ar
    34    32    33   ar
    35    27    33   ar
    36    33    34    1
    37     9    35   ar
    38     3    35   ar
    39     1    36    1
    40     1    37    1
    41     1    38    1
    42     4    39    1
    43     7    40    1
    44     7    41    1
    45     7    42    1
    46     8    43    1
    47    14    44    1
    48    15    45    1
    49    15    46    1
    50    16    47    1
    51    16    48    1
    52    19    49    1
    53    20    50    1
    54    21    51    1
    55    22    52    1
    56    24    53    1
    57    25    54    1
    58    25    55    1
    59    26    56    1
    60    28    57    1
    61    29    58    1
    62    32    59    1
    63    34    60    1
    64    34    61    1
    65    34    62    1
    66    35    63    1
