@<TRIPOS>MOLECULE
*****
 34 36 0 0 0
SMALL
GASTEIGER

@<TRIPOS>ATOM
      1 C           0.8384   -0.0937   -0.0576 C.3     1  UNL1       -0.0327
      2 C           2.3395   -0.0628   -0.0072 C.ar    1  UNL1        0.0329
      3 C           3.1008    1.1085    0.0604 C.ar    1  UNL1        0.1233
      4 O           2.5734    2.3662   -0.0102 O.3     1  UNL1       -0.5064
      5 C           4.4851    1.0581    0.2260 C.ar    1  UNL1       -0.0191
      6 C           5.1314   -0.1665    0.3858 C.ar    1  UNL1       -0.0455
      7 C           4.4195   -1.3542    0.1994 C.ar    1  UNL1        0.0446
      8 C           5.1578   -2.6057    0.0848 C.ar    1  UNL1        0.1037
      9 N           5.8314   -3.1596    1.1017 N.ar    1  UNL1       -0.1732
     10 N           6.3283   -4.3041    0.5916 N.ar    1  UNL1       -0.2835
     11 C           5.9978   -4.4998   -0.7180 C.ar    1  UNL1        0.0306
     12 C           5.2554   -3.4127   -1.0877 C.ar    1  UNL1        0.0273
     13 C           4.7160   -3.2013   -2.4156 C.ar    1  UNL1       -0.0143
     14 C           5.1220   -2.0950   -3.1663 C.ar    1  UNL1       -0.0539
     15 C           4.6699   -1.9392   -4.4765 C.ar    1  UNL1       -0.0612
     16 C           3.6972   -2.8001   -4.9818 C.ar    1  UNL1       -0.0617
     17 C           3.2195   -3.8509   -4.2008 C.ar    1  UNL1       -0.0612
     18 C           3.7682   -4.0864   -2.9392 C.ar    1  UNL1       -0.0539
     19 C           3.0287   -1.2899   -0.0113 C.ar    1  UNL1        0.1324
     20 O           2.2654   -2.4119   -0.2410 O.3     1  UNL1       -0.5057
     21 H           0.3773    0.8924    0.0066 H       1  UNL1        0.0280
     22 H           0.4651   -0.6667    0.7999 H       1  UNL1        0.0280
     23 H           0.4901   -0.5633   -0.9825 H       1  UNL1        0.0280
     24 H           1.6104    2.3219    0.0726 H       1  UNL1        0.2921
     25 H           5.0594    1.9808    0.2366 H       1  UNL1        0.0654
     26 H           6.1951   -0.1885    0.6083 H       1  UNL1        0.0626
     27 H           6.8783   -4.9015    1.1920 H       1  UNL1        0.1882
     28 H           6.3351   -5.3751   -1.2639 H       1  UNL1        0.0830
     29 H           5.7972   -1.3526   -2.7458 H       1  UNL1        0.0624
     30 H           5.0725   -1.1436   -5.0969 H       1  UNL1        0.0618
     31 H           3.3055   -2.6453   -5.9839 H       1  UNL1        0.0618
     32 H           2.4274   -4.4926   -4.5766 H       1  UNL1        0.0618
     33 H           3.4321   -4.9450   -2.3646 H       1  UNL1        0.0624
     34 H           2.8489   -3.1824   -0.3302 H       1  UNL1        0.2922
@<TRIPOS>BOND
     1     1     2    1
     2     2     3   ar
     3     3     4    1
     4     3     5   ar
     5     5     6   ar
     6     6     7   ar
     7     7     8    1
     8     8     9   ar
     9     9    10   ar
    10    10    11   ar
    11    11    12   ar
    12     8    12   ar
    13    12    13    1
    14    13    14   ar
    15    14    15   ar
    16    15    16   ar
    17    16    17   ar
    18    17    18   ar
    19    13    18   ar
    20     7    19   ar
    21     2    19   ar
    22    19    20    1
    23     1    21    1
    24     1    22    1
    25     1    23    1
    26     4    24    1
    27     5    25    1
    28     6    26    1
    29    10    27    1
    30    11    28    1
    31    14    29    1
    32    15    30    1
    33    16    31    1
    34    17    32    1
    35    18    33    1
    36    20    34    1
