REMARK  5 active torsions:
REMARK  status: ('A' for Active; 'I' for Inactive)
REMARK    1  A    between atoms: C_2  and  O_3 
REMARK    2  A    between atoms: C_2  and  C_12 
REMARK    3  A    between atoms: O_3  and  C_4 
REMARK       I    between atoms: C_12  and  N_14 
REMARK    4  A    between atoms: N_14  and  C_15 
REMARK    5  A    between atoms: C_19  and  N_20 
ROOT
ATOM      1  C   UNL d   1       2.615  -2.498  -0.041  0.00  0.00     0.071 C 
ATOM      2  C   UNL d   1       1.295  -2.803   0.298  0.00  0.00     0.037 C 
ATOM      3  C   UNL d   1       0.924  -4.002   0.896  0.00  0.00     0.004 C 
ATOM      4  C   UNL d   1       1.860  -5.008   1.027  0.00  0.00     0.023 C 
ATOM      5  C   UNL d   1       3.166  -4.789   0.575  0.00  0.00     0.047 C 
ATOM      6  C   UNL d   1       4.077  -5.898   0.576  0.00  0.00     0.099 C 
ATOM      7  N   UNL d   1       4.772  -6.822   0.565  0.00  0.00    -0.191 NA
ATOM      8  C   UNL d   1       3.553  -3.529   0.073  0.00  0.00     0.059 C 
ENDROOT
BRANCH   1   9
ATOM      9  O   UNL d   1       3.017  -1.320  -0.628  0.00  0.00    -0.337 OA
BRANCH   9  10
ATOM     10  C   UNL d   1       2.550  -0.067  -0.083  0.00  0.00     0.217 C 
ATOM     11  C   UNL d   1       1.021   0.105  -0.042  0.00  0.00     0.050 C 
BRANCH  10  12
ATOM     12  C   UNL d   1       3.048   1.133  -0.945  0.00  0.00     0.251 C 
ATOM     13  O   UNL d   1       2.231   1.883  -1.493  0.00  0.00    -0.270 OA
ATOM     14  N   UNL d   1       4.423   1.340  -1.067  0.00  0.00    -0.325 N 
ATOM     15  H   UNL d   1       5.053   0.578  -0.849  0.00  0.00     0.169 HD
BRANCH  14  16
ATOM     16  C   UNL d   1       4.889   2.435  -1.853  0.00  0.00     0.038 A 
ATOM     17  C   UNL d   1       4.310   3.695  -1.668  0.00  0.00     0.056 A 
ATOM     18  C   UNL d   1       4.637   4.773  -2.489  0.00  0.00     0.064 A 
ATOM     19 CL   UNL d   1       3.867   6.292  -2.176  0.00  0.00    -0.082 Cl
ATOM     20  C   UNL d   1       5.540   4.627  -3.549  0.00  0.00     0.070 A 
ATOM     21  C   UNL d   1       6.166   3.370  -3.689  0.00  0.00     0.064 A 
ATOM     22 CL   UNL d   1       7.302   3.119  -4.978  0.00  0.00    -0.082 Cl
ATOM     23  C   UNL d   1       5.867   2.284  -2.837  0.00  0.00     0.056 A 
BRANCH  20  24
ATOM     24  N   UNL d   1       5.896   5.722  -4.342  0.00  0.00    -0.396 N 
ATOM     25  H   UNL d   1       5.341   6.570  -4.269  0.00  0.00     0.156 HD
ATOM     26  H   UNL d   1       6.444   5.570  -5.180  0.00  0.00     0.156 HD
ENDBRANCH  20  24
ENDBRANCH  14  16
ENDBRANCH  10  12
ENDBRANCH   9  10
ENDBRANCH   1   9
TORSDOF 5
