REMARK  8 active torsions:
REMARK  status: ('A' for Active; 'I' for Inactive)
REMARK    1  A    between atoms: C_2  and  C_3 
REMARK       I    between atoms: C_2  and  N_17 
REMARK    2  A    between atoms: C_3  and  S_4 
REMARK    3  A    between atoms: C_5  and  S_4 
REMARK    4  A    between atoms: C_8  and  C_9 
REMARK    5  A    between atoms: CA_18  and  N_17 
REMARK    6  A    between atoms: CA_18  and  C_29 
REMARK    7  A    between atoms: CA_18  and  CB_19 
REMARK    8  A    between atoms: CB_19  and  CG_20 
ROOT
ATOM      1  O   UNK d   0       6.461   5.082   3.263  0.00  0.00    -0.273 OA
ATOM      2  C   UNK d   0       5.995   6.169   2.917  0.00  0.00     0.227 C 
ATOM      3  N   TRP d   1       6.081   6.648   1.631  0.00  0.00    -0.346 N 
ATOM      4  H   TRP d   1       5.922   7.627   1.412  0.00  0.00     0.163 HD
ENDROOT
BRANCH   2   5
ATOM      5  C   UNK d   0       5.373   7.018   4.013  0.00  0.00     0.180 C 
BRANCH   5   6
ATOM      6  S   UNK d   0       5.092   5.848   5.472  0.00  0.00    -0.112 SA
BRANCH   6   7
ATOM      7  C   UNK d   0       4.742   6.960   6.826  0.00  0.00     0.275 C 
ATOM      8  N   UNK d   0       5.415   6.495   8.042  0.00  0.00    -0.222 NA
ATOM      9  N   UNK d   0       6.523   7.429   8.252  0.00  0.00    -0.226 NA
ATOM     10  H   UNK d   0       5.730   5.537   7.861  0.00  0.00     0.144 HD
ATOM     11  C   UNK d   0       6.460   8.352   7.112  0.00  0.00     0.245 C 
ATOM     12  H   UNK d   0       7.431   6.962   8.229  0.00  0.00     0.143 HD
ATOM     13  O   UNK d   0       5.142   8.291   6.576  0.00  0.00    -0.336 OA
BRANCH  11  14
ATOM     14  C   UNK d   0       6.865   9.763   7.480  0.00  0.00    -0.013 A 
ATOM     15  C   UNK d   0       8.169  10.008   7.949  0.00  0.00     0.011 A 
ATOM     16  C   UNK d   0       8.584  11.299   8.279  0.00  0.00     0.002 A 
ATOM     17  C   UNK d   0       7.700  12.367   8.147  0.00  0.00     0.024 A 
ATOM     18  C   UNK d   0       6.409  12.141   7.674  0.00  0.00     0.034 A 
ATOM     19 CL   UNK d   0       5.318  13.464   7.519  0.00  0.00    -0.084 Cl
ATOM     20  C   UNK d   0       5.993  10.854   7.333  0.00  0.00     0.035 A 
ENDBRANCH  11  14
ENDBRANCH   6   7
ENDBRANCH   5   6
ENDBRANCH   2   5
BRANCH   3  21
ATOM     21  CA  TRP d   1       6.729   5.905   0.475  0.00  0.00     0.190 C 
BRANCH  21  22
ATOM     22  C   TRP d   1       7.738   6.812  -0.327  0.00  0.00     0.197 C 
ATOM     23  O   TRP d   1       8.936   6.426  -0.425  0.00  0.00    -0.646 OA
ATOM     24  OXT TRP d   1       7.212   7.880  -0.772  0.00  0.00    -0.646 OA
ENDBRANCH  21  22
BRANCH  21  25
ATOM     25  CB  TRP d   1       7.445   4.594   0.830  0.00  0.00     0.077 C 
BRANCH  25  26
ATOM     26  CG  TRP d   1       6.584   3.452   1.331  0.00  0.00    -0.028 A 
ATOM     27  CD1 TRP d   1       5.204   3.350   1.404  0.00  0.00     0.096 A 
ATOM     28  NE1 TRP d   1       4.894   2.241   2.148  0.00  0.00    -0.365 N 
ATOM     29  CE2 TRP d   1       6.041   1.599   2.557  0.00  0.00     0.042 A 
ATOM     30  HE1 TRP d   1       3.962   1.986   2.435  0.00  0.00     0.165 HD
ATOM     31  CZ2 TRP d   1       6.222   0.447   3.330  0.00  0.00     0.030 A 
ATOM     32  CD2 TRP d   1       7.111   2.360   2.093  0.00  0.00    -0.002 A 
ATOM     33  CH2 TRP d   1       7.537   0.081   3.645  0.00  0.00     0.002 A 
ATOM     34  CZ3 TRP d   1       8.621   0.860   3.245  0.00  0.00     0.001 A 
ATOM     35  CE3 TRP d   1       8.418   2.009   2.483  0.00  0.00     0.014 A 
ENDBRANCH  25  26
ENDBRANCH  21  25
ENDBRANCH   3  21
TORSDOF 8
