REMARK  11 active torsions:
REMARK  status: ('A' for Active; 'I' for Inactive)
REMARK    1  A    between atoms: C_2  and  N_3 
REMARK    2  A    between atoms: N_3  and  C_4 
REMARK    3  A    between atoms: N_3  and  C_6 
REMARK    4  A    between atoms: C_9  and  C_10 
REMARK    5  A    between atoms: C_11  and  N_12 
REMARK    6  A    between atoms: C_11  and  C_22 
REMARK       I    between atoms: N_12  and  C_13 
REMARK    7  A    between atoms: C_13  and  C_15 
REMARK       I    between atoms: C_22  and  N_24 
REMARK    8  A    between atoms: N_24  and  N_25 
REMARK    9  A    between atoms: C_26  and  C_27 
REMARK   10  A    between atoms: C_31  and  O_32 
REMARK   11  A    between atoms: C_34  and  O_35 
ROOT
ATOM      1  C   UNL d   1       8.477  -1.262  -2.061  0.00  0.00     0.046 C 
ATOM      2  C   UNL d   1       9.447  -1.584  -1.150  0.00  0.00     0.106 C 
ENDROOT
BRANCH   2   3
ATOM      3  N   UNL d   1      10.805  -1.633  -1.515  0.00  0.00    -0.318 N 
ATOM      4  C   UNL d   1      11.383  -1.278  -2.728  0.00  0.00     0.258 C 
ATOM      5  O   UNL d   1      10.792  -0.806  -3.712  0.00  0.00    -0.267 OA
ATOM      6  H   UNL d   1      11.441  -1.968  -0.803  0.00  0.00     0.169 HD
BRANCH   4   7
ATOM      7  C   UNL d   1      12.847  -1.456  -2.913  0.00  0.00     0.054 A 
ATOM      8  C   UNL d   1      13.521  -0.498  -3.703  0.00  0.00     0.019 A 
ATOM      9  C   UNL d   1      14.829  -0.720  -4.141  0.00  0.00     0.001 A 
ATOM     10  C   UNL d   1      15.504  -1.867  -3.739  0.00  0.00     0.002 A 
ATOM     11  C   UNL d   1      14.859  -2.805  -2.931  0.00  0.00     0.025 A 
ATOM     12  C   UNL d   1      13.534  -2.608  -2.518  0.00  0.00     0.049 A 
ATOM     13 CL   UNL d   1      12.821  -3.854  -1.558  0.00  0.00    -0.083 Cl
ENDBRANCH   4   7
ENDBRANCH   2   3
BRANCH   2  14
ATOM     14  C   UNL d   1       9.096  -1.839   0.342  0.00  0.00     0.288 C 
ATOM     15  O   UNL d   1       8.089  -1.353   0.854  0.00  0.00    -0.264 OA
ATOM     16  N   UNL d   1       9.956  -2.525   1.192  0.00  0.00    -0.242 N 
ATOM     17  H   UNL d   1      10.930  -2.714   1.032  0.00  0.00     0.192 HD
BRANCH  16  18
ATOM     18  N   UNL d   1       9.389  -2.836   2.410  0.00  0.00    -0.183 NA
ATOM     19  C   UNL d   1      10.098  -3.232   3.411  0.00  0.00     0.153 C 
BRANCH  19  20
ATOM     20  C   UNL d   1       9.447  -3.635   4.689  0.00  0.00     0.019 A 
ATOM     21  C   UNL d   1      10.064  -3.297   5.896  0.00  0.00     0.016 A 
ATOM     22  C   UNL d   1       9.572  -3.821   7.091  0.00  0.00     0.004 A 
ATOM     23  C   UNL d   1       8.418  -4.613   7.084  0.00  0.00     0.040 A 
ATOM     24  C   UNL d   1       7.762  -4.938   5.881  0.00  0.00     0.102 A 
ATOM     25  C   UNL d   1       8.296  -4.449   4.676  0.00  0.00     0.110 A 
BRANCH  24  26
ATOM     26  O   UNL d   1       6.694  -5.778   6.076  0.00  0.00    -0.353 OA
ATOM     27  C   UNL d   1       5.990  -6.240   4.936  0.00  0.00     0.210 C 
ENDBRANCH  24  26
BRANCH  25  28
ATOM     28  O   UNL d   1       7.862  -4.815   3.431  0.00  0.00    -0.357 OA
ATOM     29  H   UNL d   1       6.908  -4.926   3.380  0.00  0.00     0.217 HD
ENDBRANCH  25  28
ENDBRANCH  19  20
ENDBRANCH  16  18
ENDBRANCH   2  14
BRANCH   1  30
ATOM     30  C   UNL d   1       6.996  -1.114  -1.977  0.00  0.00    -0.034 C 
ATOM     31  C   UNL d   1       6.219  -0.515  -2.971  0.00  0.00     0.013 C 
ATOM     32  C   UNL d   1       4.846  -0.240  -2.741  0.00  0.00     0.030 C 
ATOM     33  C   UNL d   1       4.216  -0.537  -1.517  0.00  0.00     0.030 C 
ATOM     34  C   UNL d   1       5.000  -1.181  -0.578  0.00  0.00     0.030 C 
ATOM     35  C   UNL d   1       6.283  -1.594  -0.897  0.00  0.00     0.013 C 
BRANCH  33  36
ATOM     36  N   UNL d   1       2.835  -0.321  -1.289  0.00  0.00    -0.382 N 
BRANCH  36  37
ATOM     37  C   UNL d   1       2.474   0.010   0.109  0.00  0.00     0.118 C 
ATOM     38  C   UNL d   1       1.008   0.139   0.453  0.00  0.00     0.026 C 
ENDBRANCH  36  37
BRANCH  36  39
ATOM     39  C   UNL d   1       1.996  -0.964  -2.319  0.00  0.00     0.118 C 
ATOM     40  C   UNL d   1       0.496  -0.920  -2.128  0.00  0.00     0.026 C 
ENDBRANCH  36  39
ENDBRANCH  33  36
ENDBRANCH   1  30
TORSDOF 11
