REMARK  11 active torsions:
REMARK  status: ('A' for Active; 'I' for Inactive)
REMARK    1  A    between atoms: C_4  and  N_5 
REMARK    2  A    between atoms: C_8  and  C_9 
REMARK    3  A    between atoms: C_9  and  C_10 
REMARK    4  A    between atoms: C_10  and  C_11 
REMARK    5  A    between atoms: C_11  and  C_12 
REMARK    6  A    between atoms: C_12  and  C_13 
REMARK    7  A    between atoms: C_13  and  N_14 
REMARK       I    between atoms: N_14  and  C_15 
REMARK    8  A    between atoms: C_15  and  C_17 
REMARK    9  A    between atoms: C_20  and  S_21 
REMARK   10  A    between atoms: S_21  and  N_24 
REMARK   11  A    between atoms: N_24  and  C_25 
ROOT
ATOM      1  N   UNL d   1       0.971  -0.005   0.054  0.00  0.00    -0.191 NA
ATOM      2  C   UNL d   1       2.136   0.013   0.054  0.00  0.00     0.105 C 
ATOM      3  C   UNL d   1       3.556   0.023   0.055  0.00  0.00     0.115 A 
ATOM      4  C   UNL d   1       4.422   1.129   0.053  0.00  0.00     0.164 A 
ATOM      5  N   UNL d   1       5.699   0.755   0.056  0.00  0.00    -0.155 NA
ATOM      6  N   UNL d   1       5.648  -0.590   0.056  0.00  0.00    -0.279 N 
ATOM      7  C   UNL d   1       4.371  -1.086   0.057  0.00  0.00     0.052 A 
ATOM      8  H   UNL d   1       6.526  -1.103   0.054  0.00  0.00     0.189 HD
ENDROOT
BRANCH   4   9
ATOM      9  N   UNL d   1       4.002   2.396   0.048  0.00  0.00    -0.381 N 
ATOM     10  H   UNL d   1       3.022   2.655   0.039  0.00  0.00     0.157 HD
ATOM     11  H   UNL d   1       4.662   3.162   0.043  0.00  0.00     0.157 HD
ENDBRANCH   4   9
BRANCH   7  12
ATOM     12  C   UNL d   1       3.992  -2.521   0.058  0.00  0.00     0.060 C 
BRANCH  12  13
ATOM     13  C   UNL d   1       5.176  -3.469   0.059  0.00  0.00     0.006 C 
BRANCH  13  14
ATOM     14  C   UNL d   1       4.697  -4.913   0.062  0.00  0.00     0.002 C 
BRANCH  14  15
ATOM     15  C   UNL d   1       5.891  -5.862   0.064  0.00  0.00     0.020 C 
BRANCH  15  16
ATOM     16  C   UNL d   1       5.434  -7.315   0.066  0.00  0.00     0.123 C 
BRANCH  16  17
ATOM     17  N   UNL d   1       6.555  -8.242   0.079  0.00  0.00    -0.357 N 
ATOM     18  C   UNL d   1       6.339  -9.608   0.023  0.00  0.00     0.251 C 
ATOM     19  O   UNL d   1       5.220 -10.107  -0.018  0.00  0.00    -0.268 OA
ATOM     20  H   UNL d   1       7.495  -7.873   0.038  0.00  0.00     0.162 HD
BRANCH  18  21
ATOM     21  C   UNL d   1       7.542 -10.498   0.043  0.00  0.00     0.032 A 
ATOM     22  C   UNL d   1       7.558 -11.674  -0.720  0.00  0.00     0.018 A 
ATOM     23  C   UNL d   1       8.591 -12.617  -0.555  0.00  0.00     0.026 A 
ATOM     24  C   UNL d   1       9.667 -12.349   0.309  0.00  0.00     0.079 A 
ATOM     25  C   UNL d   1       9.656 -11.174   1.061  0.00  0.00     0.026 A 
ATOM     26  C   UNL d   1       8.595 -10.257   0.931  0.00  0.00     0.018 A 
BRANCH  24  27
ATOM     27  S   UNL d   1      11.059 -13.486   0.290  0.00  0.00     0.263 S 
ATOM     28  O   UNL d   1      10.582 -14.746   0.817  0.00  0.00    -0.200 OA
ATOM     29  O   UNL d   1      11.596 -13.385  -1.052  0.00  0.00    -0.200 OA
BRANCH  27  30
ATOM     30  N   UNL d   1      12.218 -12.900   1.371  0.00  0.00    -0.281 N 
ATOM     31  H   UNL d   1      12.093 -12.018   1.850  0.00  0.00     0.179 HD
BRANCH  30  32
ATOM     32  C   UNL d   1      13.482 -13.558   1.526  0.00  0.00     0.042 A 
ATOM     33  C   UNL d   1      14.064 -13.643   2.800  0.00  0.00     0.033 A 
ATOM     34  C   UNL d   1      15.367 -14.142   2.952  0.00  0.00     0.044 A 
ATOM     35  C   UNL d   1      16.050 -14.631   1.845  0.00  0.00     0.116 A 
ATOM     36  F   UNL d   1      17.250 -15.204   2.002  0.00  0.00    -0.206 F 
ATOM     37  C   UNL d   1      15.492 -14.545   0.580  0.00  0.00     0.044 A 
ATOM     38  C   UNL d   1      14.220 -13.991   0.422  0.00  0.00     0.033 A 
ENDBRANCH  30  32
ENDBRANCH  27  30
ENDBRANCH  24  27
ENDBRANCH  18  21
ENDBRANCH  16  17
ENDBRANCH  15  16
ENDBRANCH  14  15
ENDBRANCH  13  14
ENDBRANCH  12  13
ENDBRANCH   7  12
TORSDOF 11
