@<TRIPOS>MOLECULE
*****
 67 68 0 0 0
SMALL
GASTEIGER

@<TRIPOS>ATOM
      1 C          12.3984   10.3520   -7.3267 C.3     1  UNL1       -0.0253
      2 C          11.6943   10.7481   -6.0112 C.3     1  UNL1        0.1068
      3 C          12.4602   11.9452   -5.4297 C.3     1  UNL1       -0.0253
      4 C          10.2499   11.1285   -6.3663 C.3     1  UNL1       -0.0253
      5 O          11.7254    9.6105   -5.0934 O.3     1  UNL1       -0.4447
      6 C          11.1500    9.7697   -3.8661 C.2     1  UNL1        0.4008
      7 O          10.6022   10.7917   -3.4639 O.2     1  UNL1       -0.2265
      8 N          11.2465    8.6470   -3.0931 N.am    1  UNL1       -0.2811
      9 C          10.6832    8.6535   -1.7643 C.3     1  UNL1        0.0147
     10 C          10.8908    7.3298   -1.0389 C.3     1  UNL1       -0.0372
     11 C          10.2592    7.4378    0.3269 C.3     1  UNL1       -0.0494
     12 C          10.3614    6.1822    1.1794 C.3     1  UNL1       -0.0239
     13 C           9.6558    6.3479    2.5352 C.3     1  UNL1        0.1236
     14 N           8.1914    6.1585    2.4021 N.am    1  UNL1       -0.2679
     15 C           7.3893    7.1549    1.8912 C.2     1  UNL1        0.4012
     16 O           7.7935    8.2434    1.4858 O.2     1  UNL1       -0.2265
     17 O           6.0818    6.8341    1.8805 O.3     1  UNL1       -0.4456
     18 C           5.2877    7.9257    1.3536 C.3     1  UNL1        0.1191
     19 C           3.8259    7.5730    1.4129 C.ar    1  UNL1       -0.0103
     20 C           2.8339    8.5652    1.4424 C.ar    1  UNL1       -0.0554
     21 C           1.4992    8.2081    1.6478 C.ar    1  UNL1       -0.0614
     22 C           1.1380    6.8628    1.7191 C.ar    1  UNL1       -0.0617
     23 C           2.1104    5.8734    1.6174 C.ar    1  UNL1       -0.0614
     24 C           3.4432    6.2284    1.4595 C.ar    1  UNL1       -0.0554
     25 C           9.8905    7.6977    3.2607 C.2     1  UNL1        0.3330
     26 O           8.9763    8.3079    3.8101 O.2     1  UNL1       -0.2483
     27 O          11.2249    8.1084    3.2526 O.3     1  UNL1       -0.4245
     28 C          11.5152    9.3440    3.8843 C.ar    1  UNL1        0.1321
     29 C          12.5787   10.1020    3.3873 C.ar    1  UNL1       -0.0128
     30 C          12.9671   11.2728    4.0593 C.ar    1  UNL1        0.0191
     31 C          12.2217   11.7295    5.1587 C.ar    1  UNL1        0.2734
     32 N          12.5365   13.0166    5.7893 N.pl3   1  UNL1        0.0796
     33 O          13.4974   13.6572    5.3414 O.2     1  UNL1        0.0414
     34 O          11.8157   13.3928    6.7255 O.co2   1  UNL1       -0.5760
     35 C          11.1482   10.9840    5.6413 C.ar    1  UNL1        0.0191
     36 C          10.8238    9.7827    5.0204 C.ar    1  UNL1       -0.0128
     37 H          12.3913   11.1887   -8.0392 H       1  UNL1        0.0268
     38 H          11.9076    9.5007   -7.8105 H       1  UNL1        0.0268
     39 H          13.4430   10.0682   -7.1595 H       1  UNL1        0.0268
     40 H          12.4558   12.7919   -6.1239 H       1  UNL1        0.0268
     41 H          13.4995   11.6736   -5.2144 H       1  UNL1        0.0268
     42 H          12.0296   12.2993   -4.4909 H       1  UNL1        0.0268
     43 H          10.2239   11.9673   -7.0696 H       1  UNL1        0.0268
     44 H           9.6704   11.4272   -5.4904 H       1  UNL1        0.0268
     45 H           9.7237   10.2785   -6.8146 H       1  UNL1        0.0268
     46 H          11.6922    7.8241   -3.4707 H       1  UNL1        0.1520
     47 H           9.6121    8.8910   -1.8438 H       1  UNL1        0.0463
     48 H          11.1398    9.4767   -1.1972 H       1  UNL1        0.0463
     49 H          11.9535    7.0954   -0.9442 H       1  UNL1        0.0280
     50 H          10.4033    6.5202   -1.5927 H       1  UNL1        0.0280
     51 H           9.2167    7.6460    0.1189 H       1  UNL1        0.0266
     52 H          10.6797    8.2964    0.8593 H       1  UNL1        0.0266
     53 H          11.4191    5.9346    1.3321 H       1  UNL1        0.0288
     54 H           9.9197    5.3331    0.6381 H       1  UNL1        0.0288
     55 H          10.0090    5.5553    3.2111 H       1  UNL1        0.0615
     56 H           7.7571    5.2918    2.6948 H       1  UNL1        0.1528
     57 H           5.5701    8.1227    0.3109 H       1  UNL1        0.0749
     58 H           5.4596    8.8253    1.9623 H       1  UNL1        0.0749
     59 H           3.0884    9.6184    1.3317 H       1  UNL1        0.0621
     60 H           0.7400    8.9762    1.7733 H       1  UNL1        0.0618
     61 H           0.0975    6.5823    1.8510 H       1  UNL1        0.0618
     62 H           1.8451    4.8237    1.6869 H       1  UNL1        0.0618
     63 H           4.1971    5.4481    1.3984 H       1  UNL1        0.0621
     64 H          13.1042    9.8043    2.4830 H       1  UNL1        0.0656
     65 H          13.8458   11.8181    3.7203 H       1  UNL1        0.0686
     66 H          10.5546   11.3043    6.4943 H       1  UNL1        0.0686
     67 H           9.9937    9.2239    5.4401 H       1  UNL1        0.0656
@<TRIPOS>UNITY_ATOM_ATTR
32 1
charge 1
34 1
charge -1
@<TRIPOS>BOND
     1     1     2    1
     2     2     3    1
     3     2     4    1
     4     2     5    1
     5     5     6    1
     6     6     7    2
     7     6     8   am
     8     8     9    1
     9     9    10    1
    10    10    11    1
    11    11    12    1
    12    14    15   am
    13    15    16    2
    14    15    17    1
    15    17    18    1
    16    18    19    1
    17    19    20   ar
    18    20    21   ar
    19    21    22   ar
    20    22    23   ar
    21    23    24   ar
    22    19    24   ar
    23    13    25    1
    24    25    26    2
    25    25    27    1
    26    27    28    1
    27    28    29   ar
    28    29    30   ar
    29    30    31   ar
    30    31    32    1
    31    32    33    2
    32    32    34    1
    33    31    35   ar
    34    35    36   ar
    35    28    36   ar
    36    13    14    1
    37    13    12    1
    38     1    37    1
    39     1    38    1
    40     1    39    1
    41     3    40    1
    42     3    41    1
    43     3    42    1
    44     4    43    1
    45     4    44    1
    46     4    45    1
    47     8    46    1
    48     9    47    1
    49     9    48    1
    50    10    49    1
    51    10    50    1
    52    11    51    1
    53    11    52    1
    54    12    53    1
    55    12    54    1
    56    13    55    1
    57    14    56    1
    58    18    57    1
    59    18    58    1
    60    20    59    1
    61    21    60    1
    62    22    61    1
    63    23    62    1
    64    24    63    1
    65    29    64    1
    66    30    65    1
    67    35    66    1
    68    36    67    1
