@<TRIPOS>MOLECULE
*****
 66 70 0 0 0
SMALL
GASTEIGER

@<TRIPOS>ATOM
      1 O           7.5752   -1.9772   -2.7306 O.2     1  UNL1       -0.2749
      2 C           7.6349   -0.7477   -2.7547 C.2     1  UNL1        0.2231
      3 C           8.9172    0.0446   -3.1108 C.3     1  UNL1        0.0734
      4 S          10.3039   -1.1420   -3.4205 S.3     1  UNL1       -0.1085
      5 C          11.6928   -0.0740   -3.9524 C.3     1  UNL1        0.1563
      6 N          12.7537   -0.2500   -2.9769 N.pl3   1  UNL1       -0.3156
      7 C          14.0875   -0.2039   -3.3550 C.ar    1  UNL1        0.0414
      8 C          15.1169   -0.1751   -2.4090 C.ar    1  UNL1       -0.0400
      9 C          16.4630   -0.0394   -2.7988 C.ar    1  UNL1       -0.0600
     10 C          16.8099    0.0491   -4.1437 C.ar    1  UNL1       -0.0609
     11 C          15.8043    0.0429   -5.0930 C.ar    1  UNL1       -0.0478
     12 C          14.4638   -0.0476   -4.6865 C.ar    1  UNL1        0.0593
     13 C          13.4218   -0.0147   -5.7085 C.2     1  UNL1        0.2669
     14 O          13.7611    0.3646   -6.8301 O.2     1  UNL1       -0.2683
     15 N          12.1564   -0.4415   -5.3019 N.am    1  UNL1       -0.1859
     16 N          11.1156   -0.6179   -6.3132 N.am    1  UNL1       -0.2292
     17 C          11.4709   -1.1710   -7.5433 C.2     1  UNL1        0.2296
     18 O          12.6032   -1.4021   -7.9535 O.2     1  UNL1       -0.2743
     19 C          10.3198   -1.5755   -8.4241 C.3     1  UNL1        0.0293
     20 C          10.9079   -1.8757   -9.8157 C.3     1  UNL1       -0.0165
     21 C           9.9119   -2.3165  -10.8202 C.2     1  UNL1        0.0081
     22 C          10.0737   -2.2906  -12.1451 C.ar    1  UNL1        0.0509
     23 C          11.1415   -1.9103  -13.0076 C.ar    1  UNL1       -0.0482
     24 C          10.9448   -1.9905  -14.3326 C.ar    1  UNL1       -0.0608
     25 C           9.6783   -2.4475  -14.8892 C.ar    1  UNL1       -0.0555
     26 C           8.6277   -2.8314  -14.1380 C.ar    1  UNL1        0.0098
     27 C           8.7907   -2.7777  -12.6768 C.ar    1  UNL1        0.2086
     28 N           7.9644   -3.0825  -11.7500 N.2     1  UNL1       -0.2369
     29 C           8.5718   -2.8494  -10.4327 C.3     1  UNL1        0.1660
     30 N           6.4842   -0.0577   -2.4754 N.am    1  UNL1       -0.3122
     31 C           6.3081    1.3830   -2.4559 C.3     1  UNL1        0.0379
     32 C           4.9080    1.8409   -2.0003 C.3     1  UNL1        0.0742
     33 C           4.9404    3.2745   -1.4870 C.3     1  UNL1       -0.0231
     34 C           4.6102    4.0882   -2.7111 C.3     1  UNL1       -0.0271
     35 C           3.6534    3.1873   -3.4570 C.3     1  UNL1        0.0482
     36 O           4.0091    1.8335   -3.1287 O.3     1  UNL1       -0.3750
     37 H           9.1692    0.7081   -2.2778 H       1  UNL1        0.0472
     38 H           8.7177    0.6308   -4.0137 H       1  UNL1        0.0472
     39 H          11.4037    0.9844   -3.9480 H       1  UNL1        0.0847
     40 H          12.5159   -0.7806   -2.1469 H       1  UNL1        0.1487
     41 H          14.8902   -0.2365   -1.3481 H       1  UNL1        0.0636
     42 H          17.2478    0.0005   -2.0475 H       1  UNL1        0.0618
     43 H          17.8474    0.1298   -4.4577 H       1  UNL1        0.0618
     44 H          16.0534    0.1064   -6.1512 H       1  UNL1        0.0626
     45 H          10.2313   -0.9293   -5.9142 H       1  UNL1        0.1731
     46 H           9.5658   -0.7839   -8.4797 H       1  UNL1        0.0362
     47 H           9.8712   -2.4801   -7.9975 H       1  UNL1        0.0362
     48 H          11.6757   -2.6591   -9.7431 H       1  UNL1        0.0317
     49 H          11.4133   -0.9734  -10.1903 H       1  UNL1        0.0317
     50 H          12.0879   -1.5740  -12.5925 H       1  UNL1        0.0626
     51 H          11.7390   -1.7103  -15.0223 H       1  UNL1        0.0618
     52 H           9.6164   -2.4661  -15.9759 H       1  UNL1        0.0620
     53 H           7.7001   -3.1627  -14.5872 H       1  UNL1        0.0683
     54 H           7.0206   -3.4192  -11.9206 H       1  UNL1        0.4459
     55 H           8.6404   -3.7961   -9.8899 H       1  UNL1        0.1077
     56 H           7.9749   -2.1102   -9.8928 H       1  UNL1        0.1077
     57 H           5.6875   -0.6534   -2.2616 H       1  UNL1        0.1488
     58 H           6.5215    1.7389   -3.4688 H       1  UNL1        0.0487
     59 H           7.0713    1.7673   -1.7745 H       1  UNL1        0.0487
     60 H           4.5084    1.1643   -1.2357 H       1  UNL1        0.0611
     61 H           5.8969    3.5551   -1.0358 H       1  UNL1        0.0291
     62 H           4.1636    3.4148   -0.7265 H       1  UNL1        0.0291
     63 H           5.5149    4.2466   -3.3090 H       1  UNL1        0.0288
     64 H           4.1836    5.0679   -2.4787 H       1  UNL1        0.0288
     65 H           3.7166    3.3270   -4.5404 H       1  UNL1        0.0560
     66 H           2.6170    3.3605   -3.1465 H       1  UNL1        0.0560
@<TRIPOS>UNITY_ATOM_ATTR
28 1
charge 1
@<TRIPOS>BOND
     1     1     2    2
     2     2     3    1
     3     3     4    1
     4     4     5    1
     5     5     6    1
     6     6     7    1
     7     7     8   ar
     8     8     9   ar
     9     9    10   ar
    10    10    11   ar
    11    11    12   ar
    12     7    12   ar
    13    12    13    1
    14    13    14    2
    15    13    15   am
    16     5    15    1
    17    15    16    1
    18    16    17   am
    19    17    18    2
    20    17    19    1
    21    19    20    1
    22    20    21    1
    23    21    22    2
    24    22    23   ar
    25    23    24   ar
    26    24    25   ar
    27    25    26   ar
    28    26    27   ar
    29    22    27   ar
    30    27    28    2
    31    28    29    1
    32    21    29    1
    33     2    30   am
    34    30    31    1
    35    32    33    1
    36    33    34    1
    37    34    35    1
    38    35    36    1
    39    32    36    1
    40    32    31    1
    41     3    37    1
    42     3    38    1
    43     5    39    1
    44     6    40    1
    45     8    41    1
    46     9    42    1
    47    10    43    1
    48    11    44    1
    49    16    45    1
    50    19    46    1
    51    19    47    1
    52    20    48    1
    53    20    49    1
    54    23    50    1
    55    24    51    1
    56    25    52    1
    57    26    53    1
    58    28    54    1
    59    29    55    1
    60    29    56    1
    61    30    57    1
    62    31    58    1
    63    31    59    1
    64    32    60    1
    65    33    61    1
    66    33    62    1
    67    34    63    1
    68    34    64    1
    69    35    65    1
    70    35    66    1
