REMARK  7 active torsions:
REMARK  status: ('A' for Active; 'I' for Inactive)
REMARK    1  A    between atoms: C_5  and  S_6 
REMARK    2  A    between atoms: S_6  and  N_9 
REMARK    3  A    between atoms: C_12  and  N_13 
REMARK    4  A    between atoms: N_13  and  N_14 
REMARK       I    between atoms: N_14  and  C_15 
REMARK    5  A    between atoms: C_15  and  C_17 
REMARK    6  A    between atoms: C_19  and  O_20 
REMARK    7  A    between atoms: C_22  and  O_23 
ROOT
ATOM      1  N   UNL d   1      -4.104   1.600  -0.061  0.00  0.00    -0.160 NA
ATOM      2  C   UNL d   1      -5.402   1.797  -0.061  0.00  0.00     0.079 A 
ATOM      3  C   UNL d   1      -5.904   3.215  -0.088  0.00  0.00     0.067 A 
ATOM      4  C   UNL d   1      -7.204   3.574  -0.148  0.00  0.00     0.096 A 
ATOM      5  C   UNL d   1      -8.272   2.516  -0.147  0.00  0.00     0.206 A 
ATOM      6  O   UNL d   1      -9.469   2.832  -0.174  0.00  0.00    -0.285 OA
ATOM      7  C   UNL d   1      -7.852   1.110  -0.112  0.00  0.00     0.007 A 
ATOM      8  C   UNL d   1      -6.545   0.807  -0.063  0.00  0.00    -0.015 A 
ATOM      9  C   UNL d   1      -6.176  -0.616  -0.078  0.00  0.00     0.068 C 
ATOM     10  C   UNL d   1      -7.130  -1.627  -0.518  0.00  0.00    -0.026 C 
ATOM     11  C   UNL d   1      -8.422  -1.331  -0.585  0.00  0.00    -0.026 C 
ATOM     12  C   UNL d   1      -8.923   0.034  -0.177  0.00  0.00     0.070 C 
ENDROOT
BRANCH   4  13
ATOM     13  N   UNL d   1      -7.684   4.875  -0.243  0.00  0.00    -0.311 N 
ATOM     14  H   UNL d   1      -8.713   4.944  -0.218  0.00  0.00     0.181 HD
BRANCH  13  15
ATOM     15  N   UNL d   1      -6.907   6.013   0.059  0.00  0.00    -0.169 NA
ATOM     16  C   UNL d   1      -7.470   7.276  -0.076  0.00  0.00     0.249 C 
ATOM     17  O   UNL d   1      -6.928   8.124  -0.782  0.00  0.00    -0.272 OA
ATOM     18  H   UNL d   1      -6.008   5.975  -0.413  0.00  0.00     0.156 HD
BRANCH  16  19
ATOM     19  C   UNL d   1      -8.636   7.637   0.780  0.00  0.00     0.033 A 
ATOM     20  C   UNL d   1      -9.136   8.950   0.756  0.00  0.00     0.053 A 
ATOM     21  C   UNL d   1     -10.169   9.303   1.627  0.00  0.00     0.069 A 
ATOM     22  C   UNL d   1     -10.717   8.373   2.509  0.00  0.00     0.073 A 
ATOM     23  C   UNL d   1     -10.214   7.082   2.525  0.00  0.00     0.069 A 
ATOM     24  C   UNL d   1      -9.171   6.719   1.689  0.00  0.00     0.053 A 
BRANCH  21  25
ATOM     25  O   UNL d   1     -10.679  10.569   1.663  0.00  0.00    -0.361 OA
ATOM     26  H   UNL d   1     -10.223  11.120   1.005  0.00  0.00     0.217 HD
ENDBRANCH  21  25
BRANCH  23  27
ATOM     27  O   UNL d   1     -10.689   6.114   3.356  0.00  0.00    -0.361 OA
ATOM     28  H   UNL d   1     -11.430   6.469   3.872  0.00  0.00     0.217 HD
ENDBRANCH  23  27
ENDBRANCH  16  19
ENDBRANCH  13  15
ENDBRANCH   4  13
BRANCH   1  29
ATOM     29  S   UNL d   1      -3.409   0.109  -0.051  0.00  0.00     0.283 S 
ATOM     30  O   UNL d   1      -3.594  -0.515  -1.349  0.00  0.00    -0.198 OA
ATOM     31  O   UNL d   1      -3.756  -0.555   1.193  0.00  0.00    -0.198 OA
BRANCH  29  32
ATOM     32  C   UNL d   1      -1.683   0.128   0.032  0.00  0.00     0.081 A 
ATOM     33  C   UNL d   1      -1.049  -1.131   0.027  0.00  0.00     0.026 A 
ATOM     34  C   UNL d   1       0.328  -1.184   0.017  0.00  0.00     0.008 A 
ATOM     35  C   UNL d   1       1.041   0.018   0.011  0.00  0.00    -0.062 A 
ATOM     36  C   UNL d   1       2.534   0.004  -0.013  0.00  0.00     0.048 C 
ATOM     37  C   UNL d   1       0.373   1.259   0.016  0.00  0.00     0.008 A 
ATOM     38  C   UNL d   1      -1.005   1.322   0.025  0.00  0.00     0.026 A 
ENDBRANCH  29  32
ENDBRANCH   1  29
TORSDOF 7
