@<TRIPOS>MOLECULE
*****
 55 58 0 0 0
SMALL
GASTEIGER

@<TRIPOS>ATOM
      1 C           2.4939   -0.0120   -0.0129 C.3     1  UNL1       -0.0397
      2 C           0.9961   -0.0259    0.0027 C.ar    1  UNL1       -0.0487
      3 C           0.2748   -1.2197    0.0044 C.ar    1  UNL1       -0.0587
      4 C          -1.1180   -1.1912   -0.0000 C.ar    1  UNL1       -0.0598
      5 C          -1.7941    0.0318   -0.0053 C.ar    1  UNL1       -0.0408
      6 C          -1.0956    1.2436    0.0046 C.ar    1  UNL1        0.0277
      7 N          -1.7895    2.4292   -0.0111 N.pl3   1  UNL1       -0.3366
      8 C          -1.1670    3.7477    0.0254 C.3     1  UNL1        0.0708
      9 C          -2.1378    4.8939    0.0426 C.ar    1  UNL1        0.1687
     10 N          -1.7582    6.1811    0.0333 N.ar    1  UNL1       -0.1552
     11 N          -2.9518    6.8018    0.0553 N.ar    1  UNL1       -0.2535
     12 C          -3.9780    5.9035    0.0792 C.ar    1  UNL1        0.1848
     13 S          -5.5999    6.4474    0.1161 S.3     1  UNL1       -0.0771
     14 C          -6.6420    4.9291    0.1478 C.3     1  UNL1        0.0779
     15 C          -8.1239    5.3548    0.1931 C.2     1  UNL1        0.2275
     16 O          -8.4499    6.5513    0.1923 O.2     1  UNL1       -0.2746
     17 N          -9.0737    4.3332    0.2725 N.am    1  UNL1       -0.2848
     18 C         -10.4715    4.6033    0.2345 C.ar    1  UNL1        0.0336
     19 C         -11.3917    3.8688    0.9918 C.ar    1  UNL1       -0.0370
     20 C         -12.7741    4.1536    0.9051 C.ar    1  UNL1       -0.0176
     21 C         -13.2414    5.1934    0.0885 C.ar    1  UNL1        0.1286
     22 O         -14.5967    5.4695    0.1234 O.3     1  UNL1       -0.4560
     23 C         -15.0681    6.5498   -0.5967 C.ar    1  UNL1        0.1284
     24 C         -15.6130    7.6345    0.0934 C.ar    1  UNL1       -0.0193
     25 C         -16.1470    8.7146   -0.6179 C.ar    1  UNL1       -0.0583
     26 C         -16.0759    8.7400   -2.0117 C.ar    1  UNL1       -0.0615
     27 C         -15.5338    7.6558   -2.7004 C.ar    1  UNL1       -0.0583
     28 C         -15.0679    6.5444   -1.9955 C.ar    1  UNL1       -0.0193
     29 C         -12.3172    5.9025   -0.6719 C.ar    1  UNL1       -0.0176
     30 C         -10.9584    5.6052   -0.6048 C.ar    1  UNL1       -0.0370
     31 N          -3.5081    4.6850    0.0715 N.ar    1  UNL1       -0.2040
     32 C           0.3018    1.1908    0.0048 C.ar    1  UNL1       -0.0379
     33 H           2.9040   -1.0258    0.0005 H       1  UNL1        0.0278
     34 H           2.8742    0.5207    0.8649 H       1  UNL1        0.0278
     35 H           2.8525    0.4882   -0.9186 H       1  UNL1        0.0278
     36 H           0.7908   -2.1759    0.0051 H       1  UNL1        0.0620
     37 H          -1.6796   -2.1212   -0.0027 H       1  UNL1        0.0618
     38 H          -2.8812    0.0295   -0.0179 H       1  UNL1        0.0636
     39 H          -2.8029    2.4377    0.0243 H       1  UNL1        0.1465
     40 H          -0.5200    3.8634   -0.8539 H       1  UNL1        0.0543
     41 H          -0.5319    3.8303    0.9176 H       1  UNL1        0.0543
     42 H          -2.9940    7.8143    0.0540 H       1  UNL1        0.1911
     43 H          -6.4091    4.3337    1.0357 H       1  UNL1        0.0475
     44 H          -6.4643    4.3377   -0.7561 H       1  UNL1        0.0475
     45 H          -8.7877    3.3870    0.4931 H       1  UNL1        0.1548
     46 H         -11.0588    3.1262    1.7132 H       1  UNL1        0.0637
     47 H         -13.4830    3.5742    1.4952 H       1  UNL1        0.0655
     48 H         -15.6163    7.6503    1.1796 H       1  UNL1        0.0654
     49 H         -16.6182    9.5390   -0.0880 H       1  UNL1        0.0619
     50 H         -16.4449    9.6033   -2.5609 H       1  UNL1        0.0618
     51 H         -15.4782    7.6730   -3.7857 H       1  UNL1        0.0619
     52 H         -14.6594    5.6957   -2.5362 H       1  UNL1        0.0654
     53 H         -12.6097    6.7063   -1.3365 H       1  UNL1        0.0655
     54 H         -10.2896    6.1771   -1.2409 H       1  UNL1        0.0637
     55 H           0.8826    2.1089    0.0025 H       1  UNL1        0.0639
@<TRIPOS>BOND
     1     1     2    1
     2     2     3   ar
     3     3     4   ar
     4     4     5   ar
     5     5     6   ar
     6     6     7    1
     7     7     8    1
     8     8     9    1
     9     9    10   ar
    10    10    11   ar
    11    11    12   ar
    12    12    13    1
    13    13    14    1
    14    14    15    1
    15    15    16    2
    16    15    17   am
    17    17    18    1
    18    18    19   ar
    19    19    20   ar
    20    20    21   ar
    21    21    22    1
    22    22    23    1
    23    23    24   ar
    24    24    25   ar
    25    25    26   ar
    26    26    27   ar
    27    27    28   ar
    28    23    28   ar
    29    21    29   ar
    30    29    30   ar
    31    18    30   ar
    32    12    31   ar
    33     9    31   ar
    34     6    32   ar
    35     2    32   ar
    36     1    33    1
    37     1    34    1
    38     1    35    1
    39     3    36    1
    40     4    37    1
    41     5    38    1
    42     7    39    1
    43     8    40    1
    44     8    41    1
    45    11    42    1
    46    14    43    1
    47    14    44    1
    48    17    45    1
    49    19    46    1
    50    20    47    1
    51    24    48    1
    52    25    49    1
    53    26    50    1
    54    27    51    1
    55    28    52    1
    56    29    53    1
    57    30    54    1
    58    32    55    1
