@<TRIPOS>MOLECULE
*****
 71 73 0 0 0
SMALL
GASTEIGER

@<TRIPOS>ATOM
      1 C           6.2442    6.7003    9.6109 C.3     1  UNL1       -0.0652
      2 C           5.9424    5.4622    8.7875 C.3     1  UNL1       -0.0545
      3 C           6.4152    5.6416    7.3452 C.3     1  UNL1       -0.0376
      4 C           6.0957    4.3992    6.5279 C.3     1  UNL1        0.0116
      5 N           6.3782    4.5578    5.1187 N.am    1  UNL1       -0.3135
      6 C           6.5124    3.4102    4.3316 C.2     1  UNL1        0.2383
      7 O           6.5376    2.3048    4.8410 O.2     1  UNL1       -0.2734
      8 C           6.8133    3.6737    2.7911 C.3     1  UNL1        0.1342
      9 C           5.9613    2.7759    1.8310 C.ar    1  UNL1        0.0648
     10 C           6.1401    2.6744    0.4305 C.ar    1  UNL1        0.1292
     11 O           6.9554    3.5204   -0.2923 O.3     1  UNL1       -0.5062
     12 C           5.7404    1.5051   -0.2778 C.ar    1  UNL1        0.0219
     13 C           4.9946    0.5243    0.3618 C.ar    1  UNL1        0.1238
     14 O           4.5901   -0.6259   -0.2459 O.3     1  UNL1       -0.5065
     15 C           4.5919    0.7245    1.6643 C.ar    1  UNL1        0.0219
     16 C           5.0185    1.8660    2.3486 C.ar    1  UNL1        0.1292
     17 O           4.3848    2.1297    3.5293 O.3     1  UNL1       -0.5062
     18 N           8.3535    3.5908    2.7547 N.am    1  UNL1       -0.2827
     19 C           9.1176    2.4991    2.1391 C.3     1  UNL1        0.0156
     20 C           8.4435    1.3489    1.4723 C.3     1  UNL1       -0.0400
     21 C           9.1896    0.4090    0.5710 C.3     1  UNL1       -0.0639
     22 C           9.0485    4.6556    3.4072 C.2     1  UNL1        0.2574
     23 O           8.3860    5.5891    3.8895 O.2     1  UNL1       -0.2716
     24 C          10.6728    4.6896    3.5035 C.3     1  UNL1        0.1924
     25 O          11.2149    3.5450    4.1761 O.3     1  UNL1       -0.3711
     26 C          11.2785    4.8395    2.0737 C.ar    1  UNL1       -0.0027
     27 C          11.8629    3.7716    1.3714 C.ar    1  UNL1       -0.0550
     28 C          12.3609    3.9385    0.0719 C.ar    1  UNL1       -0.0614
     29 C          12.3730    5.1918   -0.5295 C.ar    1  UNL1       -0.0617
     30 C          11.8209    6.2626    0.1347 C.ar    1  UNL1       -0.0614
     31 C          11.2042    6.0492    1.3587 C.ar    1  UNL1       -0.0550
     32 C          11.0849    5.8580    4.4672 C.ar    1  UNL1       -0.0027
     33 C          11.5687    5.6299    5.7680 C.ar    1  UNL1       -0.0550
     34 C          11.7359    6.6933    6.6667 C.ar    1  UNL1       -0.0614
     35 C          11.5687    8.0133    6.2528 C.ar    1  UNL1       -0.0617
     36 C          11.1573    8.2724    4.9652 C.ar    1  UNL1       -0.0614
     37 C          10.8451    7.2048    4.1402 C.ar    1  UNL1       -0.0550
     38 H           5.8936    6.5704   10.6389 H       1  UNL1        0.0230
     39 H           5.7454    7.5769    9.1859 H       1  UNL1        0.0230
     40 H           7.3209    6.8951    9.6362 H       1  UNL1        0.0230
     41 H           4.8631    5.2685    8.8047 H       1  UNL1        0.0263
     42 H           6.4328    4.5924    9.2416 H       1  UNL1        0.0263
     43 H           7.4970    5.8272    7.3292 H       1  UNL1        0.0280
     44 H           5.9348    6.5208    6.9009 H       1  UNL1        0.0280
     45 H           5.0283    4.1632    6.5953 H       1  UNL1        0.0462
     46 H           6.6526    3.5437    6.9251 H       1  UNL1        0.0462
     47 H           6.9886    5.3301    4.8406 H       1  UNL1        0.1487
     48 H           6.5514    4.7111    2.5445 H       1  UNL1        0.0650
     49 H           7.6493    3.8865    0.2841 H       1  UNL1        0.2922
     50 H           6.1429    1.3158   -1.2723 H       1  UNL1        0.0691
     51 H           4.8104   -0.5893   -1.1904 H       1  UNL1        0.2921
     52 H           3.9332    0.0053    2.1400 H       1  UNL1        0.0691
     53 H           4.3171    1.2937    4.0247 H       1  UNL1        0.2922
     54 H           9.7888    2.0575    2.8578 H       1  UNL1        0.0465
     55 H           9.6468    3.0082    1.3385 H       1  UNL1        0.0465
     56 H           7.9808    1.8568    0.6729 H       1  UNL1        0.0278
     57 H           7.7375    0.8444    2.1309 H       1  UNL1        0.0278
     58 H           9.7339    0.9786   -0.1931 H       1  UNL1        0.0230
     59 H           8.4310   -0.1754    0.0299 H       1  UNL1        0.0230
     60 H           9.8549   -0.2535    1.1102 H       1  UNL1        0.0230
     61 H          11.0949    2.7401    3.6728 H       1  UNL1        0.2116
     62 H          11.8668    2.7606    1.7700 H       1  UNL1        0.0621
     63 H          12.7499    3.0817   -0.4691 H       1  UNL1        0.0618
     64 H          12.7825    5.3374   -1.5220 H       1  UNL1        0.0618
     65 H          11.8267    7.2666   -0.2816 H       1  UNL1        0.0618
     66 H          10.6443    6.9040    1.6854 H       1  UNL1        0.0621
     67 H          11.7642    4.6207    6.1284 H       1  UNL1        0.0621
     68 H          11.9667    6.4864    7.7068 H       1  UNL1        0.0618
     69 H          11.7074    8.8405    6.9383 H       1  UNL1        0.0618
     70 H          10.9808    9.2805    4.6031 H       1  UNL1        0.0618
     71 H          10.2968    7.4964    3.2642 H       1  UNL1        0.0621
@<TRIPOS>BOND
     1     1     2    1
     2     2     3    1
     3     3     4    1
     4     4     5    1
     5     5     6   am
     6     6     7    2
     7     9    10   ar
     8    10    11    1
     9    10    12   ar
    10    12    13   ar
    11    13    14    1
    12    13    15   ar
    13    15    16   ar
    14     9    16   ar
    15    16    17    1
    16     8    18    1
    17    18    19    1
    18    19    20    1
    19    20    21    1
    20    18    22   am
    21    22    23    2
    22    22    24    1
    23    24    25    1
    24    24    26    1
    25    26    27   ar
    26    27    28   ar
    27    28    29   ar
    28    29    30   ar
    29    30    31   ar
    30    26    31   ar
    31    24    32    1
    32    32    33   ar
    33    33    34   ar
    34    34    35   ar
    35    35    36   ar
    36    36    37   ar
    37    32    37   ar
    38     8     9    1
    39     8     6    1
    40     1    38    1
    41     1    39    1
    42     1    40    1
    43     2    41    1
    44     2    42    1
    45     3    43    1
    46     3    44    1
    47     4    45    1
    48     4    46    1
    49     5    47    1
    50     8    48    1
    51    11    49    1
    52    12    50    1
    53    14    51    1
    54    15    52    1
    55    17    53    1
    56    19    54    1
    57    19    55    1
    58    20    56    1
    59    20    57    1
    60    21    58    1
    61    21    59    1
    62    21    60    1
    63    25    61    1
    64    27    62    1
    65    28    63    1
    66    29    64    1
    67    30    65    1
    68    31    66    1
    69    33    67    1
    70    34    68    1
    71    35    69    1
    72    36    70    1
    73    37    71    1
