REMARK  11 active torsions:
REMARK  status: ('A' for Active; 'I' for Inactive)
REMARK    1  A    between atoms: C_2  and  O_3 
REMARK    2  A    between atoms: O_3  and  C_4 
REMARK    3  A    between atoms: C_6  and  C_7 
REMARK       I    between atoms: C_7  and  N_9 
REMARK    4  A    between atoms: N_9  and  C_10 
REMARK    5  A    between atoms: C_10  and  N_12 
REMARK    6  A    between atoms: N_12  and  C_13 
REMARK    7  A    between atoms: C_14  and  O_15 
REMARK    8  A    between atoms: C_25  and  O_26 
REMARK    9  A    between atoms: O_26  and  C_27 
REMARK   10  A    between atoms: C_29  and  O_30 
REMARK   11  A    between atoms: O_30  and  C_31 
ROOT
ATOM      1  C   UNL d   1       6.700  -4.295   1.097  0.00  0.00     0.258 C 
ATOM      2  O   UNL d   1       5.875  -5.127   0.673  0.00  0.00    -0.267 OA
ATOM      3  N   UNL d   1       7.966  -4.673   1.585  0.00  0.00    -0.299 N 
ATOM      4  H   UNL d   1       8.644  -3.945   1.760  0.00  0.00     0.171 HD
ENDROOT
BRANCH   3   5
ATOM      5  C   UNL d   1       8.313  -5.979   2.013  0.00  0.00     0.179 C 
ATOM      6  S   UNL d   1       7.178  -7.175   2.377  0.00  0.00    -0.040 SA
BRANCH   5   7
ATOM      7  N   UNL d   1       9.697  -6.185   2.154  0.00  0.00    -0.330 N 
ATOM      8  H   UNL d   1      10.250  -5.426   2.540  0.00  0.00     0.168 HD
BRANCH   7   9
ATOM      9  C   UNL d   1      10.303  -7.493   2.302  0.00  0.00     0.079 C 
ATOM     10  C   UNL d   1      11.168  -7.702   3.415  0.00  0.00     0.093 C 
ATOM     11  C   UNL d   1      11.799  -8.923   3.625  0.00  0.00     0.040 C 
ATOM     12  C   UNL d   1      11.613  -9.944   2.707  0.00  0.00     0.015 C 
ATOM     13  C   UNL d   1      10.847  -9.748   1.552  0.00  0.00    -0.027 C 
ATOM     14  C   UNL d   1      10.887 -10.748   0.578  0.00  0.00    -0.005 C 
ATOM     15  C   UNL d   1      10.095  -8.570   1.321  0.00  0.00     0.003 C 
ATOM     16  C   UNL d   1      10.337 -10.533  -0.668  0.00  0.00     0.043 C 
ATOM     17  C   UNL d   1       9.162  -9.850  -0.611  0.00  0.00    -0.016 C 
ATOM     18  C   UNL d   1       9.217  -8.679   0.157  0.00  0.00     0.011 C 
BRANCH  10  19
ATOM     19  O   UNL d   1      11.392  -6.770   4.399  0.00  0.00    -0.358 OA
ATOM     20  H   UNL d   1      10.579  -6.259   4.531  0.00  0.00     0.217 HD
ENDBRANCH  10  19
ENDBRANCH   7   9
ENDBRANCH   5   7
ENDBRANCH   3   5
BRANCH   1  21
ATOM     21  C   UNL d   1       6.249  -2.866   0.998  0.00  0.00     0.037 A 
ATOM     22  C   UNL d   1       4.883  -2.624   0.649  0.00  0.00     0.057 A 
ATOM     23  C   UNL d   1       4.268  -1.349   0.709  0.00  0.00     0.105 A 
ATOM     24  C   UNL d   1       5.087  -0.276   1.145  0.00  0.00     0.135 A 
ATOM     25  C   UNL d   1       6.482  -0.495   1.403  0.00  0.00     0.105 A 
ATOM     26  C   UNL d   1       7.054  -1.778   1.315  0.00  0.00     0.057 A 
BRANCH  23  27
ATOM     27  O   UNL d   1       2.877  -1.406   0.598  0.00  0.00    -0.349 OA
BRANCH  27  28
ATOM     28  C   UNL d   1       2.179  -0.593  -0.355  0.00  0.00     0.171 C 
ATOM     29  C   UNL d   1       0.665  -0.507  -0.225  0.00  0.00     0.034 C 
ENDBRANCH  27  28
ENDBRANCH  23  27
BRANCH  24  30
ATOM     30  O   UNL d   1       4.709   0.997   1.501  0.00  0.00    -0.346 OA
BRANCH  30  31
ATOM     31  C   UNL d   1       3.506   1.479   1.036  0.00  0.00     0.171 C 
ATOM     32  C   UNL d   1       3.101   2.918   1.175  0.00  0.00     0.034 C 
ENDBRANCH  30  31
ENDBRANCH  24  30
BRANCH  25  33
ATOM     33  O   UNL d   1       7.398   0.468   1.826  0.00  0.00    -0.349 OA
BRANCH  33  34
ATOM     34  C   UNL d   1       6.890   1.791   2.025  0.00  0.00     0.171 C 
ATOM     35  C   UNL d   1       7.928   2.760   2.514  0.00  0.00     0.034 C 
ENDBRANCH  33  34
ENDBRANCH  25  33
ENDBRANCH   1  21
TORSDOF 11
