REMARK  8 active torsions:
REMARK  status: ('A' for Active; 'I' for Inactive)
REMARK    1  A    between atoms: C_2  and  C_5 
REMARK    2  A    between atoms: C_7  and  C_8 
REMARK    3  A    between atoms: C_11  and  N_12 
REMARK       I    between atoms: N_12  and  C_13 
REMARK    4  A    between atoms: C_13  and  C_15 
REMARK       I    between atoms: C_15  and  N_17 
REMARK    5  A    between atoms: N_17  and  C_18 
REMARK    6  A    between atoms: C_18  and  C_19 
REMARK    7  A    between atoms: C_19  and  C_20 
REMARK    8  A    between atoms: C_20  and  N_21 
ROOT
ATOM      1  N   UNL d   1       6.308   3.799   7.289  0.00  0.00    -0.319 N 
ATOM      2  C   UNL d   1       7.627   3.447   7.591  0.00  0.00     0.313 C 
ATOM      3  O   UNL d   1       8.424   2.817   6.899  0.00  0.00    -0.262 OA
ATOM      4  H   UNL d   1       5.788   4.299   8.008  0.00  0.00     0.169 HD
ENDROOT
BRANCH   1   5
ATOM      5  C   UNL d   1       5.614   3.428   6.097  0.00  0.00     0.035 A 
ATOM      6  C   UNL d   1       4.258   3.749   5.916  0.00  0.00     0.030 A 
ATOM      7  C   UNL d   1       3.554   3.294   4.775  0.00  0.00     0.017 A 
ATOM      8  C   UNL d   1       4.216   2.580   3.768  0.00  0.00     0.014 A 
ATOM      9  C   UNL d   1       5.560   2.273   3.942  0.00  0.00     0.017 A 
ATOM     10  C   UNL d   1       6.244   2.705   5.080  0.00  0.00     0.030 A 
BRANCH   8  11
ATOM     11  C   UNL d   1       3.575   2.223   2.515  0.00  0.00     0.189 A 
ATOM     12  N   UNL d   1       3.589   0.939   2.024  0.00  0.00    -0.203 NA
ATOM     13  C   UNL d   1       2.953   1.064   0.879  0.00  0.00     0.180 A 
ATOM     14  O   UNL d   1       2.608   2.356   0.598  0.00  0.00    -0.195 OA
ATOM     15  N   UNL d   1       3.017   3.122   1.691  0.00  0.00    -0.106 NA
BRANCH  13  16
ATOM     16  C   UNL d   1       2.474  -0.002  -0.064  0.00  0.00     0.018 C 
ATOM     17  C   UNL d   1       0.936  -0.014  -0.075  0.00  0.00     0.023 C 
ATOM     18  C   UNL d   1       2.975  -1.373   0.422  0.00  0.00     0.023 C 
ATOM     19  C   UNL d   1       2.989   0.235  -1.491  0.00  0.00     0.023 C 
ENDBRANCH  13  16
ENDBRANCH   8  11
ENDBRANCH   1   5
BRANCH   2  20
ATOM     20  C   UNL d   1       8.176   3.886   8.969  0.00  0.00     0.309 C 
ATOM     21  O   UNL d   1       7.478   4.498   9.770  0.00  0.00    -0.262 OA
ATOM     22  N   UNL d   1       9.504   3.518   9.184  0.00  0.00    -0.353 N 
ATOM     23  H   UNL d   1       9.944   3.004   8.419  0.00  0.00     0.162 HD
BRANCH  22  24
ATOM     24  C   UNL d   1      10.215   3.838  10.404  0.00  0.00     0.125 C 
BRANCH  24  25
ATOM     25  C   UNL d   1      11.662   3.342  10.420  0.00  0.00     0.040 C 
BRANCH  25  26
ATOM     26  C   UNL d   1      12.363   3.702  11.732  0.00  0.00     0.130 C 
BRANCH  26  27
ATOM     27  N   UNL d   1      13.753   3.215  11.753  0.00  0.00    -0.352 N 
ATOM     28  C   UNL d   1      14.149   1.880  11.780  0.00  0.00     0.108 A 
ATOM     29  C   UNL d   1      15.514   1.869  11.771  0.00  0.00     0.106 A 
ATOM     30  N   UNL d   1      15.909   3.185  11.766  0.00  0.00    -0.361 N 
ATOM     31  C   UNL d   1      14.847   3.997  11.766  0.00  0.00     0.182 A 
ATOM     32  H   UNL d   1      16.875   3.508  11.763  0.00  0.00     0.166 HD
ENDBRANCH  26  27
ENDBRANCH  25  26
ENDBRANCH  24  25
ENDBRANCH  22  24
ENDBRANCH   2  20
TORSDOF 8
