@<TRIPOS>MOLECULE
*****
 66 67 0 0 0
SMALL
GASTEIGER

@<TRIPOS>ATOM
      1 C           1.0276    0.1359    0.0569 C.3     1  UNL1       -0.0251
      2 C           2.5442    0.0454    0.0664 C.2     1  UNL1        0.0325
      3 N           3.2018   -1.0291    0.3609 N.2     1  UNL1       -0.2911
      4 C           2.4660   -2.2316    0.7240 C.3     1  UNL1        0.0396
      5 C           3.4580   -3.3363    1.0480 C.3     1  UNL1       -0.0334
      6 C           2.7073   -4.6092    1.4168 C.3     1  UNL1       -0.0514
      7 C           3.6828   -5.7276    1.7394 C.3     1  UNL1       -0.0530
      8 C           2.9271   -6.9945    2.1044 C.3     1  UNL1       -0.0531
      9 C           3.9070   -8.1095    2.4256 C.3     1  UNL1       -0.0531
     10 C           3.1532   -9.3759    2.7905 C.3     1  UNL1       -0.0531
     11 C           4.1325  -10.4909    3.1116 C.3     1  UNL1       -0.0531
     12 C           3.3764  -11.7579    3.4766 C.3     1  UNL1       -0.0530
     13 C           4.3551  -12.8721    3.7993 C.3     1  UNL1       -0.0514
     14 C           3.6176  -14.1494    4.1750 C.3     1  UNL1       -0.0334
     15 C           4.6340  -15.2331    4.5053 C.3     1  UNL1        0.0396
     16 N           3.9245  -16.4350    4.8917 N.2     1  UNL1       -0.2911
     17 C           4.5557  -17.5381    5.1300 C.2     1  UNL1        0.0325
     18 C           6.0654  -17.6348    5.1585 C.3     1  UNL1       -0.0251
     19 C           3.7013  -18.7525    5.4987 C.3     1  UNL1        0.1251
     20 S           2.1766  -18.7274    4.4534 S.3     1  UNL1       -0.0837
     21 C           2.4595  -20.2991    3.7929 C.2     1  UNL1        0.1139
     22 S           1.5630  -21.0219    2.6054 S.2     1  UNL1       -0.0277
     23 N           3.5162  -20.8835    4.4101 N.am    1  UNL1       -0.2731
     24 C           4.2403  -20.1563    5.3214 C.2     1  UNL1        0.2369
     25 O           5.1740  -20.6383    5.9494 O.2     1  UNL1       -0.2738
     26 C           3.3775    1.2701   -0.2671 C.3     1  UNL1        0.1251
     27 S           3.0049    1.9756   -1.9022 S.3     1  UNL1       -0.0837
     28 C           3.1180    3.6160   -1.3167 C.2     1  UNL1        0.1139
     29 S           3.0689    4.9927   -2.2340 S.2     1  UNL1       -0.0277
     30 N           3.2244    3.6243    0.0361 N.am    1  UNL1       -0.2731
     31 C           3.2801    2.4251    0.6996 C.2     1  UNL1        0.2369
     32 O           3.2928    2.3458    1.9151 O.2     1  UNL1       -0.2738
     33 H           0.5444   -0.8042    0.3319 H       1  UNL1        0.0290
     34 H           0.6728    0.3865   -0.9452 H       1  UNL1        0.0290
     35 H           0.6951    0.8934    0.7691 H       1  UNL1        0.0290
     36 H           1.8332   -2.5584   -0.1092 H       1  UNL1        0.0508
     37 H           1.8427   -2.0510    1.6083 H       1  UNL1        0.0508
     38 H           4.1066   -3.0291    1.8778 H       1  UNL1        0.0283
     39 H           4.1094   -3.5209    0.1850 H       1  UNL1        0.0283
     40 H           2.0575   -4.9134    0.5865 H       1  UNL1        0.0266
     41 H           2.0580   -4.4236    2.2817 H       1  UNL1        0.0266
     42 H           4.3303   -5.4285    2.5725 H       1  UNL1        0.0265
     43 H           4.3303   -5.9179    0.8749 H       1  UNL1        0.0265
     44 H           2.2788   -7.2969    1.2726 H       1  UNL1        0.0265
     45 H           2.2788   -6.8080    2.9695 H       1  UNL1        0.0265
     46 H           4.5551   -7.8083    3.2578 H       1  UNL1        0.0265
     47 H           4.5551   -8.2973    1.5607 H       1  UNL1        0.0265
     48 H           2.5052   -9.6773    1.9583 H       1  UNL1        0.0265
     49 H           2.5053   -9.1883    3.6555 H       1  UNL1        0.0265
     50 H           4.7811  -10.1888    3.9433 H       1  UNL1        0.0265
     51 H           4.7812  -10.6777    2.2467 H       1  UNL1        0.0265
     52 H           2.7295  -12.0582    2.6436 H       1  UNL1        0.0265
     53 H           2.7292  -11.5680    4.3413 H       1  UNL1        0.0265
     54 H           5.0054  -12.5635    4.6274 H       1  UNL1        0.0266
     55 H           5.0032  -13.0577    2.9335 H       1  UNL1        0.0266
     56 H           2.9719  -14.4695    3.3469 H       1  UNL1        0.0283
     57 H           2.9614  -13.9677    5.0354 H       1  UNL1        0.0283
     58 H           5.2718  -14.8868    5.3252 H       1  UNL1        0.0508
     59 H           5.2448  -15.4191    3.6144 H       1  UNL1        0.0508
     60 H           6.5491  -16.6912    4.8916 H       1  UNL1        0.0290
     61 H           6.4044  -18.3872    4.4451 H       1  UNL1        0.0290
     62 H           6.3956  -17.8897    6.1682 H       1  UNL1        0.0290
     63 H           3.4101  -18.6540    6.5492 H       1  UNL1        0.0573
     64 H           3.7347  -21.8551    4.2387 H       1  UNL1        0.1558
     65 H           4.4323    0.9728   -0.2881 H       1  UNL1        0.0573
     66 H           3.2291    4.4895    0.5577 H       1  UNL1        0.1558
@<TRIPOS>BOND
     1     1     2    1
     2     2     3    2
     3     3     4    1
     4     4     5    1
     5     5     6    1
     6     6     7    1
     7     7     8    1
     8     8     9    1
     9     9    10    1
    10    10    11    1
    11    11    12    1
    12    12    13    1
    13    13    14    1
    14    14    15    1
    15    15    16    1
    16    16    17    2
    17    17    18    1
    18    17    19    1
    19    19    20    1
    20    20    21    1
    21    21    22    2
    22    21    23    1
    23    23    24   am
    24    19    24    1
    25    24    25    2
    26     2    26    1
    27    26    27    1
    28    27    28    1
    29    28    29    2
    30    28    30    1
    31    30    31   am
    32    26    31    1
    33    31    32    2
    34     1    33    1
    35     1    34    1
    36     1    35    1
    37     4    36    1
    38     4    37    1
    39     5    38    1
    40     5    39    1
    41     6    40    1
    42     6    41    1
    43     7    42    1
    44     7    43    1
    45     8    44    1
    46     8    45    1
    47     9    46    1
    48     9    47    1
    49    10    48    1
    50    10    49    1
    51    11    50    1
    52    11    51    1
    53    12    52    1
    54    12    53    1
    55    13    54    1
    56    13    55    1
    57    14    56    1
    58    14    57    1
    59    15    58    1
    60    15    59    1
    61    18    60    1
    62    18    61    1
    63    18    62    1
    64    19    63    1
    65    23    64    1
    66    26    65    1
    67    30    66    1
