REMARK  8 active torsions:
REMARK  status: ('A' for Active; 'I' for Inactive)
REMARK    1  A    between atoms: O_2  and  C_3 
REMARK    2  A    between atoms: C_3  and  C_5 
REMARK    3  A    between atoms: C_5  and  N_6 
REMARK       I    between atoms: N_6  and  C_7 
REMARK    4  A    between atoms: C_7  and  C_9 
REMARK    5  A    between atoms: C_12  and  N_13 
REMARK    6  A    between atoms: N_13  and  C_14 
REMARK    7  A    between atoms: C_14  and  C_15 
REMARK    8  A    between atoms: C_25  and  N_26 
ROOT
ATOM      1  C   UNL d   1       6.975  -3.143  -2.724  0.00  0.00     0.034 A 
ATOM      2  C   UNL d   1       8.008  -3.988  -2.337  0.00  0.00     0.019 A 
ATOM      3  C   UNL d   1       8.516  -4.940  -3.235  0.00  0.00     0.032 A 
ATOM      4  C   UNL d   1       7.985  -5.132  -4.540  0.00  0.00     0.061 A 
ATOM      5  C   UNL d   1       6.965  -4.209  -4.944  0.00  0.00     0.130 A 
ATOM      6  C   UNL d   1       6.476  -3.245  -4.018  0.00  0.00     0.055 A 
ENDROOT
BRANCH   4   7
ATOM      7  N   UNL d   1       8.542  -6.226  -5.214  0.00  0.00    -0.382 N 
ATOM      8  H   UNL d   1       9.244  -6.792  -4.742  0.00  0.00     0.160 HD
BRANCH   7   9
ATOM      9  C   UNL d   1       8.060  -6.636  -6.499  0.00  0.00     0.178 C 
BRANCH   9  10
ATOM     10  C   UNL d   1       8.577  -7.900  -7.007  0.00  0.00     0.044 A 
ATOM     11  C   UNL d   1       8.116  -9.174  -6.809  0.00  0.00     0.125 A 
ATOM     12  N   UNL d   1       8.832  -9.998  -7.651  0.00  0.00    -0.311 N 
ATOM     13  C   UNL d   1       8.755 -11.377  -7.787  0.00  0.00     0.014 A 
ATOM     14  C   UNL d   1       9.677  -9.244  -8.382  0.00  0.00     0.112 A 
ATOM     15  C   UNL d   1       7.806 -12.209  -6.978  0.00  0.00     0.068 C 
ATOM     16  C   UNL d   1       9.601 -11.929  -8.686  0.00  0.00     0.025 A 
ATOM     17  C   UNL d   1      10.534 -11.161  -9.504  0.00  0.00     0.006 A 
ATOM     18  C   UNL d   1      10.589  -9.826  -9.384  0.00  0.00     0.049 A 
ATOM     19  N   UNL d   1       9.517  -7.981  -8.019  0.00  0.00    -0.343 N 
ATOM     20  H   UNL d   1       9.983  -7.188  -8.454  0.00  0.00     0.167 HD
ENDBRANCH   9  10
ENDBRANCH   7   9
ENDBRANCH   4   7
BRANCH   5  21
ATOM     21  N   UNL d   1       6.312  -4.071  -6.290  0.00  0.00    -0.113 N 
ATOM     22  O   UNL d   1       6.633  -4.791  -7.240  0.00  0.00    -0.532 OA
ATOM     23  O   UNL d   1       5.441  -3.205  -6.419  0.00  0.00    -0.532 OA
ENDBRANCH   5  21
BRANCH   1  24
ATOM     24  C   UNL d   1       6.512  -2.068  -1.804  0.00  0.00     0.252 C 
ATOM     25  N   UNL d   1       5.155  -1.857  -1.707  0.00  0.00    -0.348 N 
ATOM     26  H   UNL d   1       4.489  -2.453  -2.188  0.00  0.00     0.163 HD
ATOM     27  O   UNL d   1       7.347  -1.431  -1.170  0.00  0.00    -0.268 OA
BRANCH  25  28
ATOM     28  C   UNL d   1       4.588  -0.870  -0.775  0.00  0.00     0.233 C 
BRANCH  28  29
ATOM     29  C   UNL d   1       3.058  -0.913  -0.805  0.00  0.00     0.276 C 
ATOM     30  O   UNL d   1       2.421  -1.693  -1.506  0.00  0.00    -0.263 OA
BRANCH  29  31
ATOM     31  O   UNL d   1       2.505   0.006   0.038  0.00  0.00    -0.325 OA
ATOM     32  C   UNL d   1       1.069   0.018   0.052  0.00  0.00     0.213 C 
ENDBRANCH  29  31
ENDBRANCH  28  29
ENDBRANCH  25  28
ENDBRANCH   1  24
TORSDOF 8
