@<TRIPOS>MOLECULE
*****
 44 46 0 0 0
SMALL
GASTEIGER

@<TRIPOS>ATOM
      1 O           0.9682    0.0915   -0.0546 O.2     1  UNL1       -0.2749
      2 C           2.1971   -0.0329    0.0043 C.2     1  UNL1        0.2236
      3 C           2.9282   -1.2403    0.6170 C.3     1  UNL1        0.0777
      4 S           1.7380   -2.4759    1.2164 S.3     1  UNL1       -0.0750
      5 C           2.7023   -3.7877    1.8444 C.ar    1  UNL1        0.2105
      6 N           2.2987   -5.0509    1.6627 N.ar    1  UNL1       -0.1443
      7 N           3.1788   -5.7282    2.4188 N.ar    1  UNL1       -0.2446
      8 C           4.0865   -4.8944    3.0180 C.ar    1  UNL1        0.2317
      9 N           5.0818   -5.3723    3.8246 N.pl3   1  UNL1       -0.2054
     10 N           5.9301   -4.4976    4.4349 N.2     1  UNL1       -0.1875
     11 C           6.8501   -4.9231    5.2399 C.2     1  UNL1        0.0542
     12 C           7.7107   -3.9379    5.9549 C.ar    1  UNL1        0.0128
     13 C           9.0921   -4.1746    6.0749 C.ar    1  UNL1       -0.0517
     14 C           9.9170   -3.2335    6.7138 C.ar    1  UNL1       -0.0611
     15 C           9.3723   -2.0640    7.2416 C.ar    1  UNL1       -0.0603
     16 C           8.0017   -1.8370    7.1428 C.ar    1  UNL1       -0.0428
     17 C           7.1689   -2.7674    6.5096 C.ar    1  UNL1        0.0496
     18 CL          5.4748   -2.4214    6.5447 Cl      1  UNL1       -0.0829
     19 N           3.7975   -3.6553    2.6537 N.ar    1  UNL1       -0.1865
     20 N           2.9370    0.9893   -0.5273 N.am    1  UNL1       -0.3105
     21 C           4.3783    1.1176   -0.5751 C.3     1  UNL1        0.0369
     22 C           4.8056    2.4253   -1.2032 C.ar    1  UNL1       -0.0289
     23 C           5.7537    2.4638   -2.2361 C.ar    1  UNL1       -0.0556
     24 C           6.1214    3.6832   -2.8199 C.ar    1  UNL1       -0.0417
     25 C           5.5508    4.8803   -2.3773 C.ar    1  UNL1        0.0593
     26 CL          6.0391    6.3457   -3.1514 Cl      1  UNL1       -0.0820
     27 C           4.6180    4.8575   -1.3380 C.ar    1  UNL1        0.0596
     28 CL          3.8433    6.2861   -0.7518 Cl      1  UNL1       -0.0820
     29 C           4.2653    3.6397   -0.7456 C.ar    1  UNL1       -0.0373
     30 H           3.5530   -0.8837    1.4402 H       1  UNL1        0.0475
     31 H           3.5556   -1.6830   -0.1629 H       1  UNL1        0.0475
     32 H           3.0992   -6.7355    2.4723 H       1  UNL1        0.1919
     33 H           5.1318   -6.3603    4.0662 H       1  UNL1        0.1774
     34 H           7.0419   -5.9952    5.4294 H       1  UNL1        0.0852
     35 H           9.5526   -5.0667    5.6569 H       1  UNL1        0.0624
     36 H          10.9901   -3.4014    6.7974 H       1  UNL1        0.0618
     37 H          10.0063   -1.3296    7.7353 H       1  UNL1        0.0618
     38 H           7.5761   -0.9317    7.5697 H       1  UNL1        0.0632
     39 H           2.3653    1.7305   -0.9198 H       1  UNL1        0.1490
     40 H           4.7618    0.2640   -1.1430 H       1  UNL1        0.0512
     41 H           4.7674    1.0534    0.4459 H       1  UNL1        0.0512
     42 H           6.2123    1.5476   -2.6056 H       1  UNL1        0.0621
     43 H           6.8488    3.6938   -3.6295 H       1  UNL1        0.0633
     44 H           3.5473    3.6342    0.0732 H       1  UNL1        0.0636
@<TRIPOS>BOND
     1     1     2    2
     2     2     3    1
     3     3     4    1
     4     4     5    1
     5     5     6   ar
     6     6     7   ar
     7     7     8   ar
     8     8     9    1
     9     9    10    1
    10    10    11    2
    11    11    12    1
    12    12    13   ar
    13    13    14   ar
    14    14    15   ar
    15    15    16   ar
    16    16    17   ar
    17    12    17   ar
    18    17    18    1
    19     8    19   ar
    20     5    19   ar
    21     2    20   am
    22    20    21    1
    23    21    22    1
    24    22    23   ar
    25    23    24   ar
    26    24    25   ar
    27    25    26    1
    28    25    27   ar
    29    27    28    1
    30    27    29   ar
    31    22    29   ar
    32     3    30    1
    33     3    31    1
    34     7    32    1
    35     9    33    1
    36    11    34    1
    37    13    35    1
    38    14    36    1
    39    15    37    1
    40    16    38    1
    41    20    39    1
    42    21    40    1
    43    21    41    1
    44    23    42    1
    45    24    43    1
    46    29    44    1
