REMARK  10 active torsions:
REMARK  status: ('A' for Active; 'I' for Inactive)
REMARK    1  A    between atoms: C_2  and  C_3 
REMARK       I    between atoms: C_2  and  N_24 
REMARK    2  A    between atoms: C_3  and  N_4 
REMARK    3  A    between atoms: N_4  and  C_5 
REMARK    4  A    between atoms: C_8  and  C_9 
REMARK    5  A    between atoms: C_9  and  C_10 
REMARK    6  A    between atoms: C_10  and  N_11 
REMARK    7  A    between atoms: C_14  and  C_15 
REMARK    8  A    between atoms: N_24  and  C_25 
REMARK    9  A    between atoms: C_29  and  C_30 
REMARK       I    between atoms: C_30  and  N_32 
REMARK   10  A    between atoms: N_32  and  C_33 
ROOT
ATOM      1  N   UNL d   1       2.066   1.570  -1.816  0.00  0.00    -0.381 N 
ATOM      2  H   UNL d   1       1.068   1.506  -1.641  0.00  0.00     0.160 HD
ENDROOT
BRANCH   1   3
ATOM      3  C   UNL d   1       2.971   0.814  -0.968  0.00  0.00     0.223 C 
BRANCH   3   4
ATOM      4  C   UNL d   1       2.268  -0.005   0.127  0.00  0.00     0.239 C 
ATOM      5  O   UNL d   1       1.040  -0.054   0.229  0.00  0.00    -0.271 OA
ATOM      6  N   UNL d   1       3.052  -0.790   0.957  0.00  0.00    -0.326 N 
ATOM      7  H   UNL d   1       2.532  -1.458   1.516  0.00  0.00     0.169 HD
BRANCH   6   8
ATOM      8  C   UNL d   1       4.452  -0.776   1.076  0.00  0.00     0.035 A 
ATOM      9  C   UNL d   1       5.155  -1.955   1.320  0.00  0.00     0.029 A 
ATOM     10  C   UNL d   1       6.545  -1.907   1.470  0.00  0.00     0.003 A 
ATOM     11  C   UNL d   1       7.228  -0.693   1.317  0.00  0.00     0.017 A 
ATOM     12  C   UNL d   1       6.522   0.498   1.089  0.00  0.00     0.034 A 
ATOM     13  C   UNL d   1       5.140   0.436   1.032  0.00  0.00     0.046 A 
BRANCH  12  14
ATOM     14  C   UNL d   1       7.240   1.798   0.991  0.00  0.00     0.252 C 
ATOM     15  O   UNL d   1       8.472   1.767   1.118  0.00  0.00    -0.268 OA
ATOM     16  N   UNL d   1       6.544   3.005   0.799  0.00  0.00    -0.352 N 
ATOM     17  H   UNL d   1       5.537   3.055   0.706  0.00  0.00     0.163 HD
BRANCH  16  18
ATOM     18  C   UNL d   1       7.303   4.222   0.881  0.00  0.00     0.084 A 
ATOM     19  C   UNL d   1       7.399   5.104  -0.344  0.00  0.00     0.027 A 
ATOM     20  C   UNL d   1       6.939   5.671   0.961  0.00  0.00     0.027 A 
ENDBRANCH  16  18
ENDBRANCH  12  14
ENDBRANCH   6   8
ENDBRANCH   3   4
ENDBRANCH   1   3
BRANCH   1  21
ATOM     21  C   UNL d   1       2.579   2.311  -2.865  0.00  0.00     0.028 A 
ATOM     22  C   UNL d   1       2.127   3.603  -3.136  0.00  0.00     0.029 A 
ATOM     23  C   UNL d   1       2.672   4.354  -4.194  0.00  0.00     0.009 A 
ATOM     24  C   UNL d   1       3.739   3.858  -4.962  0.00  0.00    -0.056 A 
ATOM     25  C   UNL d   1       4.182   2.562  -4.688  0.00  0.00     0.009 A 
ATOM     26  C   UNL d   1       3.619   1.815  -3.653  0.00  0.00     0.029 A 
BRANCH  24  27
ATOM     27  C   UNL d   1       4.400   4.748  -6.005  0.00  0.00     0.061 C 
BRANCH  27  28
ATOM     28  C   UNL d   1       5.601   4.119  -6.726  0.00  0.00     0.174 C 
BRANCH  28  29
ATOM     29  N   UNL d   1       6.245   4.906  -7.755  0.00  0.00    -0.191 N 
ATOM     30  N   UNL d   1       6.152   6.241  -7.864  0.00  0.00     0.024 NA
ATOM     31  N   UNL d   1       6.872   6.543  -8.943  0.00  0.00    -0.136 NA
ATOM     32  C   UNL d   1       7.374   5.358  -9.434  0.00  0.00     0.198 A 
ATOM     33  N   UNL d   1       6.998   4.301  -8.695  0.00  0.00    -0.136 NA
BRANCH  32  34
ATOM     34  C   UNL d   1       8.132   5.236 -10.674  0.00  0.00     0.015 A 
ATOM     35  C   UNL d   1       9.334   5.924 -10.887  0.00  0.00     0.015 A 
ATOM     36  C   UNL d   1      10.026   5.783 -12.101  0.00  0.00     0.001 A 
ATOM     37  C   UNL d   1       9.553   4.915 -13.086  0.00  0.00     0.000 A 
ATOM     38  C   UNL d   1       8.366   4.219 -12.879  0.00  0.00     0.001 A 
ATOM     39  C   UNL d   1       7.658   4.385 -11.685  0.00  0.00     0.015 A 
ENDBRANCH  32  34
ENDBRANCH  28  29
ENDBRANCH  27  28
ENDBRANCH  24  27
ENDBRANCH   1  21
TORSDOF 10
