REMARK  12 active torsions:
REMARK  status: ('A' for Active; 'I' for Inactive)
REMARK    1  A    between atoms: C_2  and  C_3 
REMARK    2  A    between atoms: C_3  and  C_4 
REMARK    3  A    between atoms: C_4  and  C_5 
REMARK    4  A    between atoms: C_5  and  O_6 
REMARK    5  A    between atoms: O_6  and  C_7 
REMARK    6  A    between atoms: C_7  and  C_9 
REMARK    7  A    between atoms: C_10  and  N_11 
REMARK    8  A    between atoms: N_11  and  S_12 
REMARK    9  A    between atoms: S_12  and  C_15 
REMARK   10  A    between atoms: N_22  and  C_23 
REMARK   11  A    between atoms: C_23  and  C_24 
REMARK   12  A    between atoms: C_24  and  C_25 
ROOT
ATOM      1  C   UNL d   1       9.303   3.746   3.775  0.00  0.00     0.166 C 
ATOM      2  C   UNL d   1       9.308   4.902   3.023  0.00  0.00     0.168 C 
ATOM      3  N   UNL d   1      10.676   4.604   2.606  0.00  0.00    -0.233 NA
ATOM      4  C   UNL d   1      11.413   5.186   3.546  0.00  0.00     0.134 C 
ATOM      5  N   UNL d   1      12.452   5.927   3.195  0.00  0.00    -0.232 NA
ATOM      6  C   UNL d   1      12.911   6.800   4.021  0.00  0.00     0.087 C 
ATOM      7  C   UNL d   1      14.006   7.559   3.448  0.00  0.00     0.034 C 
ATOM      8  C   UNL d   1      14.817   8.448   4.130  0.00  0.00     0.002 C 
ATOM      9  C   UNL d   1      14.460   8.613   5.436  0.00  0.00     0.002 C 
ATOM     10  C   UNL d   1      13.200   7.992   5.918  0.00  0.00     0.034 C 
ATOM     11  C   UNL d   1      12.278   6.919   5.263  0.00  0.00     0.086 C 
ATOM     12  N   UNL d   1      10.896   6.006   5.553  0.00  0.00    -0.246 NA
ATOM     13  C   UNL d   1      10.596   4.833   4.626  0.00  0.00     0.100 C 
ENDROOT
BRANCH   2  14
ATOM     14  N   UNL d   1       8.596   5.966   3.799  0.00  0.00    -0.286 N 
ATOM     15  H   UNL d   1       9.092   6.396   4.583  0.00  0.00     0.174 HD
BRANCH  14  16
ATOM     16  S   UNL d   1       6.942   5.775   4.183  0.00  0.00     0.260 S 
ATOM     17  O   UNL d   1       6.163   6.134   3.006  0.00  0.00    -0.200 OA
ATOM     18  O   UNL d   1       6.737   4.589   5.019  0.00  0.00    -0.200 OA
BRANCH  16  19
ATOM     19  C   UNL d   1       6.439   6.963   5.268  0.00  0.00     0.079 C 
ATOM     20  C   UNL d   1       5.444   6.668   6.213  0.00  0.00     0.026 C 
ATOM     21  C   UNL d   1       4.903   7.736   6.868  0.00  0.00     0.008 C 
ATOM     22  C   UNL d   1       5.456   9.002   6.629  0.00  0.00    -0.062 C 
ATOM     23  C   UNL d   1       4.876  10.198   7.288  0.00  0.00     0.048 C 
ATOM     24  C   UNL d   1       6.529   9.210   5.745  0.00  0.00     0.008 C 
ATOM     25  C   UNL d   1       6.963   8.189   4.975  0.00  0.00     0.026 C 
ENDBRANCH  16  19
ENDBRANCH  14  16
ENDBRANCH   2  14
BRANCH   1  26
ATOM     26  C   UNL d   1       7.719   3.157   3.097  0.00  0.00     0.279 C 
ATOM     27  O   UNL d   1       6.832   3.986   2.838  0.00  0.00    -0.264 OA
BRANCH  26  28
ATOM     28  O   UNL d   1       7.173   2.019   2.283  0.00  0.00    -0.320 OA
BRANCH  28  29
ATOM     29  C   UNL d   1       5.508   2.220   1.891  0.00  0.00     0.178 C 
BRANCH  29  30
ATOM     30  C   UNL d   1       4.733   1.180   0.976  0.00  0.00     0.027 C 
BRANCH  30  31
ATOM     31  C   UNL d   1       3.141   1.231   0.957  0.00  0.00     0.002 C 
BRANCH  31  32
ATOM     32  C   UNL d   1       2.537   0.094   0.087  0.00  0.00    -0.004 C 
ATOM     33  C   UNL d   1       1.008   0.082   0.076  0.00  0.00     0.005 C 
ENDBRANCH  31  32
ENDBRANCH  30  31
ENDBRANCH  29  30
ENDBRANCH  28  29
ENDBRANCH  26  28
ENDBRANCH   1  26
BRANCH   3  34
ATOM     34  C   UNL d   1      11.430   3.374   2.239  0.00  0.00     0.104 C 
BRANCH  34  35
ATOM     35  C   UNL d   1      10.543   2.339   1.658  0.00  0.00     0.053 C 
BRANCH  35  36
ATOM     36  C   UNL d   1      11.311   1.301   0.939  0.00  0.00    -0.057 C 
ATOM     37  C   UNL d   1      12.173   1.654  -0.100  0.00  0.00     0.007 C 
ATOM     38  C   UNL d   1      12.594   0.674  -0.978  0.00  0.00     0.001 C 
ATOM     39  C   UNL d   1      12.290  -0.659  -0.715  0.00  0.00     0.000 C 
ATOM     40  C   UNL d   1      11.602  -1.020   0.442  0.00  0.00     0.001 C 
ATOM     41  C   UNL d   1      11.059  -0.035   1.243  0.00  0.00     0.007 C 
ENDBRANCH  35  36
ENDBRANCH  34  35
ENDBRANCH   3  34
TORSDOF 12
