@<TRIPOS>MOLECULE
*****
 39 39 0 0 0
SMALL
GASTEIGER

@<TRIPOS>ATOM
      1 C           0.8393   -0.0255    0.0021 C.3     1  UNL1       -0.0652
      2 C           2.3365   -0.0645    0.0323 C.3     1  UNL1       -0.0538
      3 C           3.0315   -0.5522    1.2922 C.3     1  UNL1       -0.0261
      4 C           4.5988   -0.5107    1.2286 C.3     1  UNL1        0.1022
      5 N           5.1306    0.8360    0.9031 N.am    1  UNL1       -0.2882
      6 C           4.9406    1.6438   -0.1777 C.2     1  UNL1        0.2976
      7 N           4.4672    1.1014   -1.3190 N.am    1  UNL1       -0.3133
      8 O           5.1669    2.8470   -0.1193 O.2     1  UNL1       -0.2531
      9 C           5.1404   -1.0842    2.6121 C.2     1  UNL1        0.2494
     10 O           4.3775   -1.5256    3.4791 O.2     1  UNL1       -0.2722
     11 N           6.5160   -1.1718    2.7969 N.am    1  UNL1       -0.2326
     12 N           7.0266   -1.7698    4.0172 N.am    1  UNL1       -0.2303
     13 C           8.4017   -1.8132    4.2470 C.2     1  UNL1        0.2601
     14 O           9.2140   -1.3994    3.4217 O.2     1  UNL1       -0.2687
     15 C           8.9084   -2.3938    5.5501 C.ar    1  UNL1        0.0382
     16 C           8.3545   -3.5451    6.1257 C.ar    1  UNL1       -0.0484
     17 C           8.9560   -4.1490    7.2518 C.ar    1  UNL1       -0.0436
     18 C          10.1208   -3.6181    7.8182 C.ar    1  UNL1        0.0518
     19 C          10.7826   -4.3025    8.9027 C.1     1  UNL1        0.0992
     20 N          11.3188   -4.8728    9.7527 N.1     1  UNL1       -0.1909
     21 C          10.6559   -2.4456    7.2816 C.ar    1  UNL1       -0.0436
     22 C          10.0589   -1.8449    6.1535 C.ar    1  UNL1       -0.0484
     23 H           0.5411    0.4057   -0.9638 H       1  UNL1        0.0230
     24 H           0.4680    0.6260    0.7944 H       1  UNL1        0.0230
     25 H           0.4305   -1.0301    0.0846 H       1  UNL1        0.0230
     26 H           2.5891    0.9849   -0.1013 H       1  UNL1        0.0263
     27 H           2.6449   -0.6959   -0.8065 H       1  UNL1        0.0263
     28 H           2.7089   -1.5854    1.4754 H       1  UNL1        0.0288
     29 H           2.6828    0.0516    2.1381 H       1  UNL1        0.0288
     30 H           4.9442   -1.1791    0.4313 H       1  UNL1        0.0595
     31 H           5.5257    1.3608    1.6747 H       1  UNL1        0.1510
     32 H           4.1774    0.1428   -1.3569 H       1  UNL1        0.1465
     33 H           3.9250    1.7284   -1.9087 H       1  UNL1        0.1465
     34 H           7.2063   -0.8931    2.1015 H       1  UNL1        0.1729
     35 H           6.3277   -2.0228    4.7141 H       1  UNL1        0.1731
     36 H           7.4892   -4.0289    5.6823 H       1  UNL1        0.0625
     37 H           8.5256   -5.0611    7.6663 H       1  UNL1        0.0631
     38 H          11.5552   -2.0069    7.7164 H       1  UNL1        0.0631
     39 H          10.5206   -0.9496    5.7387 H       1  UNL1        0.0625
@<TRIPOS>BOND
     1     1     2    1
     2     2     3    1
     3     3     4    1
     4     4     5    1
     5     5     6   am
     6     6     7   am
     7     6     8    2
     8     4     9    1
     9     9    10    2
    10     9    11   am
    11    11    12    1
    12    12    13   am
    13    13    14    2
    14    13    15    1
    15    15    16   ar
    16    16    17   ar
    17    17    18   ar
    18    18    19    1
    19    19    20    3
    20    18    21   ar
    21    21    22   ar
    22    15    22   ar
    23     1    23    1
    24     1    24    1
    25     1    25    1
    26     2    26    1
    27     2    27    1
    28     3    28    1
    29     3    29    1
    30     4    30    1
    31     5    31    1
    32     7    32    1
    33     7    33    1
    34    11    34    1
    35    12    35    1
    36    16    36    1
    37    17    37    1
    38    21    38    1
    39    22    39    1
