@<TRIPOS>MOLECULE
*****
 36 38 0 0 0
SMALL
GASTEIGER

@<TRIPOS>ATOM
      1 C           1.0563    0.0657    0.0442 C.3     1  UNL1       -0.0203
      2 C           2.5804    0.0591    0.0376 C.2     1  UNL1        0.0634
      3 N           3.1988   -0.2463    1.1468 N.2     1  UNL1       -0.1843
      4 N           4.5775   -0.1925    1.2308 N.am    1  UNL1       -0.2027
      5 C           5.2497   -0.6028    2.3773 C.2     1  UNL1        0.2653
      6 O           4.6946   -0.9997    3.4053 O.2     1  UNL1       -0.2684
      7 C           6.7169   -0.5834    2.2735 C.ar    1  UNL1        0.0633
      8 C           7.5523   -1.5703    2.7761 C.ar    1  UNL1        0.0149
      9 N           8.8544   -1.2281    2.5215 N.ar    1  UNL1       -0.3599
     10 C           8.9075    0.0110    1.9261 C.ar    1  UNL1        0.0472
     11 C          10.0143    0.7916    1.5577 C.ar    1  UNL1       -0.0378
     12 C           9.7627    2.0567    1.0188 C.ar    1  UNL1       -0.0598
     13 C           8.4591    2.5115    0.8410 C.ar    1  UNL1       -0.0611
     14 C           7.3675    1.7117    1.1958 C.ar    1  UNL1       -0.0519
     15 C           7.5849    0.4350    1.7508 C.ar    1  UNL1        0.0118
     16 C           3.2295    0.4190   -1.2529 C.ar    1  UNL1       -0.0025
     17 C           4.3114   -0.3350   -1.7191 C.ar    1  UNL1       -0.0528
     18 C           5.0681    0.1275   -2.7919 C.ar    1  UNL1       -0.0611
     19 C           4.6631    1.2654   -3.4869 C.ar    1  UNL1       -0.0617
     20 C           3.5285    1.9687   -3.0818 C.ar    1  UNL1       -0.0611
     21 C           2.8173    1.5566   -1.9544 C.ar    1  UNL1       -0.0528
     22 H           0.6671   -0.2286    1.0232 H       1  UNL1        0.0293
     23 H           0.6732   -0.6316   -0.7078 H       1  UNL1        0.0293
     24 H           0.6684    1.0650   -0.1771 H       1  UNL1        0.0293
     25 H           5.1232    0.0972    0.4303 H       1  UNL1        0.1776
     26 H           7.3188   -2.4887    3.2999 H       1  UNL1        0.0815
     27 H           9.6640   -1.7773    2.7807 H       1  UNL1        0.1654
     28 H          11.0349    0.4487    1.7051 H       1  UNL1        0.0638
     29 H          10.5959    2.7022    0.7479 H       1  UNL1        0.0618
     30 H           8.2817    3.5055    0.4387 H       1  UNL1        0.0618
     31 H           6.3590    2.0958    1.0807 H       1  UNL1        0.0624
     32 H           4.5947   -1.2603   -1.2213 H       1  UNL1        0.0624
     33 H           5.9813   -0.3903   -3.0744 H       1  UNL1        0.0618
     34 H           5.2328    1.6030   -4.3488 H       1  UNL1        0.0618
     35 H           3.2185    2.8586   -3.6243 H       1  UNL1        0.0618
     36 H           1.9701    2.1510   -1.6237 H       1  UNL1        0.0624
@<TRIPOS>BOND
     1     1     2    1
     2     2     3    2
     3     3     4    1
     4     4     5   am
     5     5     6    2
     6     5     7    1
     7     7     8   ar
     8     8     9   ar
     9     9    10   ar
    10    10    11   ar
    11    11    12   ar
    12    12    13   ar
    13    13    14   ar
    14    14    15   ar
    15     7    15   ar
    16    10    15   ar
    17     2    16    1
    18    16    17   ar
    19    17    18   ar
    20    18    19   ar
    21    19    20   ar
    22    20    21   ar
    23    16    21   ar
    24     1    22    1
    25     1    23    1
    26     1    24    1
    27     4    25    1
    28     8    26    1
    29     9    27    1
    30    11    28    1
    31    12    29    1
    32    13    30    1
    33    14    31    1
    34    17    32    1
    35    18    33    1
    36    19    34    1
    37    20    35    1
    38    21    36    1
