REMARK  4 active torsions:
REMARK  status: ('A' for Active; 'I' for Inactive)
REMARK       I    between atoms: C_2  and  N_3 
REMARK    1  A    between atoms: C_2  and  C_15 
REMARK    2  A    between atoms: N_3  and  N_4 
REMARK       I    between atoms: N_4  and  C_5 
REMARK    3  A    between atoms: C_5  and  C_7 
REMARK    4  A    between atoms: C_19  and  O_20 
ROOT
ATOM      1  O   UNL d   1       1.120   0.019   0.007  0.00  0.00    -0.266 OA
ATOM      2  C   UNL d   1       2.351  -0.019   0.056  0.00  0.00     0.270 C 
ATOM      3  N   UNL d   1       3.070   0.443   1.149  0.00  0.00    -0.263 N 
ATOM      4  H   UNL d   1       4.086   0.536   1.157  0.00  0.00     0.190 HD
ENDROOT
BRANCH   3   5
ATOM      5  N   UNL d   1       2.381   1.024   2.254  0.00  0.00    -0.263 N 
ATOM      6  C   UNL d   1       3.132   1.564   3.291  0.00  0.00     0.271 C 
ATOM      7  O   UNL d   1       4.362   1.516   3.287  0.00  0.00    -0.266 OA
ATOM      8  H   UNL d   1       1.366   1.068   2.178  0.00  0.00     0.190 HD
BRANCH   6   9
ATOM      9  C   UNL d   1       2.407   2.184   4.449  0.00  0.00     0.055 A 
ATOM     10  C   UNL d   1       1.300   1.529   5.021  0.00  0.00     0.020 A 
ATOM     11  C   UNL d   1       0.688   2.037   6.181  0.00  0.00     0.025 A 
ATOM     12  C   UNL d   1       1.169   3.200   6.777  0.00  0.00     0.035 A 
ATOM     13 CL   UNL d   1       0.423   3.811   8.204  0.00  0.00    -0.084 Cl
ATOM     14  C   UNL d   1       2.255   3.868   6.222  0.00  0.00     0.048 A 
ATOM     15  C   UNL d   1       2.875   3.363   5.066  0.00  0.00     0.051 A 
ATOM     16 CL   UNL d   1       4.189   4.297   4.439  0.00  0.00    -0.083 Cl
ENDBRANCH   6   9
ENDBRANCH   3   5
BRANCH   2  17
ATOM     17  C   UNL d   1       3.133  -0.544  -1.109  0.00  0.00     0.036 A 
ATOM     18  C   UNL d   1       2.690  -0.268  -2.414  0.00  0.00     0.017 A 
ATOM     19  C   UNL d   1       3.409  -0.731  -3.527  0.00  0.00     0.004 A 
ATOM     20  C   UNL d   1       4.566  -1.490  -3.348  0.00  0.00     0.036 A 
ATOM     21  C   UNL d   1       4.983  -1.789  -2.054  0.00  0.00     0.066 A 
ATOM     22  C   UNL d   1       4.276  -1.332  -0.937  0.00  0.00     0.053 A 
BRANCH  21  23
ATOM     23  O   UNL d   1       6.103  -2.537  -1.824  0.00  0.00    -0.361 OA
ATOM     24  H   UNL d   1       6.529  -2.753  -2.670  0.00  0.00     0.217 HD
ENDBRANCH  21  23
ENDBRANCH   2  17
TORSDOF 4
