REMARK  9 active torsions:
REMARK  status: ('A' for Active; 'I' for Inactive)
REMARK    1  A    between atoms: CG_2  and  CB_4 
REMARK    2  A    between atoms: CA_5  and  CB_4 
REMARK    3  A    between atoms: CA_5  and  C_32 
REMARK    4  A    between atoms: CA_5  and  N_6 
REMARK       I    between atoms: N_6  and  C_7 
REMARK    5  A    between atoms: C_7  and  C_9 
REMARK    6  A    between atoms: C_9  and  C_10 
REMARK    7  A    between atoms: C_9  and  N_20 
REMARK    8  A    between atoms: C_10  and  C_11 
REMARK    9  A    between atoms: C_30  and  O_31 
ROOT
ATOM      1  C   UNK d   0       0.652   0.198   0.018  0.00  0.00     0.188 C 
ENDROOT
BRANCH   1   2
ATOM      2  C   UNK d   0       2.102  -0.418   0.433  0.00  0.00     0.241 C 
ATOM      3  N   LEU d   1       2.956   0.360   1.211  0.00  0.00    -0.345 N 
ATOM      4  H   LEU d   1       2.631   0.599   2.146  0.00  0.00     0.163 HD
ATOM      5  O   UNK d   0       2.469  -1.485  -0.068  0.00  0.00    -0.271 OA
BRANCH   3   6
ATOM      6  CA  LEU d   1       4.477   0.406   1.213  0.00  0.00     0.185 C 
BRANCH   6   7
ATOM      7  C   LEU d   1       5.099   0.828   2.610  0.00  0.00     0.196 C 
ATOM      8  O   LEU d   1       4.292   0.768   3.586  0.00  0.00    -0.646 OA
ATOM      9  OXT LEU d   1       6.333   1.113   2.624  0.00  0.00    -0.646 OA
ENDBRANCH   6   7
BRANCH   6  10
ATOM     10  CB  LEU d   1       5.089   1.406   0.159  0.00  0.00     0.040 C 
BRANCH  10  11
ATOM     11  CG  LEU d   1       4.726   1.086  -1.291  0.00  0.00    -0.020 C 
ATOM     12  CD1 LEU d   1       3.274   1.351  -1.487  0.00  0.00     0.009 C 
ATOM     13  CD2 LEU d   1       5.327   1.899  -2.417  0.00  0.00     0.009 C 
ENDBRANCH  10  11
ENDBRANCH   6  10
ENDBRANCH   3   6
ENDBRANCH   1   2
BRANCH   1  14
ATOM     14  C   UNK d   0       0.265   1.618   0.551  0.00  0.00     0.076 C 
BRANCH  14  15
ATOM     15  C   UNK d   0       0.649   1.894   1.982  0.00  0.00    -0.028 A 
ATOM     16  C   UNK d   0       0.215   1.200   3.098  0.00  0.00     0.096 A 
ATOM     17  N   UNK d   0       1.016   1.554   4.156  0.00  0.00    -0.365 N 
ATOM     18  C   UNK d   0       1.867   2.574   3.796  0.00  0.00     0.042 A 
ATOM     19  H   UNK d   0       1.061   1.076   5.046  0.00  0.00     0.165 HD
ATOM     20  C   UNK d   0       2.885   3.202   4.532  0.00  0.00     0.030 A 
ATOM     21  C   UNK d   0       1.668   2.807   2.434  0.00  0.00    -0.002 A 
ATOM     22  C   UNK d   0       3.726   4.094   3.858  0.00  0.00     0.002 A 
ATOM     23  C   UNK d   0       3.562   4.338   2.499  0.00  0.00     0.001 A 
ATOM     24  C   UNK d   0       2.546   3.698   1.780  0.00  0.00     0.014 A 
ENDBRANCH  14  15
ENDBRANCH   1  14
BRANCH   1  25
ATOM     25  N   UNK d   0       0.188  -0.014  -1.468  0.00  0.00    -0.290 N 
ATOM     26  C   UNK d   0       0.903   0.267  -2.626  0.00  0.00     0.260 C 
ATOM     27  O   UNK d   0       1.804  -0.474  -3.075  0.00  0.00    -0.267 OA
ATOM     28  C   UNK d   0       0.372   1.305  -3.550  0.00  0.00     0.058 A 
ATOM     29  C   UNK d   0       1.140   1.859  -4.588  0.00  0.00     0.019 A 
ATOM     30  C   UNK d   0      -0.970   1.650  -3.378  0.00  0.00     0.047 A 
ATOM     31  C   UNK d   0       0.562   2.768  -5.474  0.00  0.00     0.001 A 
ATOM     32  C   UNK d   0      -0.785   3.099  -5.333  0.00  0.00     0.002 A 
ATOM     33  C   UNK d   0      -1.543   2.545  -4.290  0.00  0.00     0.030 A 
ATOM     34  N   UNK d   0      -1.694   1.067  -2.352  0.00  0.00    -0.346 N 
ATOM     35  C   UNK d   0      -1.206  -0.136  -1.737  0.00  0.00     0.332 C 
ATOM     36  H   UNK d   0      -2.649   1.333  -2.176  0.00  0.00     0.164 HD
BRANCH  35  37
ATOM     37  O   UNK d   0      -1.416  -1.220  -2.619  0.00  0.00    -0.359 OA
ATOM     38  H   UNK d   0      -0.795  -1.083  -3.355  0.00  0.00     0.214 HD
ENDBRANCH  35  37
ENDBRANCH   1  25
TORSDOF 9
