@<TRIPOS>MOLECULE
*****
 33 34 0 0 0
SMALL
GASTEIGER

@<TRIPOS>ATOM
      1 C           0.9539    0.0614    0.0955 C.3     1  UNL1       -0.0560
      2 C           2.5011    0.0534    0.1006 C.3     1  UNL1       -0.0126
      3 C           3.0157    0.0204   -1.3541 C.3     1  UNL1       -0.0560
      4 C           2.9941    1.3383    0.7739 C.3     1  UNL1       -0.0560
      5 C           2.9665   -1.1974    0.8354 C.ar    1  UNL1       -0.0409
      6 C           2.5486   -2.4100    0.3197 C.ar    1  UNL1       -0.0574
      7 C           2.8225   -3.5930    0.9657 C.ar    1  UNL1       -0.0525
      8 C           3.5417   -3.6495    2.1769 C.ar    1  UNL1        0.0013
      9 C           3.9070   -4.7667    3.0346 C.ar    1  UNL1        0.0526
     10 C           3.6073   -6.2060    2.8780 C.2     1  UNL1        0.2585
     11 O           4.0133   -7.0468    3.6865 O.2     1  UNL1       -0.2689
     12 N           2.8566   -6.5867    1.7687 N.am    1  UNL1       -0.2495
     13 N           2.4546   -7.9130    1.5339 N.3     1  UNL1       -0.2541
     14 C           4.6510   -4.3117    4.1140 C.ar    1  UNL1       -0.0110
     15 S           4.8961   -2.6270    4.1261 S.2     1  UNL1       -0.0959
     16 C           4.0071   -2.4233    2.6711 C.ar    1  UNL1        0.0203
     17 C           3.7379   -1.2002    2.0102 C.ar    1  UNL1       -0.0437
     18 H           0.5633    0.9417   -0.4219 H       1  UNL1        0.0238
     19 H           0.5580    0.0543    1.1184 H       1  UNL1        0.0238
     20 H           0.5311   -0.8149   -0.4122 H       1  UNL1        0.0238
     21 H           2.6738    0.8980   -1.9109 H       1  UNL1        0.0238
     22 H           2.6616   -0.8592   -1.9056 H       1  UNL1        0.0238
     23 H           4.1112   -0.0047   -1.3844 H       1  UNL1        0.0238
     24 H           2.6340    2.2249    0.2449 H       1  UNL1        0.0238
     25 H           4.0896    1.3778    0.7895 H       1  UNL1        0.0238
     26 H           2.6377    1.4011    1.8091 H       1  UNL1        0.0238
     27 H           1.9646   -2.4752   -0.5950 H       1  UNL1        0.0621
     28 H           2.4148   -4.4367    0.4387 H       1  UNL1        0.0624
     29 H           2.4085   -5.9028    1.1943 H       1  UNL1        0.1690
     30 H           2.8920   -8.4984    2.2528 H       1  UNL1        0.1405
     31 H           2.8585   -8.2117    0.6427 H       1  UNL1        0.1405
     32 H           5.0752   -4.9041    4.9149 H       1  UNL1        0.0701
     33 H           4.1173   -0.2783    2.4432 H       1  UNL1        0.0632
@<TRIPOS>BOND
     1     1     2    1
     2     2     3    1
     3     2     4    1
     4     2     5    1
     5     5     6   ar
     6     6     7   ar
     7     7     8   ar
     8     8     9   ar
     9     9    10    1
    10    10    11    2
    11    10    12   am
    12    12    13    1
    13     9    14   ar
    14    14    15   ar
    15    15    16   ar
    16     8    16   ar
    17    16    17   ar
    18     5    17   ar
    19     1    18    1
    20     1    19    1
    21     1    20    1
    22     3    21    1
    23     3    22    1
    24     3    23    1
    25     4    24    1
    26     4    25    1
    27     4    26    1
    28     6    27    1
    29     7    28    1
    30    12    29    1
    31    13    30    1
    32    13    31    1
    33    14    32    1
    34    17    33    1
