REMARK  17 active torsions:
REMARK  status: ('A' for Active; 'I' for Inactive)
REMARK    1  A    between atoms: C_2  and  C_3 
REMARK    2  A    between atoms: C_3  and  C_4 
REMARK    3  A    between atoms: C_4  and  C_5 
REMARK    4  A    between atoms: C_6  and  C_5 
REMARK    5  A    between atoms: C_6  and  C_19 
REMARK    6  A    between atoms: C_6  and  C_7 
REMARK    7  A    between atoms: C_7  and  C_8 
REMARK       I    between atoms: C_8  and  N_10 
REMARK    8  A    between atoms: N_10  and  O_11 
REMARK    9  A    between atoms: O_11  and  C_12 
REMARK   10  A    between atoms: C_12  and  C_13 
REMARK       I    between atoms: C_19  and  N_21 
REMARK   11  A    between atoms: C_22  and  N_21 
REMARK   12  A    between atoms: C_22  and  C_39 
REMARK   13  A    between atoms: C_22  and  C_23 
REMARK       I    between atoms: C_23  and  N_25 
REMARK   14  A    between atoms: C_29  and  C_30 
REMARK   15  A    between atoms: C_30  and  O_31 
REMARK   16  A    between atoms: O_31  and  C_32 
REMARK   17  A    between atoms: C_32  and  C_33 
ROOT
ATOM      1  C   UNL d   1       8.066  -2.334   5.910  0.00  0.00     0.223 C 
ATOM      2  O   UNL d   1       7.660  -3.232   6.616  0.00  0.00    -0.273 OA
ATOM      3  N   UNL d   1       8.394  -1.126   6.509  0.00  0.00    -0.347 N 
ATOM      4  H   UNL d   1       8.370  -1.248   7.521  0.00  0.00     0.163 HD
ENDROOT
BRANCH   3   5
ATOM      5  C   UNL d   1       9.107   0.116   6.039  0.00  0.00     0.180 C 
BRANCH   5   6
ATOM      6  C   UNL d   1      10.658  -0.026   6.209  0.00  0.00     0.009 C 
ATOM      7  C   UNL d   1      11.418   1.118   5.542  0.00  0.00     0.012 C 
ATOM      8  C   UNL d   1      11.119  -0.026   7.648  0.00  0.00     0.012 C 
ENDBRANCH   5   6
BRANCH   5   9
ATOM      9  C   UNL d   1       8.963   0.550   4.540  0.00  0.00     0.243 C 
ATOM     10  O   UNL d   1       9.514  -0.157   3.672  0.00  0.00    -0.271 OA
ATOM     11  N   UNL d   1       8.533   1.835   4.229  0.00  0.00    -0.344 N 
ATOM     12  C   UNL d   1       9.586   2.688   3.777  0.00  0.00     0.126 C 
ATOM     13  C   UNL d   1       7.345   2.309   3.431  0.00  0.00     0.111 C 
ATOM     14  C   UNL d   1       8.891   4.011   3.743  0.00  0.00     0.022 C 
ATOM     15  C   UNL d   1       7.682   3.711   2.946  0.00  0.00     0.029 C 
BRANCH  13  16
ATOM     16  C   UNL d   1       7.069   1.747   2.088  0.00  0.00     0.193 C 
BRANCH  16  17
ATOM     17  O   UNL d   1       5.984   2.402   1.344  0.00  0.00    -0.385 OA
BRANCH  17  18
ATOM     18  C   UNL d   1       5.853   1.711   0.079  0.00  0.00     0.206 C 
BRANCH  18  19
ATOM     19  C   UNL d   1       4.900   2.041  -1.117  0.00  0.00    -0.035 A 
ATOM     20  C   UNL d   1       3.776   2.665  -0.657  0.00  0.00     0.009 A 
ATOM     21  C   UNL d   1       2.628   2.659  -1.435  0.00  0.00     0.001 A 
ATOM     22  C   UNL d   1       2.570   2.105  -2.723  0.00  0.00     0.000 A 
ATOM     23  C   UNL d   1       3.656   1.448  -3.244  0.00  0.00     0.001 A 
ATOM     24  C   UNL d   1       4.812   1.441  -2.461  0.00  0.00     0.009 A 
ENDBRANCH  18  19
ENDBRANCH  17  18
ENDBRANCH  16  17
ENDBRANCH  13  16
ENDBRANCH   5   9
ENDBRANCH   3   5
BRANCH   1  25
ATOM     25  C   UNL d   1       8.148  -2.498   4.380  0.00  0.00     0.086 C 
BRANCH  25  26
ATOM     26  C   UNL d   1       7.841  -3.943   3.836  0.00  0.00     0.119 C 
BRANCH  26  27
ATOM     27  C   UNL d   1       7.986  -4.179   2.306  0.00  0.00     0.241 C 
ATOM     28  O   UNL d   1       8.972  -3.775   1.622  0.00  0.00    -0.271 OA
ATOM     29  N   UNL d   1       6.870  -4.731   1.718  0.00  0.00    -0.235 N 
ATOM     30  H   UNL d   1       6.610  -5.643   2.068  0.00  0.00     0.197 HD
BRANCH  29  31
ATOM     31  O   UNL d   1       6.838  -4.552   0.302  0.00  0.00    -0.273 OA
BRANCH  31  32
ATOM     32  C   UNL d   1       6.266  -5.685  -0.338  0.00  0.00     0.240 C 
BRANCH  32  33
ATOM     33  C   UNL d   1       6.111  -5.444  -1.819  0.00  0.00    -0.032 A 
ATOM     34  C   UNL d   1       6.223  -6.522  -2.705  0.00  0.00     0.009 A 
ATOM     35  C   UNL d   1       6.204  -6.306  -4.083  0.00  0.00     0.001 A 
ATOM     36  C   UNL d   1       5.966  -5.029  -4.589  0.00  0.00     0.000 A 
ATOM     37  C   UNL d   1       5.788  -3.959  -3.718  0.00  0.00     0.001 A 
ATOM     38  C   UNL d   1       5.856  -4.169  -2.342  0.00  0.00     0.009 A 
ENDBRANCH  32  33
ENDBRANCH  31  32
ENDBRANCH  29  31
ENDBRANCH  26  27
ENDBRANCH  25  26
BRANCH  25  39
ATOM     39  C   UNL d   1       7.176  -1.498   3.693  0.00  0.00     0.014 C 
BRANCH  39  40
ATOM     40  C   UNL d   1       7.314  -1.717   2.207  0.00  0.00     0.001 C 
BRANCH  40  41
ATOM     41  C   UNL d   1       7.035  -0.729   1.154  0.00  0.00    -0.000 C 
BRANCH  41  42
ATOM     42  C   UNL d   1       7.207  -1.141  -0.287  0.00  0.00    -0.005 C 
ATOM     43  C   UNL d   1       6.641  -0.343  -1.414  0.00  0.00     0.005 C 
ENDBRANCH  41  42
ENDBRANCH  40  41
ENDBRANCH  39  40
ENDBRANCH  25  39
ENDBRANCH   1  25
TORSDOF 17
