REMARK  6 active torsions:
REMARK  status: ('A' for Active; 'I' for Inactive)
REMARK    1  A    between atoms: C_2  and  C_3 
REMARK    2  A    between atoms: C_3  and  C_4 
REMARK    3  A    between atoms: C_4  and  N_5 
REMARK    4  A    between atoms: C_9  and  C_10 
REMARK    5  A    between atoms: C_10  and  C_11 
REMARK    6  A    between atoms: C_14  and  O_15 
ROOT
ATOM      1  N   UNL d   1       4.892  -2.837   0.810  0.00  0.00    -0.288 N 
ATOM      2  C   UNL d   1       6.200  -2.871   0.748  0.00  0.00     0.233 C 
ATOM      3  O   UNL d   1       6.745  -2.019   0.048  0.00  0.00    -0.272 OA
ATOM      4  C   UNL d   1       6.728  -4.149   1.371  0.00  0.00     0.128 A 
ATOM      5  C   UNL d   1       8.231  -4.296   1.160  0.00  0.00     0.240 A 
ATOM      6  N   UNL d   1       8.393  -5.372   0.216  0.00  0.00     0.114 N 
ATOM      7  C   UNL d   1       7.054  -5.930  -0.122  0.00  0.00     0.279 A 
ATOM      8  C   UNL d   1       6.973  -5.963  -1.682  0.00  0.00     0.267 A 
ATOM      9  O   UNL d   1       6.934  -5.020  -2.432  0.00  0.00    -0.270 OA
ATOM     10  N   UNL d   1       7.037  -7.310  -2.071  0.00  0.00    -0.324 N 
ATOM     11  C   UNL d   1       7.154  -8.172  -0.993  0.00  0.00     0.044 A 
ATOM     12  C   UNL d   1       7.257  -9.556  -1.036  0.00  0.00     0.031 A 
ATOM     13  C   UNL d   1       7.422 -10.241   0.172  0.00  0.00     0.021 A 
ATOM     14  C   UNL d   1       7.533  -9.523   1.372  0.00  0.00     0.011 A 
ATOM     15 BR   UNL d   1       7.783 -10.482   2.989  0.00  0.00    -0.051 Br
ATOM     16  C   UNL d   1       7.440  -8.120   1.395  0.00  0.00     0.031 A 
ATOM     17  C   UNL d   1       7.183  -7.445   0.198  0.00  0.00     0.019 A 
ATOM     18  C   UNL d   1       5.877  -5.168   0.628  0.00  0.00     0.147 A 
ATOM     19  C   UNL d   1       4.560  -4.142   0.595  0.00  0.00     0.234 C 
ATOM     20  O   UNL d   1       3.398  -4.529   0.700  0.00  0.00    -0.272 OA
ATOM     21  H   UNL d   1       9.047  -6.070   0.577  0.00  0.00     0.318 HD
ATOM     22  H   UNL d   1       7.044  -7.583  -3.042  0.00  0.00     0.169 HD
ENDROOT
BRANCH   5  23
ATOM     23  C   UNL d   1       8.958  -3.032   0.653  0.00  0.00     0.075 C 
BRANCH  23  24
ATOM     24  C   UNL d   1       8.751  -1.825   1.587  0.00  0.00    -0.056 C 
ATOM     25  C   UNL d   1       8.143  -1.929   2.861  0.00  0.00     0.010 C 
ATOM     26  C   UNL d   1       7.622  -0.810   3.512  0.00  0.00     0.037 C 
ATOM     27  C   UNL d   1       7.852   0.445   2.974  0.00  0.00     0.065 C 
ATOM     28  C   UNL d   1       8.524   0.586   1.766  0.00  0.00     0.037 C 
ATOM     29  C   UNL d   1       8.906  -0.544   1.041  0.00  0.00     0.010 C 
BRANCH  27  30
ATOM     30  O   UNL d   1       7.411   1.575   3.596  0.00  0.00    -0.361 OA
ATOM     31  H   UNL d   1       6.936   1.323   4.404  0.00  0.00     0.217 HD
ENDBRANCH  27  30
ENDBRANCH  23  24
ENDBRANCH   5  23
BRANCH   1  32
ATOM     32  C   UNL d   1       4.318  -1.520   0.446  0.00  0.00     0.135 C 
BRANCH  32  33
ATOM     33  C   UNL d   1       2.829  -1.382   0.446  0.00  0.00     0.020 C 
BRANCH  33  34
ATOM     34  C   UNL d   1       2.393   0.019   0.002  0.00  0.00    -0.003 C 
ATOM     35  C   UNL d   1       0.877   0.063  -0.016  0.00  0.00     0.005 C 
ENDBRANCH  33  34
ENDBRANCH  32  33
ENDBRANCH   1  32
TORSDOF 6
