REMARK  9 active torsions:
REMARK  status: ('A' for Active; 'I' for Inactive)
REMARK    1  A    between atoms: C_2  and  C_3 
REMARK       I    between atoms: C_2  and  N_18 
REMARK    2  A    between atoms: C_3  and  S_4 
REMARK    3  A    between atoms: S_4  and  C_5 
REMARK    4  A    between atoms: C_8  and  N_9 
REMARK    5  A    between atoms: N_9  and  C_10 
REMARK    6  A    between atoms: N_18  and  CA_19 
REMARK    7  A    between atoms: CA_19  and  CB_20 
REMARK    8  A    between atoms: CA_19  and  C_30 
REMARK    9  A    between atoms: CB_20  and  CG_21 
ROOT
ATOM      1  O   UNK d   0       0.705  -0.116  -0.403  0.00  0.00    -0.273 OA
ATOM      2  C   UNK d   0       1.904  -0.013  -0.069  0.00  0.00     0.227 C 
ATOM      3  N   TRP d   1       2.858  -0.387  -0.991  0.00  0.00    -0.346 N 
ATOM      4  H   TRP d   1       2.474  -0.642  -1.902  0.00  0.00     0.163 HD
ENDROOT
BRANCH   2   5
ATOM      5  C   UNK d   0       2.271   0.480   1.326  0.00  0.00     0.179 C 
BRANCH   5   6
ATOM      6  S   UNK d   0       0.917   0.570   2.656  0.00  0.00    -0.128 SA
BRANCH   6   7
ATOM      7  C   UNK d   0       1.855   1.035   4.155  0.00  0.00     0.198 C 
ATOM      8  N   UNK d   0       1.849   0.184   5.376  0.00  0.00    -0.235 NA
ATOM      9  N   UNK d   0       2.095   1.016   6.591  0.00  0.00    -0.228 NA
ATOM     10  H   UNK d   0       2.619  -0.480   5.317  0.00  0.00     0.142 HD
ATOM     11  C   UNK d   0       2.383   2.421   6.272  0.00  0.00     0.235 C 
ATOM     12  H   UNK d   0       2.838   0.648   7.189  0.00  0.00     0.143 HD
ATOM     13  S   UNK d   0       1.655   2.740   4.654  0.00  0.00    -0.096 SA
BRANCH  11  14
ATOM     14  N   UNK d   0       1.954   3.502   7.118  0.00  0.00    -0.364 N 
ATOM     15  H   UNK d   0       1.173   4.005   6.714  0.00  0.00     0.162 HD
BRANCH  14  16
ATOM     16  C   UNK d   0       2.080   3.452   8.494  0.00  0.00     0.032 A 
ATOM     17  C   UNK d   0       2.960   2.569   9.140  0.00  0.00     0.029 A 
ATOM     18  C   UNK d   0       3.097   2.534  10.524  0.00  0.00     0.005 A 
ATOM     19  C   UNK d   0       2.394   3.446  11.294  0.00  0.00     0.042 A 
ATOM     20  C   UNK d   0       1.564   4.370  10.667  0.00  0.00     0.118 A 
ATOM     21  F   UNK d   0       0.911   5.270  11.413  0.00  0.00    -0.206 F 
ATOM     22  C   UNK d   0       1.403   4.382   9.284  0.00  0.00     0.071 A 
ENDBRANCH  14  16
ENDBRANCH  11  14
ENDBRANCH   6   7
ENDBRANCH   5   6
ENDBRANCH   2   5
BRANCH   3  23
ATOM     23  CA  TRP d   1       4.373  -0.409  -1.090  0.00  0.00     0.190 C 
BRANCH  23  24
ATOM     24  CB  TRP d   1       5.094  -1.389  -0.150  0.00  0.00     0.077 C 
BRANCH  24  25
ATOM     25  CG  TRP d   1       5.046  -1.015   1.298  0.00  0.00    -0.028 A 
ATOM     26  CD1 TRP d   1       4.520  -1.813   2.299  0.00  0.00     0.096 A 
ATOM     27  NE1 TRP d   1       4.475  -1.064   3.447  0.00  0.00    -0.365 N 
ATOM     28  CE2 TRP d   1       4.963   0.224   3.217  0.00  0.00     0.042 A 
ATOM     29  HE1 TRP d   1       3.854  -1.331   4.195  0.00  0.00     0.165 HD
ATOM     30  CZ2 TRP d   1       4.934   1.397   4.011  0.00  0.00     0.030 C 
ATOM     31  CD2 TRP d   1       5.265   0.296   1.859  0.00  0.00    -0.002 A 
ATOM     32  CH2 TRP d   1       4.871   2.644   3.356  0.00  0.00     0.002 C 
ATOM     33  CZ3 TRP d   1       5.142   2.740   2.008  0.00  0.00     0.001 C 
ATOM     34  CE3 TRP d   1       5.461   1.584   1.291  0.00  0.00     0.014 C 
ENDBRANCH  24  25
ENDBRANCH  23  24
BRANCH  23  35
ATOM     35  C   TRP d   1       4.929  -0.807  -2.513  0.00  0.00     0.197 C 
ATOM     36  O   TRP d   1       4.035  -1.046  -3.376  0.00  0.00    -0.646 OA
ATOM     37  OXT TRP d   1       6.188  -0.797  -2.643  0.00  0.00    -0.646 OA
ENDBRANCH  23  35
ENDBRANCH   3  23
TORSDOF 9
