@<TRIPOS>MOLECULE
*****
 54 56 0 0 0
SMALL
GASTEIGER

@<TRIPOS>ATOM
      1 C           2.4723   -0.0028   -0.0131 C.3     1  UNL1       -0.0397
      2 C           0.9705   -0.0147    0.0188 C.ar    1  UNL1       -0.0504
      3 C           0.2509   -1.2162    0.0354 C.ar    1  UNL1       -0.0582
      4 C          -1.1544   -1.2154    0.0642 C.ar    1  UNL1       -0.0508
      5 C          -1.8666   -0.0116    0.0702 C.ar    1  UNL1        0.0189
      6 C          -3.3166    0.0284   -0.0808 C.ar    1  UNL1        0.1552
      7 C          -4.1163    0.5953   -1.0454 C.ar    1  UNL1        0.0739
      8 N          -5.4373    0.3997   -0.7575 N.ar    1  UNL1       -0.2211
      9 C          -5.4252   -0.2810    0.3719 C.ar    1  UNL1        0.1966
     10 C          -6.6266   -0.7581    1.1423 C.3     1  UNL1        0.0322
     11 C          -7.9531   -0.3766    0.4272 C.3     1  UNL1        0.0338
     12 C          -9.2135   -0.8472    1.1695 C.2     1  UNL1        0.2296
     13 O          -9.1610   -1.4677    2.2324 O.2     1  UNL1       -0.2743
     14 N         -10.4350   -0.5335    0.5715 N.am    1  UNL1       -0.2332
     15 N         -11.6659   -0.9417    1.2034 N.am    1  UNL1       -0.2182
     16 C         -12.8860   -0.6345    0.6192 C.2     1  UNL1        0.3160
     17 O         -12.9822   -0.0167   -0.4422 O.2     1  UNL1       -0.2513
     18 N         -14.0020   -1.0792    1.3150 N.am    1  UNL1       -0.2982
     19 C         -15.3600   -0.8183    0.8196 C.3     1  UNL1        0.0147
     20 C         -16.4766   -1.3731    1.7156 C.3     1  UNL1       -0.0191
     21 C         -17.8800   -1.0912    1.1584 C.3     1  UNL1        0.0296
     22 N         -18.9293   -1.6347    2.0473 N.ar    1  UNL1       -0.2957
     23 C         -19.8939   -0.9005    2.7353 C.ar    1  UNL1        0.0732
     24 C         -20.6312   -1.7944    3.4621 C.ar    1  UNL1        0.1870
     25 N         -20.1157   -3.0367    3.1810 N.ar    1  UNL1       -0.2011
     26 C         -19.1064   -2.9410    2.3113 C.ar    1  UNL1        0.2463
     27 O          -4.1518   -0.5599    0.8489 O.2     1  UNL1       -0.4398
     28 C          -1.1369    1.1900    0.0441 C.ar    1  UNL1       -0.0508
     29 C           0.2638    1.1906    0.0247 C.ar    1  UNL1       -0.0582
     30 H           2.8834   -1.0175   -0.0016 H       1  UNL1        0.0278
     31 H           2.8640    0.5261    0.8622 H       1  UNL1        0.0278
     32 H           2.8320    0.4943   -0.9205 H       1  UNL1        0.0278
     33 H           0.7809   -2.1666    0.0081 H       1  UNL1        0.0620
     34 H          -1.6818   -2.1655    0.0333 H       1  UNL1        0.0625
     35 H          -3.7930    1.1238   -1.9300 H       1  UNL1        0.0868
     36 H          -6.6091   -0.3204    2.1478 H       1  UNL1        0.0364
     37 H          -6.5689   -1.8465    1.2611 H       1  UNL1        0.0364
     38 H          -7.9574   -0.8130   -0.5799 H       1  UNL1        0.0363
     39 H          -8.0012    0.7142    0.3136 H       1  UNL1        0.0363
     40 H         -10.5268   -0.0222   -0.3060 H       1  UNL1        0.1728
     41 H         -11.5566   -1.4444    2.0796 H       1  UNL1        0.1744
     42 H         -13.8653   -1.5646    2.1907 H       1  UNL1        0.1503
     43 H         -15.4409   -1.2578   -0.1820 H       1  UNL1        0.0463
     44 H         -15.4793    0.2660    0.7091 H       1  UNL1        0.0463
     45 H         -16.4038   -0.9424    2.7212 H       1  UNL1        0.0297
     46 H         -16.3498   -2.4556    1.8343 H       1  UNL1        0.0297
     47 H         -18.0177   -1.5518    0.1728 H       1  UNL1        0.0494
     48 H         -18.0473   -0.0131    1.0481 H       1  UNL1        0.0494
     49 H         -19.9282    0.1710    2.6303 H       1  UNL1        0.0871
     50 H         -21.4577   -1.7132    4.1471 H       1  UNL1        0.1392
     51 H         -20.4501   -3.9146    3.5732 H       1  UNL1        0.4538
     52 H         -18.5263   -3.7652    1.9131 H       1  UNL1        0.1600
     53 H          -1.6550    2.1467    0.0189 H       1  UNL1        0.0625
     54 H           0.7990    2.1385   -0.0005 H       1  UNL1        0.0620
@<TRIPOS>UNITY_ATOM_ATTR
25 1
charge 1
@<TRIPOS>BOND
     1     1     2    1
     2     2     3   ar
     3     3     4   ar
     4     4     5   ar
     5     5     6    1
     6     6     7   ar
     7     7     8   ar
     8     8     9   ar
     9     9    10    1
    10    10    11    1
    11    11    12    1
    12    12    13    2
    13    12    14   am
    14    14    15    1
    15    15    16   am
    16    16    17    2
    17    16    18   am
    18    18    19    1
    19    19    20    1
    20    20    21    1
    21    21    22    1
    22    22    23   ar
    23    23    24   ar
    24    24    25   ar
    25    25    26   ar
    26    22    26   ar
    27     9    27   ar
    28     6    27   ar
    29     5    28   ar
    30    28    29   ar
    31     2    29   ar
    32     1    30    1
    33     1    31    1
    34     1    32    1
    35     3    33    1
    36     4    34    1
    37     7    35    1
    38    10    36    1
    39    10    37    1
    40    11    38    1
    41    11    39    1
    42    14    40    1
    43    15    41    1
    44    18    42    1
    45    19    43    1
    46    19    44    1
    47    20    45    1
    48    20    46    1
    49    21    47    1
    50    21    48    1
    51    23    49    1
    52    24    50    1
    53    25    51    1
    54    26    52    1
    55    28    53    1
    56    29    54    1
