@<TRIPOS>MOLECULE
*****
 67 69 0 0 0
SMALL
GASTEIGER

@<TRIPOS>ATOM
      1 C           0.8594    0.0023    0.0289 C.3     1  UNL1       -0.0650
      2 C           2.3722   -0.0062    0.0323 C.3     1  UNL1       -0.0525
      3 C           2.8988   -0.7573   -1.1811 C.3     1  UNL1       -0.0349
      4 C           4.3905   -0.7374   -1.1711 C.2     1  UNL1       -0.0857
      5 C           5.1139   -1.5846   -1.9209 C.2     1  UNL1       -0.0585
      6 C           6.6295   -1.5668   -2.0732 C.3     1  UNL1        0.1256
      7 C           7.0466   -2.3102   -0.7799 C.2     1  UNL1        0.2391
      8 O           7.3726   -3.4961   -0.7234 O.2     1  UNL1       -0.2734
      9 N           7.0040   -1.5422    0.3692 N.am    1  UNL1       -0.2943
     10 C           7.3030   -2.1390    1.6609 C.3     1  UNL1        0.1356
     11 S           6.6541   -1.2412    3.0746 S.O2    1  UNL1        0.0129
     12 O           7.2738    0.0791    3.0567 O.2     1  UNL1       -0.1678
     13 O           5.2116   -1.3593    3.0667 O.2     1  UNL1       -0.1678
     14 C           7.2358   -2.0946    4.5151 C.ar    1  UNL1        0.0899
     15 C           7.8209   -1.3690    5.5558 C.ar    1  UNL1       -0.0366
     16 C           8.1781   -2.0222    6.7373 C.ar    1  UNL1       -0.0570
     17 C           7.9615   -3.3982    6.8827 C.ar    1  UNL1       -0.0503
     18 C           8.3257   -4.1009    8.1592 C.3     1  UNL1       -0.0397
     19 C           7.3909   -4.1166    5.8225 C.ar    1  UNL1       -0.0570
     20 C           7.0259   -3.4698    4.6385 C.ar    1  UNL1       -0.0366
     21 N           7.1179   -2.0828   -3.3949 N.am    1  UNL1       -0.2519
     22 C           6.2699   -2.5693   -4.4160 C.2     1  UNL1        0.2554
     23 O           6.4420   -3.6822   -4.9247 O.2     1  UNL1       -0.2695
     24 C           5.1179   -1.7511   -4.9439 C.ar    1  UNL1        0.0822
     25 C           4.1819   -2.3770   -5.7944 C.ar    1  UNL1       -0.0458
     26 C           3.0401   -1.6920   -6.2413 C.ar    1  UNL1       -0.0574
     27 C           2.7696   -0.4016   -5.7846 C.ar    1  UNL1       -0.0165
     28 C           3.6798    0.2094   -4.9378 C.ar    1  UNL1        0.1590
     29 O           3.4467    1.4323   -4.3654 O.3     1  UNL1       -0.5033
     30 C           4.8803   -0.4192   -4.6013 C.ar    1  UNL1        0.1706
     31 O           5.7699    0.3267   -3.8760 O.3     1  UNL1       -0.5028
     32 C           8.5482   -2.2323   -3.6152 C.ar    1  UNL1        0.0377
     33 C           9.0767   -2.1341   -4.9148 C.ar    1  UNL1       -0.0402
     34 C          10.4306   -2.4027   -5.1762 C.ar    1  UNL1       -0.0600
     35 C          11.2938   -2.7467   -4.1414 C.ar    1  UNL1       -0.0616
     36 C          10.8066   -2.7969   -2.8481 C.ar    1  UNL1       -0.0600
     37 C           9.4665   -2.4948   -2.5927 C.ar    1  UNL1       -0.0402
     38 H           0.4859    0.5424    0.9020 H       1  UNL1        0.0230
     39 H           0.4704   -1.0200    0.0562 H       1  UNL1        0.0230
     40 H           0.4795    0.4928   -0.8731 H       1  UNL1        0.0230
     41 H           2.7417   -0.4722    0.9538 H       1  UNL1        0.0266
     42 H           2.7425    1.0273    0.0219 H       1  UNL1        0.0266
     43 H           2.5490   -0.2681   -2.0971 H       1  UNL1        0.0307
     44 H           2.5264   -1.7888   -1.1840 H       1  UNL1        0.0307
     45 H           4.8599    0.0090   -0.5386 H       1  UNL1        0.0570
     46 H           4.5590   -2.3001   -2.5195 H       1  UNL1        0.0592
     47 H           7.0158   -0.5377   -2.0069 H       1  UNL1        0.0645
     48 H           6.4552   -0.6906    0.3868 H       1  UNL1        0.1503
     49 H           8.3918   -2.1744    1.7376 H       1  UNL1        0.0710
     50 H           6.8913   -3.1512    1.6828 H       1  UNL1        0.0710
     51 H           7.9755   -0.2948    5.4734 H       1  UNL1        0.0637
     52 H           8.6100   -1.4456    7.5531 H       1  UNL1        0.0621
     53 H           8.7383   -3.4039    8.8965 H       1  UNL1        0.0278
     54 H           9.0813   -4.8682    7.9641 H       1  UNL1        0.0278
     55 H           7.4415   -4.5695    8.6037 H       1  UNL1        0.0278
     56 H           7.2067   -5.1847    5.9246 H       1  UNL1        0.0621
     57 H           6.5512   -4.0452    3.8483 H       1  UNL1        0.0637
     58 H           4.3342   -3.4072   -6.1203 H       1  UNL1        0.0626
     59 H           2.3542   -2.1763   -6.9340 H       1  UNL1        0.0619
     60 H           1.8682    0.1084   -6.1074 H       1  UNL1        0.0655
     61 H           2.6084    1.7858   -4.7066 H       1  UNL1        0.2923
     62 H           5.2093    0.9621   -3.3873 H       1  UNL1        0.2923
     63 H           8.4493   -1.8186   -5.7461 H       1  UNL1        0.0636
     64 H          10.8061   -2.3630   -6.1948 H       1  UNL1        0.0618
     65 H          12.3391   -2.9681   -4.3329 H       1  UNL1        0.0618
     66 H          11.4453   -3.0975   -2.0215 H       1  UNL1        0.0618
     67 H           9.2006   -2.5601   -1.5538 H       1  UNL1        0.0636
@<TRIPOS>BOND
     1     1     2    1
     2     2     3    1
     3     3     4    1
     4     4     5    2
     5     5     6    1
     6     6     7    1
     7     7     8    2
     8     7     9   am
     9     9    10    1
    10    10    11    1
    11    11    12    2
    12    11    13    2
    13    11    14    1
    14    14    15   ar
    15    15    16   ar
    16    16    17   ar
    17    17    18    1
    18    17    19   ar
    19    19    20   ar
    20    14    20   ar
    21     6    21    1
    22    21    22   am
    23    22    23    2
    24    22    24    1
    25    24    25   ar
    26    25    26   ar
    27    26    27   ar
    28    27    28   ar
    29    28    29    1
    30    28    30   ar
    31    24    30   ar
    32    30    31    1
    33    21    32    1
    34    32    33   ar
    35    33    34   ar
    36    34    35   ar
    37    35    36   ar
    38    36    37   ar
    39    32    37   ar
    40     1    38    1
    41     1    39    1
    42     1    40    1
    43     2    41    1
    44     2    42    1
    45     3    43    1
    46     3    44    1
    47     4    45    1
    48     5    46    1
    49     6    47    1
    50     9    48    1
    51    10    49    1
    52    10    50    1
    53    15    51    1
    54    16    52    1
    55    18    53    1
    56    18    54    1
    57    18    55    1
    58    19    56    1
    59    20    57    1
    60    25    58    1
    61    26    59    1
    62    27    60    1
    63    29    61    1
    64    31    62    1
    65    33    63    1
    66    34    64    1
    67    35    65    1
    68    36    66    1
    69    37    67    1
