@<TRIPOS>MOLECULE
*****
 30 32 0 0 0
SMALL
GASTEIGER

@<TRIPOS>ATOM
      1 O           1.0284    0.1633   -0.0510 O.2     1  UNL1       -0.2653
      2 C           2.2628    0.1266    0.0375 C.2     1  UNL1        0.2955
      3 N           2.9766    1.2718    0.4034 N.am    1  UNL1       -0.2276
      4 N           2.2932    2.4928    0.7231 N.am    1  UNL1       -0.2296
      5 C           3.0227    3.6621    0.9473 C.2     1  UNL1        0.2668
      6 O           4.2574    3.6455    0.8696 O.2     1  UNL1       -0.2681
      7 C           2.2475    4.8597    1.2826 C.ar    1  UNL1        0.0753
      8 C           1.1493    5.0018    2.1160 C.ar    1  UNL1       -0.0425
      9 C           0.6999    6.3567    2.2272 C.ar    1  UNL1       -0.0540
     10 C           1.4571    7.2163    1.4644 C.ar    1  UNL1       -0.0236
     11 S           2.7273    6.3931    0.6595 S.2     1  UNL1       -0.0921
     12 C           3.0581   -1.0838   -0.1745 C.ar    1  UNL1        0.1919
     13 C           4.1442   -1.5867    0.5244 C.ar    1  UNL1       -0.0034
     14 C           4.4859   -2.8439   -0.0439 C.ar    1  UNL1        0.0209
     15 C           5.4480   -3.8355    0.2330 C.ar    1  UNL1       -0.0510
     16 C           5.4925   -4.9894   -0.5608 C.ar    1  UNL1       -0.0610
     17 C           4.5961   -5.1591   -1.6167 C.ar    1  UNL1       -0.0582
     18 C           3.6263   -4.1836   -1.9100 C.ar    1  UNL1       -0.0187
     19 C           3.5971   -3.0449   -1.0929 C.ar    1  UNL1        0.1359
     20 O           2.7214   -1.9877   -1.1672 O.2     1  UNL1       -0.4501
     21 H           3.9944    1.3188    0.3819 H       1  UNL1        0.1732
     22 H           1.2768    2.4780    0.6621 H       1  UNL1        0.1731
     23 H           0.7044    4.1819    2.6642 H       1  UNL1        0.0630
     24 H          -0.1314    6.6867    2.8413 H       1  UNL1        0.0623
     25 H           1.3330    8.2888    1.3602 H       1  UNL1        0.0693
     26 H           4.6043   -1.1293    1.3866 H       1  UNL1        0.0663
     27 H           6.1467   -3.7146    1.0552 H       1  UNL1        0.0625
     28 H           6.2342   -5.7585   -0.3485 H       1  UNL1        0.0618
     29 H           4.6517   -6.0682   -2.2157 H       1  UNL1        0.0619
     30 H           2.9312   -4.3194   -2.7311 H       1  UNL1        0.0654
@<TRIPOS>BOND
     1     1     2    2
     2     2     3   am
     3     3     4    1
     4     4     5   am
     5     5     6    2
     6     5     7    1
     7     7     8   ar
     8     8     9   ar
     9     9    10   ar
    10    10    11   ar
    11     7    11   ar
    12     2    12    1
    13    12    13   ar
    14    13    14   ar
    15    14    15   ar
    16    15    16   ar
    17    16    17   ar
    18    17    18   ar
    19    18    19   ar
    20    14    19   ar
    21    19    20   ar
    22    12    20   ar
    23     3    21    1
    24     4    22    1
    25     8    23    1
    26     9    24    1
    27    10    25    1
    28    13    26    1
    29    15    27    1
    30    16    28    1
    31    17    29    1
    32    18    30    1
