@<TRIPOS>MOLECULE
*****
 42 43 0 0 0
SMALL
GASTEIGER

@<TRIPOS>ATOM
      1 C           1.1408    0.0957    0.1188 C.3     1  UNL1        0.0833
      2 O           2.5940    0.1611    0.2185 O.3     1  UNL1       -0.4537
      3 C           3.1479   -0.0132   -1.0191 C.2     1  UNL1        0.4006
      4 O           2.4289   -0.3912   -1.9317 O.2     1  UNL1       -0.2265
      5 N           4.4989    0.2216   -1.1556 N.am    1  UNL1       -0.2695
      6 C           5.2686    0.2838   -2.4709 C.3     1  UNL1        0.1067
      7 C           4.9134    1.5470   -3.3180 C.3     1  UNL1       -0.0005
      8 C           3.4815    1.6265   -3.8187 C.ar    1  UNL1       -0.0451
      9 C           2.7779    2.8338   -3.7490 C.ar    1  UNL1       -0.0585
     10 C           1.3782    2.8335   -3.7905 C.ar    1  UNL1       -0.0615
     11 C           0.6741    1.6458   -3.9708 C.ar    1  UNL1       -0.0617
     12 C           1.3749    0.4683   -4.1810 C.ar    1  UNL1       -0.0615
     13 C           2.7768    0.4714   -4.1838 C.ar    1  UNL1       -0.0585
     14 C           6.8096    0.2600   -2.1695 C.2     1  UNL1        0.2380
     15 O           7.1868    0.1433   -0.9991 O.2     1  UNL1       -0.2734
     16 N           7.7088    0.3708   -3.2420 N.am    1  UNL1       -0.2839
     17 C           9.1262    0.3046   -3.0713 C.ar    1  UNL1        0.0363
     18 C           9.9924    1.1017   -3.8295 C.ar    1  UNL1       -0.0203
     19 C          11.3916    0.9645   -3.6880 C.ar    1  UNL1        0.0647
     20 CL         12.4179    1.8647   -4.7601 Cl      1  UNL1       -0.0815
     21 C          11.9632    0.1009   -2.7337 C.ar    1  UNL1        0.0618
     22 N          13.3586   -0.0866   -2.6448 N.pl3   1  UNL1       -0.3557
     23 C          11.0750   -0.7334   -2.0370 C.ar    1  UNL1        0.0647
     24 CL         11.6698   -1.9663   -0.9755 Cl      1  UNL1       -0.0815
     25 C           9.6861   -0.6208   -2.1894 C.ar    1  UNL1       -0.0203
     26 H           0.6836    0.0226    1.1083 H       1  UNL1        0.0661
     27 H           0.7854   -0.7762   -0.4557 H       1  UNL1        0.0661
     28 H           0.7664    1.0047   -0.3727 H       1  UNL1        0.0661
     29 H           5.0576    0.1838   -0.3089 H       1  UNL1        0.1528
     30 H           5.0605   -0.6354   -3.0312 H       1  UNL1        0.0599
     31 H           5.5595    1.6327   -4.1987 H       1  UNL1        0.0336
     32 H           5.1339    2.4254   -2.6932 H       1  UNL1        0.0336
     33 H           3.3008    3.7697   -3.5720 H       1  UNL1        0.0620
     34 H           0.8308    3.7507   -3.5956 H       1  UNL1        0.0618
     35 H          -0.4081    1.6190   -3.8873 H       1  UNL1        0.0618
     36 H           0.8563   -0.4889   -4.1069 H       1  UNL1        0.0618
     37 H           3.2583   -0.5064   -4.1458 H       1  UNL1        0.0620
     38 H           7.3807    0.6095   -4.1721 H       1  UNL1        0.1549
     39 H           9.6109    1.8739   -4.4940 H       1  UNL1        0.0651
     40 H          13.9271    0.6979   -2.9555 H       1  UNL1        0.1424
     41 H          13.6804   -0.5251   -1.7834 H       1  UNL1        0.1424
     42 H           9.0428   -1.3009   -1.6379 H       1  UNL1        0.0651
@<TRIPOS>BOND
     1     1     2    1
     2     2     3    1
     3     3     4    2
     4     3     5   am
     5     5     6    1
     6     6     7    1
     7     7     8    1
     8     8     9   ar
     9     9    10   ar
    10    10    11   ar
    11    11    12   ar
    12    12    13   ar
    13     8    13   ar
    14     6    14    1
    15    14    15    2
    16    14    16   am
    17    16    17    1
    18    17    18   ar
    19    18    19   ar
    20    19    20    1
    21    19    21   ar
    22    21    22    1
    23    21    23   ar
    24    23    24    1
    25    23    25   ar
    26    17    25   ar
    27     1    26    1
    28     1    27    1
    29     1    28    1
    30     5    29    1
    31     6    30    1
    32     7    31    1
    33     7    32    1
    34     9    33    1
    35    10    34    1
    36    11    35    1
    37    12    36    1
    38    13    37    1
    39    16    38    1
    40    18    39    1
    41    22    40    1
    42    22    41    1
    43    25    42    1
