REMARK  7 active torsions:
REMARK  status: ('A' for Active; 'I' for Inactive)
REMARK    1  A    between atoms: O_2  and  C_3 
REMARK    2  A    between atoms: C_5  and  O_6 
REMARK    3  A    between atoms: C_9  and  C_10 
REMARK       I    between atoms: C_10  and  N_12 
REMARK       I    between atoms: C_13  and  N_14 
REMARK       I    between atoms: C_13  and  N_21 
REMARK    4  A    between atoms: N_14  and  C_15 
REMARK    5  A    between atoms: C_16  and  C_15 
REMARK    6  A    between atoms: N_21  and  C_22 
REMARK    7  A    between atoms: C_26  and  C_27 
ROOT
ATOM      1  C   UNL d   1       8.533  -4.520  -6.943  0.00  0.00     0.294 C 
ATOM      2  O   UNL d   1       7.733  -5.273  -6.392  0.00  0.00    -0.265 OA
ATOM      3  N   UNL d   1       8.321  -3.551  -7.910  0.00  0.00    -0.023 NA
ATOM      4  C   UNL d   1       7.128  -3.225  -8.358  0.00  0.00     0.704 C 
ATOM      5  N   UNL d   1       5.882  -3.692  -7.970  0.00  0.00    -0.222 N 
ATOM      6  N   UNL d   1       7.035  -2.297  -9.409  0.00  0.00    -0.190 N 
ATOM      7  H   UNL d   1       5.113  -3.499  -8.591  0.00  0.00     0.177 HD
ATOM      8  H   UNL d   1       7.907  -1.867  -9.691  0.00  0.00     0.184 HD
ENDROOT
BRANCH   5   9
ATOM      9  C   UNL d   1       5.662  -4.793  -7.071  0.00  0.00     0.170 C 
BRANCH   9  10
ATOM     10  C   UNL d   1       4.301  -5.343  -6.779  0.00  0.00     0.139 C 
ATOM     11  C   UNL d   1       3.584  -5.682  -8.056  0.00  0.00     0.035 C 
ATOM     12  C   UNL d   1       3.985  -7.113  -8.313  0.00  0.00     0.029 C 
ATOM     13  C   UNL d   1       4.138  -7.687  -6.925  0.00  0.00     0.168 C 
ATOM     14  O   UNL d   1       4.486  -6.597  -6.062  0.00  0.00    -0.384 OA
ENDBRANCH   9  10
ENDBRANCH   5   9
BRANCH   6  15
ATOM     15  C   UNL d   1       5.885  -1.654  -9.936  0.00  0.00     0.049 A 
ATOM     16  C   UNL d   1       5.696  -1.415 -11.299  0.00  0.00     0.030 A 
ATOM     17  C   UNL d   1       4.475  -0.896 -11.774  0.00  0.00     0.003 A 
ATOM     18  C   UNL d   1       3.405  -0.677 -10.901  0.00  0.00     0.007 A 
ATOM     19  C   UNL d   1       3.575  -0.883  -9.531  0.00  0.00    -0.053 A 
ATOM     20  C   UNL d   1       4.836  -1.304  -9.088  0.00  0.00     0.037 A 
BRANCH  19  21
ATOM     21  C   UNL d   1       2.449  -0.650  -8.539  0.00  0.00     0.010 C 
ATOM     22  C   UNL d   1       1.233  -1.524  -8.859  0.00  0.00     0.015 C 
ATOM     23  C   UNL d   1       2.874  -0.916  -7.084  0.00  0.00     0.015 C 
ENDBRANCH  19  21
ENDBRANCH   6  15
BRANCH   1  24
ATOM     24  C   UNL d   1       9.829  -4.919  -6.431  0.00  0.00     0.040 A 
ATOM     25  C   UNL d   1       9.844  -6.011  -5.514  0.00  0.00     0.054 A 
ATOM     26  C   UNL d   1      11.013  -6.573  -5.074  0.00  0.00     0.071 A 
ATOM     27  C   UNL d   1      12.187  -5.936  -5.459  0.00  0.00     0.073 A 
ATOM     28  C   UNL d   1      12.174  -4.838  -6.353  0.00  0.00     0.071 A 
ATOM     29  C   UNL d   1      10.988  -4.339  -6.870  0.00  0.00     0.054 A 
BRANCH  26  30
ATOM     30  O   UNL d   1      11.079  -7.714  -4.322  0.00  0.00    -0.356 OA
ATOM     31  C   UNL d   1       9.850  -8.438  -4.137  0.00  0.00     0.210 C 
ENDBRANCH  26  30
BRANCH  28  32
ATOM     32  O   UNL d   1      13.392  -4.370  -6.762  0.00  0.00    -0.356 OA
ATOM     33  C   UNL d   1      13.444  -2.955  -6.916  0.00  0.00     0.210 C 
ENDBRANCH  28  32
ENDBRANCH   1  24
TORSDOF 7
