REMARK  7 active torsions:
REMARK  status: ('A' for Active; 'I' for Inactive)
REMARK    1  A    between atoms: O_2  and  C_3 
REMARK    2  A    between atoms: C_6  and  N_7 
REMARK    3  A    between atoms: C_12  and  C_13 
REMARK       I    between atoms: C_13  and  N_14 
REMARK    4  A    between atoms: C_17  and  C_18 
REMARK    5  A    between atoms: C_18  and  C_19 
REMARK    6  A    between atoms: C_19  and  C_20 
REMARK    7  A    between atoms: C_29  and  O_30 
ROOT
ATOM      1  N   UNL d   1       5.286  -1.275  -4.549  0.00  0.00    -0.246 N 
ATOM      2  C   UNL d   1       5.474  -2.615  -4.906  0.00  0.00     0.333 A 
ATOM      3  O   UNL d   1       5.086  -3.646  -4.359  0.00  0.00    -0.246 OA
ATOM      4  N   UNL d   1       6.193  -2.630  -6.089  0.00  0.00    -0.303 N 
ATOM      5  C   UNL d   1       6.459  -1.317  -6.471  0.00  0.00     0.118 A 
ATOM      6  C   UNL d   1       7.163  -0.765  -7.505  0.00  0.00     0.156 A 
ATOM      7  N   UNL d   1       7.279   0.586  -7.596  0.00  0.00    -0.226 NA
ATOM      8  C   UNL d   1       6.688   1.362  -6.651  0.00  0.00     0.129 A 
ATOM      9  N   UNL d   1       5.972   0.883  -5.601  0.00  0.00    -0.213 NA
ATOM     10  C   UNL d   1       5.877  -0.454  -5.545  0.00  0.00     0.170 A 
ATOM     11  H   UNL d   1       6.416  -3.512  -6.500  0.00  0.00     0.171 HD
ENDROOT
BRANCH   1  12
ATOM     12  C   UNL d   1       4.595  -0.876  -3.395  0.00  0.00     0.048 A 
ATOM     13  C   UNL d   1       4.907  -1.457  -2.163  0.00  0.00     0.033 A 
ATOM     14  C   UNL d   1       4.107  -1.224  -1.028  0.00  0.00     0.042 A 
ATOM     15  C   UNL d   1       2.974  -0.388  -1.076  0.00  0.00     0.101 A 
ATOM     16  C   UNL d   1       2.664   0.203  -2.325  0.00  0.00     0.103 A 
ATOM     17  C   UNL d   1       3.477  -0.054  -3.461  0.00  0.00     0.069 A 
BRANCH  15  18
ATOM     18  O   UNL d   1       2.486  -0.084   0.179  0.00  0.00    -0.353 OA
ATOM     19  C   UNL d   1       1.120  -0.301   0.535  0.00  0.00     0.210 C 
ENDBRANCH  15  18
BRANCH  16  20
ATOM     20  O   UNL d   1       1.673   1.084  -2.693  0.00  0.00    -0.353 OA
ATOM     21  C   UNL d   1       0.723   1.367  -1.708  0.00  0.00     0.210 C 
ENDBRANCH  16  20
ENDBRANCH   1  12
BRANCH   8  22
ATOM     22  C   UNL d   1       6.840   2.868  -6.777  0.00  0.00     0.085 C 
BRANCH  22  23
ATOM     23  C   UNL d   1       7.658   3.313  -8.004  0.00  0.00     0.046 C 
BRANCH  23  24
ATOM     24  C   UNL d   1       7.791   4.816  -8.085  0.00  0.00    -0.058 A 
ATOM     25  C   UNL d   1       9.008   5.441  -7.782  0.00  0.00     0.007 A 
ATOM     26  C   UNL d   1       9.085   6.833  -7.707  0.00  0.00     0.001 A 
ATOM     27  C   UNL d   1       7.976   7.613  -8.029  0.00  0.00     0.000 A 
ATOM     28  C   UNL d   1       6.775   7.001  -8.383  0.00  0.00     0.001 A 
ATOM     29  C   UNL d   1       6.681   5.609  -8.405  0.00  0.00     0.007 A 
ENDBRANCH  23  24
ENDBRANCH  22  23
ENDBRANCH   8  22
BRANCH   6  30
ATOM     30  C   UNL d   1       7.865  -1.553  -8.585  0.00  0.00     0.270 C 
ATOM     31  N   UNL d   1       7.818  -2.927  -8.572  0.00  0.00    -0.365 N 
ATOM     32  H   UNL d   1       7.360  -3.498  -7.895  0.00  0.00     0.159 HD
ATOM     33  H   UNL d   1       8.299  -3.420  -9.315  0.00  0.00     0.159 HD
ATOM     34  O   UNL d   1       8.489  -1.010  -9.493  0.00  0.00    -0.266 OA
ENDBRANCH   6  30
TORSDOF 7
