@<TRIPOS>MOLECULE
*****
 45 45 0 0 0
SMALL
GASTEIGER

@<TRIPOS>ATOM
      1 C           1.1170   -0.0041    0.0133 C.3     1  UNL1       -0.0468
      2 C           2.6547   -0.0377   -0.0116 C.3     1  UNL1        0.0190
      3 C           3.0970   -1.4676    0.3110 C.3     1  UNL1       -0.0468
      4 N           3.2263    0.4293   -1.2944 N.am    1  UNL1       -0.2959
      5 C           4.5896    0.5676   -1.4954 C.2     1  UNL1        0.3162
      6 O           5.4319    0.3074   -0.6319 O.2     1  UNL1       -0.2513
      7 N           4.9657    0.9941   -2.7619 N.am    1  UNL1       -0.2182
      8 N           6.3705    1.1220   -3.0732 N.am    1  UNL1       -0.2317
      9 C           6.7879    1.5601   -4.3319 C.2     1  UNL1        0.2492
     10 O           5.9778    1.8971   -5.2020 O.2     1  UNL1       -0.2723
     11 C           8.3444    1.6235   -4.5966 C.3     1  UNL1        0.0981
     12 C           8.9655    0.2396   -4.4038 C.3     1  UNL1       -0.0380
     13 N           8.6750    2.1339   -5.9589 N.am    1  UNL1       -0.3014
     14 C           9.9877    2.3368   -6.3784 C.2     1  UNL1        0.2513
     15 O          10.9371    2.1443   -5.6184 O.2     1  UNL1       -0.2721
     16 C          10.1950    2.8138   -7.8357 C.3     1  UNL1        0.1652
     17 O          11.5950    2.8030   -8.1561 O.3     1  UNL1       -0.4828
     18 C          11.9675    3.3415   -9.3579 C.ar    1  UNL1        0.1212
     19 C          13.0318    2.7204  -10.0227 C.ar    1  UNL1       -0.0199
     20 C          13.5356    3.2538  -11.2148 C.ar    1  UNL1       -0.0583
     21 C          12.9459    4.3854  -11.7730 C.ar    1  UNL1       -0.0615
     22 C          11.8998    5.0184  -11.1046 C.ar    1  UNL1       -0.0583
     23 C          11.4257    4.5095   -9.8907 C.ar    1  UNL1       -0.0199
     24 H           0.7351   -0.3484    0.9854 H       1  UNL1        0.0247
     25 H           0.6887   -0.6620   -0.7514 H       1  UNL1        0.0247
     26 H           0.7256    1.0042   -0.1511 H       1  UNL1        0.0247
     27 H           3.0228    0.6338    0.7747 H       1  UNL1        0.0493
     28 H           2.7458   -2.1633   -0.4585 H       1  UNL1        0.0247
     29 H           2.6979   -1.7970    1.2772 H       1  UNL1        0.0247
     30 H           4.1844   -1.5532    0.3648 H       1  UNL1        0.0247
     31 H           2.5866    0.7217   -2.0190 H       1  UNL1        0.1505
     32 H           4.3121    1.2569   -3.4924 H       1  UNL1        0.1744
     33 H           7.0023    0.8402   -2.3225 H       1  UNL1        0.1729
     34 H           8.7805    2.3336   -3.8823 H       1  UNL1        0.0592
     35 H           8.5444   -0.4701   -5.1234 H       1  UNL1        0.0252
     36 H           8.7954   -0.1439   -3.3955 H       1  UNL1        0.0252
     37 H          10.0491    0.2451   -4.5587 H       1  UNL1        0.0252
     38 H           7.8925    2.3612   -6.5643 H       1  UNL1        0.1495
     39 H           9.7670    3.8178   -7.9060 H       1  UNL1        0.0795
     40 H           9.6815    2.1289   -8.5190 H       1  UNL1        0.0795
     41 H          13.4751    1.8141   -9.6164 H       1  UNL1        0.0654
     42 H          14.3913    2.7935  -11.7036 H       1  UNL1        0.0619
     43 H          13.3071    4.7804  -12.7194 H       1  UNL1        0.0618
     44 H          11.4638    5.9246  -11.5166 H       1  UNL1        0.0619
     45 H          10.6568    5.0647   -9.3676 H       1  UNL1        0.0654
@<TRIPOS>BOND
     1     1     2    1
     2     2     3    1
     3     2     4    1
     4     4     5   am
     5     5     6    2
     6     5     7   am
     7     7     8    1
     8     8     9   am
     9     9    10    2
    10     9    11    1
    11    11    12    1
    12    11    13    1
    13    13    14   am
    14    14    15    2
    15    14    16    1
    16    16    17    1
    17    17    18    1
    18    18    19   ar
    19    19    20   ar
    20    20    21   ar
    21    21    22   ar
    22    22    23   ar
    23    18    23   ar
    24     1    24    1
    25     1    25    1
    26     1    26    1
    27     2    27    1
    28     3    28    1
    29     3    29    1
    30     3    30    1
    31     4    31    1
    32     7    32    1
    33     8    33    1
    34    11    34    1
    35    12    35    1
    36    12    36    1
    37    12    37    1
    38    13    38    1
    39    16    39    1
    40    16    40    1
    41    19    41    1
    42    20    42    1
    43    21    43    1
    44    22    44    1
    45    23    45    1
