REMARK  9 active torsions:
REMARK  status: ('A' for Active; 'I' for Inactive)
REMARK    1  A    between atoms: C_2  and  O_5 
REMARK    2  A    between atoms: O_5  and  C_6 
REMARK       I    between atoms: C_6  and  N_8 
REMARK    3  A    between atoms: N_8  and  C_9 
REMARK    4  A    between atoms: C_9  and  C_10 
REMARK    5  A    between atoms: C_9  and  C_20 
REMARK    6  A    between atoms: C_10  and  C_11 
REMARK    7  A    between atoms: C_23  and  S_24 
REMARK    8  A    between atoms: S_24  and  C_25 
REMARK    9  A    between atoms: C_25  and  C_26 
ROOT
ATOM      1  C   UNL d   1       6.151   1.592  -2.802  0.00  0.00     0.135 C 
ENDROOT
BRANCH   1   2
ATOM      2  N   UNL d   1       4.640   1.441  -2.569  0.00  0.00    -0.328 N 
ATOM      3  C   UNL d   1       4.067   0.640  -1.598  0.00  0.00     0.361 C 
ATOM      4  O   UNL d   1       4.695  -0.201  -1.021  0.00  0.00    -0.238 OA
ATOM      5  H   UNL d   1       4.024   2.020  -3.124  0.00  0.00     0.165 HD
BRANCH   3   6
ATOM      6  O   UNL d   1       2.761   0.783  -1.249  0.00  0.00    -0.294 OA
BRANCH   6   7
ATOM      7  C   UNL d   1       2.391  -0.025  -0.042  0.00  0.00     0.061 C 
ATOM      8  C   UNL d   1       0.868  -0.040  -0.002  0.00  0.00     0.046 C 
ATOM      9  C   UNL d   1       2.922   0.658   1.238  0.00  0.00     0.046 C 
ATOM     10  C   UNL d   1       2.825  -1.534  -0.016  0.00  0.00     0.046 C 
ENDBRANCH   6   7
ENDBRANCH   3   6
ENDBRANCH   1   2
BRANCH   1  11
ATOM     11  C   UNL d   1       6.926   0.248  -2.884  0.00  0.00     0.066 C 
BRANCH  11  12
ATOM     12  C   UNL d   1       6.999  -0.550  -1.626  0.00  0.00    -0.048 C 
ATOM     13  C   UNL d   1       6.977  -1.885  -1.563  0.00  0.00    -0.006 A 
ATOM     14  C   UNL d   1       7.077  -2.912  -2.545  0.00  0.00     0.014 A 
ATOM     15  C   UNL d   1       6.794  -2.194  -0.132  0.00  0.00     0.038 A 
ATOM     16  C   UNL d   1       7.146  -4.185  -2.127  0.00  0.00     0.001 A 
ATOM     17  C   UNL d   1       7.002  -4.529  -0.720  0.00  0.00     0.002 A 
ATOM     18  C   UNL d   1       6.776  -3.621   0.252  0.00  0.00     0.030 A 
ATOM     19  N   UNL d   1       6.705  -1.138   0.588  0.00  0.00    -0.385 N 
ATOM     20  C   UNL d   1       6.935   0.071  -0.240  0.00  0.00     0.155 C 
ATOM     21  H   UNL d   1       6.401  -1.137   1.558  0.00  0.00     0.160 HD
ENDBRANCH  11  12
ENDBRANCH   1  11
BRANCH   1  22
ATOM     22  C   UNL d   1       6.489   2.384  -4.118  0.00  0.00     0.233 C 
ATOM     23  N   UNL d   1       7.919   2.671  -4.338  0.00  0.00    -0.228 NA
ATOM     24  N   UNL d   1       7.954   4.010  -4.919  0.00  0.00    -0.222 NA
ATOM     25  H   UNL d   1       8.335   1.979  -4.967  0.00  0.00     0.143 HD
ATOM     26  C   UNL d   1       6.563   4.417  -5.046  0.00  0.00     0.275 C 
ATOM     27  H   UNL d   1       8.402   4.079  -5.837  0.00  0.00     0.144 HD
ATOM     28  O   UNL d   1       5.815   3.628  -4.123  0.00  0.00    -0.338 OA
BRANCH  26  29
ATOM     29  S   UNL d   1       6.358   6.177  -4.838  0.00  0.00    -0.116 SA
BRANCH  29  30
ATOM     30  C   UNL d   1       5.213   6.137  -3.432  0.00  0.00     0.120 C 
BRANCH  30  31
ATOM     31  C   UNL d   1       4.448   7.412  -3.248  0.00  0.00    -0.005 C 
ATOM     32  C   UNL d   1       5.100   8.619  -2.950  0.00  0.00     0.042 C 
ATOM     33 CL   UNL d   1       6.805   8.726  -2.667  0.00  0.00    -0.084 Cl
ATOM     34  C   UNL d   1       4.384   9.810  -2.896  0.00  0.00     0.024 C 
ATOM     35  C   UNL d   1       3.050   9.833  -3.282  0.00  0.00     0.003 C 
ATOM     36  C   UNL d   1       2.356   8.639  -3.425  0.00  0.00     0.024 C 
ATOM     37  C   UNL d   1       3.043   7.429  -3.361  0.00  0.00     0.042 C 
ATOM     38 CL   UNL d   1       2.082   5.987  -3.403  0.00  0.00    -0.084 Cl
ENDBRANCH  30  31
ENDBRANCH  29  30
ENDBRANCH  26  29
ENDBRANCH   1  22
TORSDOF 9
