@<TRIPOS>MOLECULE
*****
 50 53 0 0 0
SMALL
GASTEIGER

@<TRIPOS>ATOM
      1 C           0.9263   -0.1014    0.0143 C.3     1  UNL1       -0.0466
      2 C           2.4408   -0.0754    0.0285 C.3     1  UNL1        0.0214
      3 C           2.9954    1.1103   -0.7718 C.3     1  UNL1       -0.0038
      4 C           4.5206    1.1879   -0.5469 C.3     1  UNL1        0.1508
      5 C           4.8209    1.7846    0.8182 C.3     1  UNL1        0.4118
      6 F           4.3825    1.0293    1.8483 F       1  UNL1       -0.1684
      7 F           6.1316    2.0240    1.0211 F       1  UNL1       -0.1684
      8 F           4.1900    2.9865    0.9387 F       1  UNL1       -0.1684
      9 N           5.1107   -0.1416   -0.6925 N.ar    1  UNL1       -0.2383
     10 N           6.4199   -0.3241   -0.9294 N.ar    1  UNL1       -0.1767
     11 C           6.5352   -1.6586   -1.0130 C.ar    1  UNL1        0.0635
     12 C           5.2985   -2.3576   -0.8830 C.ar    1  UNL1        0.0971
     13 C           4.9869   -3.7978   -0.9194 C.2     1  UNL1        0.2650
     14 O           3.8318   -4.2240   -0.7860 O.2     1  UNL1       -0.2685
     15 N           6.0470   -4.6773   -1.1026 N.am    1  UNL1       -0.2310
     16 N           5.8609   -6.1197   -1.1326 N.am    1  UNL1       -0.2453
     17 C           6.9697   -6.9495   -1.3701 C.2     1  UNL1        0.1510
     18 S           8.4811   -6.2449   -1.6637 S.2     1  UNL1       -0.0171
     19 N           6.6834   -8.3330   -1.3699 N.am    1  UNL1       -0.2953
     20 C           7.6650   -9.3815   -1.5639 C.ar    1  UNL1        0.0404
     21 C           8.8646   -9.3162   -0.8405 C.ar    1  UNL1       -0.0399
     22 C           9.9118  -10.2053   -1.0671 C.ar    1  UNL1       -0.0594
     23 C           9.7618  -11.2301   -1.9892 C.ar    1  UNL1       -0.0539
     24 C           8.5471  -11.4052   -2.6605 C.ar    1  UNL1       -0.0161
     25 C           8.4203  -12.4892   -3.5473 C.ar    1  UNL1       -0.0540
     26 C           7.2385  -12.7006   -4.2479 C.ar    1  UNL1       -0.0612
     27 C           6.1767  -11.8212   -4.0752 C.ar    1  UNL1       -0.0611
     28 C           6.2906  -10.7283   -3.2015 C.ar    1  UNL1       -0.0523
     29 C           7.4672  -10.4872   -2.4544 C.ar    1  UNL1        0.0033
     30 C           4.3919   -1.3201   -0.6937 C.ar    1  UNL1        0.1301
     31 N           3.0397   -1.2763   -0.5446 N.pl3   1  UNL1       -0.3260
     32 H           0.5382    0.8337    0.4375 H       1  UNL1        0.0247
     33 H           0.5521   -0.9208    0.6368 H       1  UNL1        0.0247
     34 H           0.5264   -0.2175   -0.9951 H       1  UNL1        0.0247
     35 H           2.7238   -0.0152    1.0825 H       1  UNL1        0.0496
     36 H           2.4983    2.0494   -0.5033 H       1  UNL1        0.0306
     37 H           2.7977    0.9481   -1.8424 H       1  UNL1        0.0306
     38 H           4.9565    1.8318   -1.3216 H       1  UNL1        0.0636
     39 H           7.5276   -2.0616   -1.1715 H       1  UNL1        0.0856
     40 H           7.0100   -4.3699   -1.2228 H       1  UNL1        0.1731
     41 H           4.9004   -6.4396   -1.0179 H       1  UNL1        0.1718
     42 H           5.7186   -8.6155   -1.4881 H       1  UNL1        0.1539
     43 H           9.0051   -8.5554   -0.0786 H       1  UNL1        0.0636
     44 H          10.8471  -10.0853   -0.5272 H       1  UNL1        0.0618
     45 H          10.6047  -11.8960   -2.1695 H       1  UNL1        0.0624
     46 H           9.2462  -13.1841   -3.6991 H       1  UNL1        0.0624
     47 H           7.1522  -13.5447   -4.9285 H       1  UNL1        0.0618
     48 H           5.2544  -11.9815   -4.6281 H       1  UNL1        0.0618
     49 H           5.4406  -10.0591   -3.1210 H       1  UNL1        0.0624
     50 H           2.5033   -2.1462   -0.5211 H       1  UNL1        0.1477
@<TRIPOS>BOND
     1     1     2    1
     2     2     3    1
     3     3     4    1
     4     4     5    1
     5     5     6    1
     6     5     7    1
     7     5     8    1
     8     4     9    1
     9     9    10   ar
    10    10    11   ar
    11    11    12   ar
    12    12    13    1
    13    13    14    2
    14    13    15   am
    15    15    16    1
    16    16    17    1
    17    17    18    2
    18    17    19    1
    19    19    20    1
    20    20    21   ar
    21    21    22   ar
    22    22    23   ar
    23    23    24   ar
    24    24    25   ar
    25    25    26   ar
    26    26    27   ar
    27    27    28   ar
    28    28    29   ar
    29    20    29   ar
    30    24    29   ar
    31    12    30   ar
    32     9    30   ar
    33    30    31    1
    34     2    31    1
    35     1    32    1
    36     1    33    1
    37     1    34    1
    38     2    35    1
    39     3    36    1
    40     3    37    1
    41     4    38    1
    42    11    39    1
    43    15    40    1
    44    16    41    1
    45    19    42    1
    46    21    43    1
    47    22    44    1
    48    23    45    1
    49    25    46    1
    50    26    47    1
    51    27    48    1
    52    28    49    1
    53    31    50    1
