REMARK  10 active torsions:
REMARK  status: ('A' for Active; 'I' for Inactive)
REMARK    1  A    between atoms: C_2  and  C_3 
REMARK    2  A    between atoms: C_3  and  S_4 
REMARK    3  A    between atoms: S_4  and  C_5 
REMARK    4  A    between atoms: C_8  and  C_9 
REMARK       I    between atoms: C_9  and  N_11 
REMARK    5  A    between atoms: N_11  and  C_12 
REMARK    6  A    between atoms: C_12  and  C_13 
REMARK    7  A    between atoms: C_13  and  C_14 
REMARK    8  A    between atoms: C_13  and  N_24 
REMARK    9  A    between atoms: C_17  and  O_18 
REMARK   10  A    between atoms: C_20  and  O_21 
ROOT
ATOM      1  C   UNL d   1       5.237 -10.537   1.056  0.00  0.00     0.238 C 
ENDROOT
BRANCH   1   2
ATOM      2  C   UNL d   1       6.143  -9.468   1.882  0.00  0.00     0.161 C 
BRANCH   2   3
ATOM      3  N   UNL d   1       5.813  -8.037   1.673  0.00  0.00    -0.354 N 
ATOM      4  C   UNL d   1       6.559  -6.940   2.095  0.00  0.00     0.256 C 
ATOM      5  O   UNL d   1       7.550  -7.069   2.782  0.00  0.00    -0.268 OA
ATOM      6  H   UNL d   1       4.902  -7.822   1.300  0.00  0.00     0.162 HD
BRANCH   4   7
ATOM      7  C   UNL d   1       6.104  -5.569   1.649  0.00  0.00     0.090 C 
ATOM      8  C   UNL d   1       6.818  -4.443   1.999  0.00  0.00     0.139 C 
ATOM      9  N   UNL d   1       6.488  -3.176   1.614  0.00  0.00    -0.234 NA
ATOM     10  C   UNL d   1       5.418  -3.015   0.817  0.00  0.00     0.189 C 
ATOM     11  N   UNL d   1       4.655  -4.029   0.418  0.00  0.00    -0.210 NA
ATOM     12  C   UNL d   1       4.983  -5.244   0.911  0.00  0.00     0.146 C 
ATOM     13 CL   UNL d   1       3.637  -6.311   0.702  0.00  0.00    -0.061 Cl
BRANCH  10  14
ATOM     14  S   UNL d   1       4.978  -1.370   0.313  0.00  0.00    -0.090 SA
BRANCH  14  15
ATOM     15  C   UNL d   1       3.139  -1.440   0.316  0.00  0.00     0.082 C 
BRANCH  15  16
ATOM     16  C   UNL d   1       2.575  -0.068  -0.078  0.00  0.00     0.006 C 
ATOM     17  C   UNL d   1       1.051  -0.053  -0.083  0.00  0.00     0.006 C 
ENDBRANCH  15  16
ENDBRANCH  14  15
ENDBRANCH  10  14
ENDBRANCH   4   7
ENDBRANCH   2   3
ENDBRANCH   1   2
BRANCH   1  18
ATOM     18  C   UNL d   1       5.381 -10.325  -0.486  0.00  0.00    -0.023 C 
ATOM     19  C   UNL d   1       5.522 -11.311  -1.464  0.00  0.00     0.012 C 
ATOM     20  C   UNL d   1       6.020 -11.113  -2.734  0.00  0.00     0.040 C 
ATOM     21  C   UNL d   1       5.993  -9.852  -3.248  0.00  0.00     0.101 C 
ATOM     22  C   UNL d   1       5.665  -8.799  -2.401  0.00  0.00     0.102 C 
ATOM     23  C   UNL d   1       5.361  -9.056  -1.056  0.00  0.00     0.049 C 
BRANCH  21  24
ATOM     24  O   UNL d   1       6.188  -9.840  -4.595  0.00  0.00    -0.353 OA
ATOM     25  C   UNL d   1       5.883  -8.614  -5.232  0.00  0.00     0.210 C 
ENDBRANCH  21  24
BRANCH  22  26
ATOM     26  O   UNL d   1       5.686  -7.549  -2.937  0.00  0.00    -0.353 OA
ATOM     27  C   UNL d   1       5.360  -6.445  -2.134  0.00  0.00     0.210 C 
ENDBRANCH  22  26
ENDBRANCH   1  18
BRANCH   1  28
ATOM     28  N   UNL d   1       5.591 -12.035   1.634  0.00  0.00    -0.061 N 
ATOM     29  C   UNL d   1       4.590 -12.593   2.649  0.00  0.00     0.236 C 
ATOM     30  C   UNL d   1       4.955 -14.054   2.994  0.00  0.00     0.028 C 
ATOM     31  C   UNL d   1       4.960 -14.944   1.755  0.00  0.00     0.003 C 
ATOM     32  C   UNL d   1       6.089 -14.455   0.889  0.00  0.00     0.028 C 
ATOM     33  C   UNL d   1       5.781 -13.034   0.544  0.00  0.00     0.236 C 
ATOM     34  H   UNL d   1       6.499 -11.945   2.105  0.00  0.00     0.280 HD
ENDBRANCH   1  28
TORSDOF 10
