REMARK  9 active torsions:
REMARK  status: ('A' for Active; 'I' for Inactive)
REMARK    1  A    between atoms: O_2  and  C_3 
REMARK    2  A    between atoms: C_3  and  C_5 
REMARK    3  A    between atoms: C_8  and  O_9 
REMARK    4  A    between atoms: O_9  and  C_10 
REMARK    5  A    between atoms: C_11  and  C_10 
REMARK    6  A    between atoms: C_14  and  C_15 
REMARK       I    between atoms: C_15  and  N_17 
REMARK    7  A    between atoms: N_17  and  C_18 
REMARK    8  A    between atoms: C_18  and  C_19 
REMARK    9  A    between atoms: C_19  and  C_20 
ROOT
ATOM      1  C   UNL d   1      11.018   0.186  -0.890  0.00  0.00     0.345 C 
ATOM      2  N   UNL d   1      11.647  -0.826  -0.047  0.00  0.00    -0.168 NA
ATOM      3  O   UNL d   1      12.816  -0.166   0.546  0.00  0.00    -0.258 OA
ATOM      4  C   UNL d   1      12.695   1.216   0.253  0.00  0.00     0.471 C 
ATOM      5  N   UNL d   1      11.314   1.460  -0.208  0.00  0.00     0.145 N 
ATOM      6  H   UNL d   1      12.070  -1.538  -0.651  0.00  0.00     0.156 HD
ATOM      7  H   UNL d   1      11.311   2.220  -0.880  0.00  0.00     0.322 HD
ENDROOT
BRANCH   4   8
ATOM      8  C   UNL d   1      13.152   2.139   1.421  0.00  0.00     0.279 C 
ATOM      9  O   UNL d   1      14.261   2.034   1.951  0.00  0.00    -0.268 OA
ATOM     10  N   UNL d   1      12.291   3.150   1.810  0.00  0.00    -0.357 N 
ATOM     11  H   UNL d   1      11.344   3.110   1.438  0.00  0.00     0.162 HD
BRANCH  10  12
ATOM     12  C   UNL d   1      12.660   4.014   2.916  0.00  0.00     0.127 C 
BRANCH  12  13
ATOM     13  C   UNL d   1      11.559   4.986   3.266  0.00  0.00     0.056 C 
BRANCH  13  14
ATOM     14  C   UNL d   1      11.816   5.936   4.393  0.00  0.00    -0.048 A 
ATOM     15  C   UNL d   1      10.895   6.843   4.718  0.00  0.00    -0.003 A 
ATOM     16  C   UNL d   1       9.621   7.109   4.154  0.00  0.00     0.056 A 
ATOM     17  C   UNL d   1      11.466   7.649   5.802  0.00  0.00     0.039 A 
ATOM     18  C   UNL d   1       8.977   8.203   4.562  0.00  0.00     0.117 A 
ATOM     19  F   UNL d   1       7.846   8.573   3.936  0.00  0.00    -0.206 F 
ATOM     20  C   UNL d   1       9.479   9.022   5.649  0.00  0.00     0.044 A 
ATOM     21  C   UNL d   1      10.656   8.796   6.276  0.00  0.00     0.033 A 
ATOM     22  N   UNL d   1      12.616   7.210   6.155  0.00  0.00    -0.385 N 
ATOM     23  C   UNL d   1      13.030   6.072   5.270  0.00  0.00     0.155 A 
ATOM     24  H   UNL d   1      13.141   7.605   6.936  0.00  0.00     0.160 HD
ENDBRANCH  13  14
ENDBRANCH  12  13
ENDBRANCH  10  12
ENDBRANCH   4   8
BRANCH   1  25
ATOM     25  C   UNL d   1      11.471   0.158  -2.395  0.00  0.00     0.229 C 
BRANCH  25  26
ATOM     26  O   UNL d   1      11.773  -1.173  -2.850  0.00  0.00    -0.348 OA
BRANCH  26  27
ATOM     27  C   UNL d   1      12.322  -1.283  -4.107  0.00  0.00     0.069 A 
ATOM     28  C   UNL d   1      12.782  -2.554  -4.468  0.00  0.00     0.038 A 
ATOM     29  C   UNL d   1      13.422  -2.765  -5.702  0.00  0.00     0.020 A 
ATOM     30  C   UNL d   1      13.546  -1.718  -6.624  0.00  0.00     0.039 A 
ATOM     31  C   UNL d   1      13.060  -0.454  -6.280  0.00  0.00     0.020 A 
ATOM     32  C   UNL d   1      12.452  -0.241  -5.031  0.00  0.00     0.038 A 
BRANCH  30  33
ATOM     33  C   UNL d   1      14.039  -2.010  -8.001  0.00  0.00     0.292 C 
ATOM     34  O   UNL d   1      13.754  -3.031  -8.593  0.00  0.00    -0.259 OA
BRANCH  33  35
ATOM     35  O   UNL d   1      14.821  -1.001  -8.476  0.00  0.00    -0.323 OA
ATOM     36  C   UNL d   1      15.319  -1.231  -9.805  0.00  0.00     0.213 C 
ENDBRANCH  33  35
ENDBRANCH  30  33
ENDBRANCH  26  27
ENDBRANCH  25  26
ENDBRANCH   1  25
TORSDOF 9
