@<TRIPOS>MOLECULE
*****
 47 50 0 0 0
SMALL
GASTEIGER

@<TRIPOS>ATOM
      1 O           1.1403    0.2569    0.0567 O.2     1  UNL1       -0.2705
      2 C           2.3809    0.1708    0.0106 C.2     1  UNL1        0.2667
      3 C           2.9969   -1.1538   -0.4939 C.3     1  UNL1        0.1666
      4 O           2.0544   -2.2038   -0.8414 O.3     1  UNL1       -0.4821
      5 C           2.5379   -3.4544   -1.1951 C.ar    1  UNL1        0.1289
      6 C           1.8666   -4.1145   -2.2393 C.ar    1  UNL1       -0.0193
      7 C           2.1723   -5.4442   -2.5840 C.ar    1  UNL1       -0.0583
      8 C           3.2067   -6.1142   -1.9452 C.ar    1  UNL1       -0.0610
      9 C           3.8732   -5.4802   -0.9066 C.ar    1  UNL1       -0.0505
     10 C           3.5436   -4.1605   -0.5118 C.ar    1  UNL1        0.0238
     11 C           4.2293   -3.6406    0.6600 C.ar    1  UNL1       -0.0144
     12 C           5.6221   -3.4950    0.6614 C.ar    1  UNL1       -0.0539
     13 C           6.2680   -3.0987    1.8244 C.ar    1  UNL1       -0.0612
     14 C           5.5216   -2.6909    2.9308 C.ar    1  UNL1       -0.0617
     15 C           4.1305   -2.7511    2.9092 C.ar    1  UNL1       -0.0612
     16 C           3.4885   -3.2606    1.7911 C.ar    1  UNL1       -0.0539
     17 N           3.1809    1.2855    0.4406 N.am    1  UNL1       -0.2313
     18 N           4.8093    1.5117    0.7116 N.am    1  UNL1       -0.2290
     19 C           5.3356    2.9456    1.3227 C.2     1  UNL1        0.2808
     20 O           4.3966    3.7328    1.5012 O.2     1  UNL1       -0.2669
     21 C           6.9769    3.5932    1.4284 C.ar    1  UNL1        0.1559
     22 N           7.5205    3.3147    0.2420 N.ar    1  UNL1       -0.1680
     23 N           8.7523    3.3329    0.6240 N.ar    1  UNL1       -0.2762
     24 C           9.1195    4.4916    1.2042 C.ar    1  UNL1        0.0665
     25 C          10.4171    5.0724    0.8336 C.ar    1  UNL1       -0.0363
     26 C          11.1051    6.0633    1.4708 C.ar    1  UNL1       -0.0597
     27 C          10.4159    6.4904    2.5481 C.ar    1  UNL1       -0.0610
     28 C           9.0621    5.8385    2.8839 C.ar    1  UNL1       -0.0503
     29 C           8.0664    4.7749    2.2173 C.ar    1  UNL1        0.0319
     30 H           3.6124   -1.4235    0.3452 H       1  UNL1        0.0795
     31 H           3.6038   -0.9594   -1.3736 H       1  UNL1        0.0795
     32 H           1.0961   -3.5952   -2.8034 H       1  UNL1        0.0654
     33 H           1.5925   -5.9667   -3.3417 H       1  UNL1        0.0619
     34 H           3.4866   -7.1239   -2.2361 H       1  UNL1        0.0618
     35 H           4.6319   -6.0359   -0.3541 H       1  UNL1        0.0625
     36 H           6.1968   -3.6958   -0.2423 H       1  UNL1        0.0624
     37 H           7.3516   -3.1292    1.8740 H       1  UNL1        0.0618
     38 H           6.0282   -2.3245    3.8173 H       1  UNL1        0.0618
     39 H           3.5396   -2.4199    3.7572 H       1  UNL1        0.0618
     40 H           2.3989   -3.2759    1.7502 H       1  UNL1        0.0624
     41 H           2.6234    2.0958    0.7121 H       1  UNL1        0.1729
     42 H           5.3364    0.7205    0.3331 H       1  UNL1        0.1732
     43 H           9.2675    2.4723    0.6240 H       1  UNL1        0.1889
     44 H          10.8603    4.6970   -0.0878 H       1  UNL1        0.0639
     45 H          12.0801    6.4245    1.1275 H       1  UNL1        0.0618
     46 H          10.8759    7.3339    3.0939 H       1  UNL1        0.0618
     47 H           8.7640    6.3104    3.8436 H       1  UNL1        0.0625
@<TRIPOS>BOND
     1     1     2    2
     2     2     3    1
     3     3     4    1
     4     4     5    1
     5     5     6   ar
     6     6     7   ar
     7     7     8   ar
     8     8     9   ar
     9     9    10   ar
    10     5    10   ar
    11    10    11    1
    12    11    12   ar
    13    12    13   ar
    14    13    14   ar
    15    14    15   ar
    16    15    16   ar
    17    11    16   ar
    18     2    17   am
    19    17    18    1
    20    18    19   am
    21    19    20    2
    22    19    21    1
    23    21    22   ar
    24    22    23   ar
    25    23    24   ar
    26    24    25   ar
    27    25    26   ar
    28    26    27   ar
    29    27    28   ar
    30    28    29   ar
    31    21    29   ar
    32    24    29   ar
    33     3    30    1
    34     3    31    1
    35     6    32    1
    36     7    33    1
    37     8    34    1
    38     9    35    1
    39    12    36    1
    40    13    37    1
    41    14    38    1
    42    15    39    1
    43    16    40    1
    44    17    41    1
    45    18    42    1
    46    23    43    1
    47    25    44    1
    48    26    45    1
    49    27    46    1
    50    28    47    1
