@<TRIPOS>MOLECULE
*****
 58 62 0 0 0
SMALL
GASTEIGER

@<TRIPOS>ATOM
      1 C           0.9562    0.0764   -0.0610 C.3     1  UNL1       -0.0424
      2 C           2.4957    0.0636   -0.0204 C.3     1  UNL1        0.0458
      3 N           3.0068   -0.7330    1.0977 N.am    1  UNL1       -0.3046
      4 C           2.7082   -0.4065    2.3965 C.2     1  UNL1        0.2523
      5 O           2.0098    0.5473    2.7142 O.2     1  UNL1       -0.2699
      6 C           3.1586   -1.3582    3.4432 C.ar    1  UNL1        0.1248
      7 C           4.4649   -1.7743    3.4722 C.ar    1  UNL1       -0.0214
      8 C           4.8272   -2.6670    4.4655 C.ar    1  UNL1        0.1328
      9 C           6.2139   -3.1191    4.5308 C.ar    1  UNL1        0.2721
     10 O           7.0082   -2.6550    3.7062 O.2     1  UNL1       -0.2663
     11 N           6.5181   -4.0464    5.5057 N.ar    1  UNL1       -0.2674
     12 C           7.8303   -4.5084    5.5758 C.ar    1  UNL1        0.0146
     13 C           8.2141   -5.4111    6.4812 C.ar    1  UNL1       -0.0450
     14 C           7.2530   -5.9274    7.4172 C.ar    1  UNL1       -0.0569
     15 C           5.9773   -5.5162    7.3911 C.ar    1  UNL1       -0.0185
     16 C           5.5313   -4.5080    6.3818 C.ar    1  UNL1        0.1468
     17 N           4.2846   -4.1151    6.3570 N.ar    1  UNL1       -0.1680
     18 C           3.9038   -3.1689    5.3905 C.ar    1  UNL1        0.3210
     19 N           2.5976   -2.7245    5.3679 N.ar    1  UNL1       -0.1565
     20 C           1.6158   -3.3661    6.3610 C.3     1  UNL1        0.1797
     21 C           0.1427   -2.9635    6.2387 C.ar    1  UNL1        0.0174
     22 C          -0.5551   -3.1656    5.0258 C.ar    1  UNL1       -0.0512
     23 C          -1.6436   -2.3344    4.7043 C.ar    1  UNL1       -0.0429
     24 C          -2.1793   -1.4759    5.6634 C.ar    1  UNL1        0.0410
     25 CL         -3.4136   -0.3615    5.2246 Cl      1  UNL1       -0.0835
     26 C          -1.6373   -1.4427    6.9465 C.ar    1  UNL1       -0.0429
     27 C          -0.4513   -2.1417    7.2223 C.ar    1  UNL1       -0.0512
     28 C           2.2435   -1.7556    4.4500 C.ar    1  UNL1        0.2826
     29 N           1.0826   -1.0130    4.5283 N.pl3   1  UNL1       -0.3049
     30 C           2.9897   -0.4690   -1.3562 C.ar    1  UNL1       -0.0275
     31 C           3.3520    0.4165   -2.3833 C.ar    1  UNL1       -0.0568
     32 C           3.5064   -0.0498   -3.6916 C.ar    1  UNL1       -0.0614
     33 C           3.4296   -1.4141   -3.9626 C.ar    1  UNL1       -0.0617
     34 C           3.2175   -2.3158   -2.9253 C.ar    1  UNL1       -0.0614
     35 C           2.9401   -1.8435   -1.6445 C.ar    1  UNL1       -0.0568
     36 H           0.5174    0.4821    0.8544 H       1  UNL1        0.0251
     37 H           0.5512   -0.9350   -0.1866 H       1  UNL1        0.0251
     38 H           0.5879    0.6900   -0.8910 H       1  UNL1        0.0251
     39 H           2.8573    1.0879    0.1359 H       1  UNL1        0.0545
     40 H           3.5878   -1.5290    0.8750 H       1  UNL1        0.1496
     41 H           5.1960   -1.3689    2.7752 H       1  UNL1        0.0638
     42 H           8.5434   -4.1048    4.8562 H       1  UNL1        0.0814
     43 H           9.2425   -5.7619    6.5223 H       1  UNL1        0.0632
     44 H           7.5993   -6.6588    8.1423 H       1  UNL1        0.0619
     45 H           5.2449   -5.8984    8.0904 H       1  UNL1        0.0654
     46 H           1.9909   -3.1072    7.3601 H       1  UNL1        0.1086
     47 H           1.6841   -4.4540    6.2341 H       1  UNL1        0.1086
     48 H          -0.1248   -3.7711    4.2295 H       1  UNL1        0.0623
     49 H          -1.9839   -2.2645    3.6703 H       1  UNL1        0.0632
     50 H          -2.0854   -0.8034    7.7062 H       1  UNL1        0.0632
     51 H           0.0459   -1.9406    8.1718 H       1  UNL1        0.0623
     52 H           0.4082   -1.0276    5.2650 H       1  UNL1        0.1478
     53 H           0.7179   -0.5923    3.6690 H       1  UNL1        0.1478
     54 H           3.4684    1.4814   -2.1905 H       1  UNL1        0.0621
     55 H           3.6711    0.6517   -4.5068 H       1  UNL1        0.0618
     56 H           3.5305   -1.7742   -4.9834 H       1  UNL1        0.0618
     57 H           3.2266   -3.3840   -3.1221 H       1  UNL1        0.0618
     58 H           2.6375   -2.5582   -0.8847 H       1  UNL1        0.0621
@<TRIPOS>UNITY_ATOM_ATTR
19 1
charge 1
@<TRIPOS>BOND
     1     1     2    1
     2     2     3    1
     3     3     4   am
     4     4     5    2
     5     4     6    1
     6     6     7   ar
     7     7     8   ar
     8     8     9   ar
     9     9    10    2
    10     9    11   ar
    11    11    12   ar
    12    12    13   ar
    13    13    14   ar
    14    14    15   ar
    15    15    16   ar
    16    11    16   ar
    17    16    17   ar
    18    17    18   ar
    19     8    18   ar
    20    18    19   ar
    21    19    20    1
    22    20    21    1
    23    21    22   ar
    24    22    23   ar
    25    23    24   ar
    26    24    25    1
    27    24    26   ar
    28    26    27   ar
    29    21    27   ar
    30    19    28   ar
    31     6    28   ar
    32    28    29    1
    33     2    30    1
    34    30    31   ar
    35    31    32   ar
    36    32    33   ar
    37    33    34   ar
    38    34    35   ar
    39    30    35   ar
    40     1    36    1
    41     1    37    1
    42     1    38    1
    43     2    39    1
    44     3    40    1
    45     7    41    1
    46    12    42    1
    47    13    43    1
    48    14    44    1
    49    15    45    1
    50    20    46    1
    51    20    47    1
    52    22    48    1
    53    23    49    1
    54    26    50    1
    55    27    51    1
    56    29    52    1
    57    29    53    1
    58    31    54    1
    59    32    55    1
    60    33    56    1
    61    34    57    1
    62    35    58    1
