@<TRIPOS>MOLECULE
*****
 60 63 0 0 0
SMALL
GASTEIGER

@<TRIPOS>ATOM
      1 C           2.5058    1.1144    0.0163 C.3     1  UNL1       -0.0397
      2 C           1.1978    0.3807   -0.0108 C.ar    1  UNL1       -0.0501
      3 C           1.2080   -0.9985   -0.0650 C.ar    1  UNL1       -0.0571
      4 C           0.0089   -1.6959   -0.1909 C.ar    1  UNL1       -0.0399
      5 C          -1.2622   -1.0908   -0.1911 C.ar    1  UNL1        0.0377
      6 N          -2.4678   -1.8982   -0.2312 N.am    1  UNL1       -0.2690
      7 C          -2.4804   -3.2778   -0.4308 C.2     1  UNL1        0.3082
      8 O          -1.4996   -3.9118   -0.8307 O.2     1  UNL1       -0.2522
      9 N          -3.6700   -3.9275   -0.1149 N.am    1  UNL1       -0.2675
     10 C          -3.6617   -5.3654    0.0114 C.ar    1  UNL1        0.0576
     11 C          -4.5626   -6.1718   -0.7588 C.ar    1  UNL1       -0.0174
     12 C          -4.5788   -7.5825   -0.6181 C.ar    1  UNL1        0.0355
     13 N          -5.5808   -8.4114   -1.2269 N.am    1  UNL1       -0.2814
     14 C          -5.7737   -9.7680   -0.9260 C.2     1  UNL1        0.2483
     15 O          -5.1010  -10.4677   -0.1647 O.2     1  UNL1       -0.2699
     16 C          -6.8998  -10.4897   -1.5628 C.ar    1  UNL1        0.0372
     17 C          -7.5713  -11.4912   -0.8285 C.ar    1  UNL1       -0.0469
     18 C          -8.4900  -12.3323   -1.4595 C.ar    1  UNL1       -0.0257
     19 C          -8.7756  -12.1307   -2.8034 C.ar    1  UNL1        0.1234
     20 F          -9.6998  -12.8926   -3.4024 F       1  UNL1       -0.2055
     21 C          -8.1177  -11.1464   -3.5385 C.ar    1  UNL1       -0.0257
     22 C          -7.1659  -10.3294   -2.9227 C.ar    1  UNL1       -0.0469
     23 C          -3.6035   -8.1542    0.1906 C.ar    1  UNL1       -0.0386
     24 C          -2.7337   -7.3797    0.9472 C.ar    1  UNL1       -0.0371
     25 C          -2.7481   -5.9849    0.9102 C.ar    1  UNL1        0.0514
     26 N          -1.8976   -5.3585    1.8049 N.pl3   1  UNL1       -0.3285
     27 C          -2.2673   -4.2557    2.6708 C.3     1  UNL1        0.0123
     28 C          -1.1262   -3.2703    2.5269 C.3     1  UNL1       -0.0358
     29 C           0.0911   -4.1304    2.2308 C.3     1  UNL1       -0.0358
     30 C          -0.4538   -5.3928    1.5534 C.3     1  UNL1        0.0123
     31 C          -1.2838    0.3089   -0.0618 C.ar    1  UNL1       -0.0290
     32 C          -2.5543    1.1102   -0.0176 C.3     1  UNL1       -0.0379
     33 C          -0.0484    1.0287   -0.0113 C.ar    1  UNL1       -0.0542
     34 H           3.3526    0.4142    0.0115 H       1  UNL1        0.0278
     35 H           2.5934    1.7236    0.9193 H       1  UNL1        0.0278
     36 H           2.6057    1.7424   -0.8736 H       1  UNL1        0.0278
     37 H           2.1370   -1.5636   -0.0235 H       1  UNL1        0.0621
     38 H           0.1291   -2.7692   -0.2267 H       1  UNL1        0.0636
     39 H          -3.3481   -1.4457   -0.0442 H       1  UNL1        0.1564
     40 H          -4.5459   -3.4714   -0.3165 H       1  UNL1        0.1564
     41 H          -5.1982   -5.7004   -1.5052 H       1  UNL1        0.0655
     42 H          -6.2862   -7.9462   -1.7848 H       1  UNL1        0.1551
     43 H          -7.3549  -11.6383    0.2300 H       1  UNL1        0.0626
     44 H          -8.9642  -13.1497   -0.9231 H       1  UNL1        0.0646
     45 H          -8.3273  -11.0442   -4.5981 H       1  UNL1        0.0646
     46 H          -6.5998   -9.6195   -3.5163 H       1  UNL1        0.0626
     47 H          -3.4852   -9.2243    0.2966 H       1  UNL1        0.0637
     48 H          -2.0735   -7.8928    1.6413 H       1  UNL1        0.0637
     49 H          -2.2830   -4.6194    3.7015 H       1  UNL1        0.0464
     50 H          -3.2429   -3.8110    2.4545 H       1  UNL1        0.0464
     51 H          -1.0026   -2.5959    3.3756 H       1  UNL1        0.0281
     52 H          -1.3403   -2.6227    1.6995 H       1  UNL1        0.0281
     53 H           0.5892   -4.3811    3.1695 H       1  UNL1        0.0281
     54 H           0.8398   -3.6290    1.6103 H       1  UNL1        0.0281
     55 H          -0.0055   -6.2759    2.0201 H       1  UNL1        0.0464
     56 H          -0.1955   -5.4258    0.4880 H       1  UNL1        0.0464
     57 H          -3.4487    0.4875    0.0309 H       1  UNL1        0.0278
     58 H          -2.6327    1.7257   -0.9182 H       1  UNL1        0.0278
     59 H          -2.5742    1.7523    0.8698 H       1  UNL1        0.0278
     60 H          -0.0610    2.1182    0.0196 H       1  UNL1        0.0623
@<TRIPOS>BOND
     1     1     2    1
     2     2     3   ar
     3     3     4   ar
     4     4     5   ar
     5     5     6    1
     6     6     7   am
     7     7     8    2
     8     7     9   am
     9     9    10    1
    10    10    11   ar
    11    11    12   ar
    12    12    13    1
    13    13    14   am
    14    14    15    2
    15    14    16    1
    16    16    17   ar
    17    17    18   ar
    18    18    19   ar
    19    19    20    1
    20    19    21   ar
    21    21    22   ar
    22    16    22   ar
    23    12    23   ar
    24    23    24   ar
    25    24    25   ar
    26    10    25   ar
    27    25    26    1
    28    26    27    1
    29    27    28    1
    30    28    29    1
    31    29    30    1
    32    26    30    1
    33     5    31   ar
    34    31    32    1
    35    31    33   ar
    36     2    33   ar
    37     1    34    1
    38     1    35    1
    39     1    36    1
    40     3    37    1
    41     4    38    1
    42     6    39    1
    43     9    40    1
    44    11    41    1
    45    13    42    1
    46    17    43    1
    47    18    44    1
    48    21    45    1
    49    22    46    1
    50    23    47    1
    51    24    48    1
    52    27    49    1
    53    27    50    1
    54    28    51    1
    55    28    52    1
    56    29    53    1
    57    29    54    1
    58    30    55    1
    59    30    56    1
    60    32    57    1
    61    32    58    1
    62    32    59    1
    63    33    60    1
