@<TRIPOS>MOLECULE
*****
 44 45 0 0 0
SMALL
GASTEIGER

@<TRIPOS>ATOM
      1 C           0.5384    2.2364    0.0098 C.3     1  UNL1       -0.0383
      2 C          -0.2976    0.9837    0.0023 C.ar    1  UNL1       -0.0320
      3 C          -1.6916    1.0831   -0.0106 C.ar    1  UNL1       -0.0557
      4 C          -2.5067   -0.0624   -0.0111 C.ar    1  UNL1       -0.0390
      5 C          -1.9740   -1.3554    0.0055 C.ar    1  UNL1        0.0458
      6 N          -2.7644   -2.5209    0.0006 N.pl3   1  UNL1       -0.2644
      7 N          -4.1738   -2.4827    0.0042 N.am    1  UNL1       -0.2365
      8 C          -4.8767   -3.6858    0.0103 C.2     1  UNL1        0.2305
      9 O          -4.3086   -4.7793    0.0237 O.2     1  UNL1       -0.2742
     10 C          -6.4070   -3.5448   -0.0000 C.3     1  UNL1        0.0409
     11 C          -7.1061   -4.9152    0.0130 C.3     1  UNL1        0.0199
     12 N          -8.5726   -4.8607    0.0121 N.am    1  UNL1       -0.3146
     13 C          -9.3230   -6.0251   -0.0436 C.2     1  UNL1        0.2161
     14 O          -8.7986   -7.1386   -0.0052 O.2     1  UNL1       -0.2755
     15 C         -10.8503   -5.8682   -0.0601 C.3     1  UNL1        0.0356
     16 C         -11.3777   -4.6516   -0.8114 C.3     1  UNL1       -0.0419
     17 C         -12.8323   -4.9815   -1.1237 C.3     1  UNL1       -0.0523
     18 C         -12.8965   -6.4986   -1.2535 C.3     1  UNL1       -0.0523
     19 C         -11.5280   -7.0208   -0.8193 C.3     1  UNL1       -0.0419
     20 C          -0.5672   -1.4500    0.0135 C.ar    1  UNL1       -0.0208
     21 C           0.2568   -0.3020    0.0092 C.ar    1  UNL1        0.0457
     22 CL          1.9745   -0.5206    0.0077 Cl      1  UNL1       -0.0832
     23 H          -0.0871    3.1371    0.0073 H       1  UNL1        0.0278
     24 H           1.1767    2.2856   -0.8786 H       1  UNL1        0.0278
     25 H           1.1623    2.2822    0.9088 H       1  UNL1        0.0278
     26 H          -2.1697    2.0606   -0.0213 H       1  UNL1        0.0621
     27 H          -3.5763    0.1018   -0.0250 H       1  UNL1        0.0637
     28 H          -2.3329   -3.4472    0.0288 H       1  UNL1        0.1700
     29 H          -4.6355   -1.5846   -0.0128 H       1  UNL1        0.1727
     30 H          -6.7080   -2.9865   -0.8948 H       1  UNL1        0.0374
     31 H          -6.7190   -2.9635    0.8756 H       1  UNL1        0.0374
     32 H          -6.8057   -5.4854    0.8999 H       1  UNL1        0.0467
     33 H          -6.8023   -5.5008   -0.8632 H       1  UNL1        0.0467
     34 H          -9.0412   -3.9659   -0.0100 H       1  UNL1        0.1487
     35 H         -11.2055   -5.8592    0.9792 H       1  UNL1        0.0394
     36 H         -10.8209   -4.5075   -1.7443 H       1  UNL1        0.0272
     37 H         -11.2951   -3.7322   -0.2238 H       1  UNL1        0.0272
     38 H         -13.1686   -4.4800   -2.0369 H       1  UNL1        0.0265
     39 H         -13.4871   -4.6496   -0.3090 H       1  UNL1        0.0265
     40 H         -13.1178   -6.7991   -2.2840 H       1  UNL1        0.0265
     41 H         -13.6966   -6.9044   -0.6235 H       1  UNL1        0.0265
     42 H         -10.9470   -7.2840   -1.7125 H       1  UNL1        0.0272
     43 H         -11.6171   -7.9303   -0.2156 H       1  UNL1        0.0272
     44 H          -0.0855   -2.4262    0.0229 H       1  UNL1        0.0651
@<TRIPOS>BOND
     1     1     2    1
     2     2     3   ar
     3     3     4   ar
     4     4     5   ar
     5     5     6    1
     6     6     7    1
     7     7     8   am
     8     8     9    2
     9     8    10    1
    10    10    11    1
    11    11    12    1
    12    12    13   am
    13    13    14    2
    14    13    15    1
    15    15    16    1
    16    16    17    1
    17    17    18    1
    18    18    19    1
    19    15    19    1
    20     5    20   ar
    21    20    21   ar
    22     2    21   ar
    23    21    22    1
    24     1    23    1
    25     1    24    1
    26     1    25    1
    27     3    26    1
    28     4    27    1
    29     6    28    1
    30     7    29    1
    31    10    30    1
    32    10    31    1
    33    11    32    1
    34    11    33    1
    35    12    34    1
    36    15    35    1
    37    16    36    1
    38    16    37    1
    39    17    38    1
    40    17    39    1
    41    18    40    1
    42    18    41    1
    43    19    42    1
    44    19    43    1
    45    20    44    1
