REMARK  8 active torsions:
REMARK  status: ('A' for Active; 'I' for Inactive)
REMARK    1  A    between atoms: C_2  and  C_4 
REMARK    2  A    between atoms: C_4  and  C_5 
REMARK    3  A    between atoms: C_5  and  C_6 
REMARK       I    between atoms: C_6  and  N_8 
REMARK    4  A    between atoms: N_8  and  N_9 
REMARK       I    between atoms: N_9  and  C_10 
REMARK       I    between atoms: C_10  and  N_12 
REMARK    5  A    between atoms: N_12  and  C_13 
REMARK    6  A    between atoms: C_13  and  C_14 
REMARK    7  A    between atoms: C_14  and  O_15 
REMARK    8  A    between atoms: O_15  and  C_16 
ROOT
ATOM      1  N   UNL d   1       7.061  -3.394   3.081  0.00  0.00    -0.249 N 
ATOM      2  C   UNL d   1       8.435  -3.526   3.203  0.00  0.00     0.334 C 
ATOM      3  O   UNL d   1       9.220  -2.814   2.573  0.00  0.00    -0.246 OA
ATOM      4  N   UNL d   1       8.848  -4.514   4.079  0.00  0.00    -0.340 N 
ATOM      5  H   UNL d   1       6.382  -3.958   3.585  0.00  0.00     0.192 HD
ATOM      6  H   UNL d   1       8.154  -5.061   4.566  0.00  0.00     0.164 HD
ENDROOT
BRANCH   1   7
ATOM      7  N   UNL d   1       6.513  -2.408   2.197  0.00  0.00    -0.266 N 
ATOM      8  C   UNL d   1       5.134  -2.285   2.082  0.00  0.00     0.236 C 
ATOM      9  O   UNL d   1       4.364  -3.004   2.721  0.00  0.00    -0.272 OA
ATOM     10  H   UNL d   1       7.185  -1.828   1.698  0.00  0.00     0.190 HD
BRANCH   8  11
ATOM     11  C   UNL d   1       4.644  -1.192   1.122  0.00  0.00     0.105 C 
BRANCH  11  12
ATOM     12  C   UNL d   1       3.103  -1.103   1.060  0.00  0.00     0.013 C 
BRANCH  12  13
ATOM     13  C   UNL d   1       2.559  -0.008   0.116  0.00  0.00    -0.022 C 
ATOM     14  C   UNL d   1       1.024  -0.026   0.096  0.00  0.00     0.009 C 
ATOM     15  C   UNL d   1       3.033   1.383   0.535  0.00  0.00     0.009 C 
ENDBRANCH  12  13
ENDBRANCH  11  12
ENDBRANCH   8  11
ENDBRANCH   1   7
BRANCH   4  16
ATOM     16  C   UNL d   1      10.276  -4.783   4.334  0.00  0.00     0.151 C 
BRANCH  16  17
ATOM     17  C   UNL d   1      10.562  -5.916   5.349  0.00  0.00     0.195 C 
BRANCH  17  18
ATOM     18  O   UNL d   1      11.973  -6.004   5.607  0.00  0.00    -0.350 OA
BRANCH  18  19
ATOM     19  C   UNL d   1      12.434  -7.075   6.334  0.00  0.00     0.068 A 
ATOM     20  C   UNL d   1      13.633  -6.867   7.028  0.00  0.00     0.037 A 
ATOM     21  C   UNL d   1      14.299  -7.930   7.651  0.00  0.00     0.003 A 
ATOM     22  C   UNL d   1      13.736  -9.202   7.645  0.00  0.00     0.000 A 
ATOM     23  C   UNL d   1      12.521  -9.412   6.994  0.00  0.00     0.003 A 
ATOM     24  C   UNL d   1      11.875  -8.354   6.336  0.00  0.00     0.037 A 
ENDBRANCH  18  19
ENDBRANCH  17  18
ENDBRANCH  16  17
ENDBRANCH   4  16
TORSDOF 8
