@<TRIPOS>MOLECULE
*****
 25 26 0 0 0
SMALL
GASTEIGER

@<TRIPOS>ATOM
      1 O           1.1158   -0.1837   -0.0550 O.2     1  UNL1       -0.2653
      2 C           2.3533   -0.1156   -0.0499 C.2     1  UNL1        0.2953
      3 N           3.1115   -1.0005   -0.8297 N.am    1  UNL1       -0.2298
      4 N           2.4080   -2.1603   -1.3152 N.pl3   1  UNL1       -0.2613
      5 C           3.1150   -3.0041   -2.2094 C.ar    1  UNL1        0.0826
      6 C           4.2266   -3.7309   -1.7530 C.ar    1  UNL1       -0.0337
      7 C           4.8829   -4.6524   -2.5829 C.ar    1  UNL1       -0.0216
      8 C           4.4416   -4.8479   -3.8866 C.ar    1  UNL1        0.1614
      9 F           5.0651   -5.7453   -4.6640 F       1  UNL1       -0.2024
     10 C           3.3624   -4.1248   -4.3721 C.ar    1  UNL1        0.1952
     11 F           2.9514   -4.3149   -5.6355 F       1  UNL1       -0.1994
     12 C           2.7048   -3.2115   -3.5421 C.ar    1  UNL1        0.1834
     13 F           1.6572   -2.5296   -4.0320 F       1  UNL1       -0.2004
     14 C           3.0561    0.8105    0.8280 C.ar    1  UNL1        0.1905
     15 C           2.6846    1.2486    2.0897 C.ar    1  UNL1       -0.0112
     16 C           3.6630    2.1665    2.5296 C.ar    1  UNL1       -0.0231
     17 C           4.5553    2.2859    1.4902 C.ar    1  UNL1        0.0928
     18 O           4.2190    1.4467    0.4625 O.2     1  UNL1       -0.4583
     19 H           4.1163   -1.0689   -0.7059 H       1  UNL1        0.1731
     20 H           1.4678   -1.9017   -1.6440 H       1  UNL1        0.1701
     21 H           4.5470   -3.6311   -0.7193 H       1  UNL1        0.0638
     22 H           5.7234   -5.2330   -2.2129 H       1  UNL1        0.0648
     23 H           1.8059    0.9148    2.6245 H       1  UNL1        0.0657
     24 H           3.7004    2.6859    3.4794 H       1  UNL1        0.0649
     25 H           5.4422    2.8920    1.3511 H       1  UNL1        0.1029
@<TRIPOS>BOND
     1     1     2    2
     2     2     3   am
     3     3     4    1
     4     4     5    1
     5     5     6   ar
     6     6     7   ar
     7     7     8   ar
     8     8     9    1
     9     8    10   ar
    10    10    11    1
    11    10    12   ar
    12     5    12   ar
    13    12    13    1
    14     2    14    1
    15    14    15   ar
    16    15    16   ar
    17    16    17   ar
    18    17    18   ar
    19    14    18   ar
    20     3    19    1
    21     4    20    1
    22     6    21    1
    23     7    22    1
    24    15    23    1
    25    16    24    1
    26    17    25    1
