@<TRIPOS>MOLECULE
*****
 53 56 0 0 0
SMALL
GASTEIGER

@<TRIPOS>ATOM
      1 C           7.2230   -3.5672    2.4388 C.3     1  UNL1        0.0790
      2 O           6.8517   -2.1952    2.3334 O.3     1  UNL1       -0.4913
      3 C           7.2264   -1.5562    1.1704 C.ar    1  UNL1        0.1653
      4 C           6.7976   -0.2114    1.1095 C.ar    1  UNL1       -0.0118
      5 C           7.1376    0.5955    0.0286 C.ar    1  UNL1       -0.0266
      6 C           6.8680    2.1084    0.0072 C.3     1  UNL1        0.0402
      7 C           7.4080    2.8802    1.2495 C.3     1  UNL1        0.0026
      8 C           8.9097    2.7076    1.5448 C.2     1  UNL1        0.0268
      9 C           9.3707    1.9741    2.5942 C.2     1  UNL1        0.1162
     10 C           8.4805    1.1656    3.4476 C.2     1  UNL1        0.2580
     11 O           7.5276    1.6175    4.0822 O.2     1  UNL1       -0.2695
     12 N           8.8387   -0.1450    3.4725 N.am    1  UNL1       -0.2355
     13 C          10.1546   -0.4626    3.6265 C.2     1  UNL1        0.3150
     14 O          10.5220   -1.2972    4.4465 O.2     1  UNL1       -0.2518
     15 N          10.9973    0.2687    2.8258 N.am    1  UNL1       -0.2246
     16 C          12.0837   -0.4027    2.1560 C.3     1  UNL1        0.0126
     17 C          10.8166    1.6318    2.7084 C.2     1  UNL1        0.2603
     18 O          11.7148    2.4656    2.7468 O.2     1  UNL1       -0.2693
     19 N           9.7966    3.2922    0.6252 N.pl3   1  UNL1       -0.3162
     20 C          10.0474    2.6588   -0.6250 C.ar    1  UNL1        0.0447
     21 C          11.3234    2.1011   -0.7860 C.ar    1  UNL1       -0.0395
     22 C          11.6350    1.2811   -1.8704 C.ar    1  UNL1       -0.0599
     23 C          10.6961    1.0715   -2.8679 C.ar    1  UNL1       -0.0606
     24 C           9.4778    1.7513   -2.8124 C.ar    1  UNL1       -0.0465
     25 C           9.1205    2.5169   -1.6710 C.ar    1  UNL1        0.0296
     26 S           7.3996    3.0361   -1.5284 S.3     1  UNL1       -0.1149
     27 C           7.7549   -0.0757   -1.0292 C.ar    1  UNL1       -0.0118
     28 C           8.2895   -1.3642   -0.9843 C.ar    1  UNL1        0.1653
     29 O           9.0412   -1.6487   -2.0908 O.3     1  UNL1       -0.4913
     30 C           9.6018   -2.9353   -2.2393 C.3     1  UNL1        0.0790
     31 C           8.0095   -2.1186    0.1367 C.ar    1  UNL1        0.2010
     32 O           8.4568   -3.3929    0.3053 O.3     1  UNL1       -0.5009
     33 H           6.8338   -3.9721    3.3707 H       1  UNL1        0.0660
     34 H           8.3153   -3.6667    2.4881 H       1  UNL1        0.0660
     35 H           6.7797   -4.1561    1.6246 H       1  UNL1        0.0660
     36 H           6.2178    0.1942    1.9386 H       1  UNL1        0.0658
     37 H           5.7735    2.2148    0.0106 H       1  UNL1        0.0468
     38 H           6.8001    2.5717    2.1054 H       1  UNL1        0.0340
     39 H           7.1821    3.9526    1.1551 H       1  UNL1        0.0340
     40 H           8.1912   -0.7787    3.9167 H       1  UNL1        0.1594
     41 H          12.0730   -1.4776    2.3652 H       1  UNL1        0.0434
     42 H          13.0538    0.0375    2.3856 H       1  UNL1        0.0434
     43 H          11.8967   -0.2837    1.0812 H       1  UNL1        0.0434
     44 H           9.6312    4.2881    0.4848 H       1  UNL1        0.1519
     45 H          12.0639    2.2623   -0.0076 H       1  UNL1        0.0636
     46 H          12.5976    0.7811   -1.9090 H       1  UNL1        0.0618
     47 H          10.8834    0.3387   -3.6510 H       1  UNL1        0.0618
     48 H           8.7371    1.5130   -3.5798 H       1  UNL1        0.0629
     49 H           7.8361    0.4152   -1.9787 H       1  UNL1        0.0658
     50 H          10.1747   -2.9930   -3.1662 H       1  UNL1        0.0660
     51 H           8.7919   -3.6668   -2.3266 H       1  UNL1        0.0660
     52 H          10.2985   -3.1546   -1.4213 H       1  UNL1        0.0660
     53 H           8.7528   -3.8236   -0.4958 H       1  UNL1        0.2924
@<TRIPOS>BOND
     1     1     2    1
     2     2     3    1
     3     3     4   ar
     4     4     5   ar
     5     6     7    1
     6     7     8    1
     7     8     9    2
     8     9    10    1
     9    10    11    2
    10    10    12   am
    11    12    13   am
    12    13    14    2
    13    13    15   am
    14    15    16    1
    15    15    17   am
    16     9    17    1
    17    17    18    2
    18     8    19    1
    19    19    20    1
    20    20    21   ar
    21    21    22   ar
    22    22    23   ar
    23    23    24   ar
    24    24    25   ar
    25    20    25   ar
    26    25    26    1
    27     6    26    1
    28     5    27   ar
    29    27    28   ar
    30    28    29    1
    31    29    30    1
    32    28    31   ar
    33     3    31   ar
    34    31    32    1
    35     6     5    1
    36     1    33    1
    37     1    34    1
    38     1    35    1
    39     4    36    1
    40     6    37    1
    41     7    38    1
    42     7    39    1
    43    12    40    1
    44    16    41    1
    45    16    42    1
    46    16    43    1
    47    19    44    1
    48    21    45    1
    49    22    46    1
    50    23    47    1
    51    24    48    1
    52    27    49    1
    53    30    50    1
    54    30    51    1
    55    30    52    1
    56    32    53    1
