REMARK  9 active torsions:
REMARK  status: ('A' for Active; 'I' for Inactive)
REMARK       I    between atoms: C_2  and  N_3 
REMARK    1  A    between atoms: C_2  and  C_26 
REMARK    2  A    between atoms: N_3  and  N_4 
REMARK    3  A    between atoms: N_4  and  C_5 
REMARK    4  A    between atoms: C_5  and  N_7 
REMARK       I    between atoms: N_7  and  C_8 
REMARK    5  A    between atoms: C_8  and  C_10 
REMARK    6  A    between atoms: C_13  and  O_14 
REMARK    7  A    between atoms: O_14  and  C_15 
REMARK    8  A    between atoms: C_15  and  C_16 
REMARK    9  A    between atoms: C_16  and  C_17 
ROOT
ATOM      1  N   UNL d   1       2.493   0.370   4.929  0.00  0.00    -0.298 N 
ATOM      2  C   UNL d   1       3.090   0.480   6.207  0.00  0.00     0.257 C 
ATOM      3  O   UNL d   1       4.303   0.523   6.420  0.00  0.00    -0.267 OA
ATOM      4  H   UNL d   1       1.484   0.408   4.905  0.00  0.00     0.171 HD
ENDROOT
BRANCH   2   5
ATOM      5  C   UNL d   1       2.261   0.603   7.443  0.00  0.00     0.033 A 
ATOM      6  C   UNL d   1       1.185  -0.217   7.759  0.00  0.00     0.020 A 
ATOM      7  C   UNL d   1       0.553  -0.086   9.017  0.00  0.00     0.039 A 
ATOM      8  C   UNL d   1       0.987   0.847   9.991  0.00  0.00     0.086 A 
ATOM      9  C   UNL d   1       2.102   1.642   9.675  0.00  0.00     0.045 A 
ATOM     10 BR   UNL d   1       2.971   2.968  10.749  0.00  0.00    -0.048 Br
ATOM     11  C   UNL d   1       2.722   1.500   8.422  0.00  0.00     0.039 A 
BRANCH   8  12
ATOM     12  O   UNL d   1       0.221   0.810  11.138  0.00  0.00    -0.349 OA
BRANCH  12  13
ATOM     13  C   UNL d   1       0.565   1.740  12.162  0.00  0.00     0.180 C 
BRANCH  13  14
ATOM     14  C   UNL d   1      -0.348   1.675  13.376  0.00  0.00     0.065 C 
BRANCH  14  15
ATOM     15  C   UNL d   1       0.021   2.717  14.413  0.00  0.00    -0.056 A 
ATOM     16  C   UNL d   1       0.275   2.343  15.738  0.00  0.00     0.007 A 
ATOM     17  C   UNL d   1       0.356   3.316  16.736  0.00  0.00     0.001 A 
ATOM     18  C   UNL d   1       0.294   4.669  16.408  0.00  0.00     0.000 A 
ATOM     19  C   UNL d   1       0.139   5.055  15.080  0.00  0.00     0.001 A 
ATOM     20  C   UNL d   1      -0.002   4.084  14.090  0.00  0.00     0.007 A 
ENDBRANCH  14  15
ENDBRANCH  13  14
ENDBRANCH  12  13
ENDBRANCH   8  12
ENDBRANCH   2   5
BRANCH   1  21
ATOM     21  C   UNL d   1       3.180   0.306   3.690  0.00  0.00     0.193 C 
ATOM     22  S   UNL d   1       4.862   0.302   3.514  0.00  0.00    -0.039 SA
BRANCH  21  23
ATOM     23  N   UNL d   1       2.371   0.228   2.538  0.00  0.00    -0.273 N 
ATOM     24  H   UNL d   1       1.352   0.242   2.513  0.00  0.00     0.189 HD
BRANCH  23  25
ATOM     25  N   UNL d   1       3.016   0.102   1.232  0.00  0.00    -0.264 N 
ATOM     26  C   UNL d   1       2.301   0.088   0.043  0.00  0.00     0.270 C 
ATOM     27  O   UNL d   1       1.070   0.153   0.002  0.00  0.00    -0.266 OA
ATOM     28  H   UNL d   1       4.035   0.169   1.252  0.00  0.00     0.190 HD
BRANCH  26  29
ATOM     29  C   UNL d   1       3.090   0.011  -1.242  0.00  0.00     0.036 A 
ATOM     30  C   UNL d   1       2.687   0.766  -2.352  0.00  0.00     0.036 A 
ATOM     31  C   UNL d   1       3.409   0.661  -3.535  0.00  0.00     0.117 A 
ATOM     32  N   UNL d   1       4.470  -0.156  -3.692  0.00  0.00    -0.273 NA
ATOM     33  C   UNL d   1       4.825  -0.901  -2.624  0.00  0.00     0.117 A 
ATOM     34  C   UNL d   1       4.182  -0.850  -1.390  0.00  0.00     0.036 A 
ENDBRANCH  26  29
ENDBRANCH  23  25
ENDBRANCH  21  23
ENDBRANCH   1  21
TORSDOF 9
