REMARK  4 active torsions:
REMARK  status: ('A' for Active; 'I' for Inactive)
REMARK    1  A    between atoms: C_2  and  N_3 
REMARK    2  A    between atoms: C_2  and  C_11 
REMARK    3  A    between atoms: N_3  and  C_4 
REMARK       I    between atoms: C_11  and  N_13 
REMARK    4  A    between atoms: N_13  and  C_14 
ROOT
ATOM      1  C   UNL d   1       0.946   0.099  -0.018  0.00  0.00     0.042 C 
ATOM      2  C   UNL d   1       2.468  -0.050  -0.027  0.00  0.00     0.170 C 
ENDROOT
BRANCH   2   3
ATOM      3  N   UNL d   1       2.977  -1.442  -0.139  0.00  0.00    -0.377 N 
ATOM      4  H   UNL d   1       3.434  -1.687  -1.015  0.00  0.00     0.160 HD
BRANCH   3   5
ATOM      5  C   UNL d   1       2.549  -2.530   0.613  0.00  0.00     0.028 A 
ATOM      6  C   UNL d   1       1.232  -2.719   1.050  0.00  0.00     0.032 A 
ATOM      7  C   UNL d   1       0.839  -3.779   1.865  0.00  0.00     0.044 A 
ATOM      8  C   UNL d   1       1.763  -4.744   2.194  0.00  0.00     0.116 A 
ATOM      9  F   UNL d   1       1.378  -5.800   2.921  0.00  0.00    -0.206 F 
ATOM     10  C   UNL d   1       3.071  -4.641   1.740  0.00  0.00     0.044 A 
ATOM     11  C   UNL d   1       3.463  -3.534   0.964  0.00  0.00     0.032 A 
ENDBRANCH   3   5
ENDBRANCH   2   3
BRANCH   2  12
ATOM     12  C   UNL d   1       2.956   0.821  -1.217  0.00  0.00     0.244 C 
ATOM     13  O   UNL d   1       2.162   1.248  -2.064  0.00  0.00    -0.271 OA
ATOM     14  N   UNL d   1       4.317   1.049  -1.310  0.00  0.00    -0.323 N 
ATOM     15  H   UNL d   1       4.932   0.376  -0.866  0.00  0.00     0.169 HD
BRANCH  14  16
ATOM     16  C   UNL d   1       4.861   1.934  -2.289  0.00  0.00     0.075 A 
ATOM     17  C   UNL d   1       6.024   1.550  -2.966  0.00  0.00     0.034 A 
ATOM     18  C   UNL d   1       6.611   2.414  -3.897  0.00  0.00     0.022 A 
ATOM     19  C   UNL d   1       6.032   3.652  -4.112  0.00  0.00     0.118 A 
ATOM     20  N   UNL d   1       4.915   4.066  -3.489  0.00  0.00    -0.246 NA
ATOM     21  C   UNL d   1       4.346   3.207  -2.605  0.00  0.00     0.152 A 
ATOM     22 CL   UNL d   1       3.074   3.989  -1.738  0.00  0.00    -0.060 Cl
ENDBRANCH  14  16
ENDBRANCH   2  12
TORSDOF 4
