REMARK  7 active torsions:
REMARK  status: ('A' for Active; 'I' for Inactive)
REMARK    1  A    between atoms: C_6  and  C_7 
REMARK    2  A    between atoms: C_12  and  O_13 
REMARK    3  A    between atoms: C_15  and  C_16 
REMARK    4  A    between atoms: N_23  and  C_24 
REMARK    5  A    between atoms: C_24  and  C_25 
REMARK    6  A    between atoms: C_25  and  C_26 
REMARK    7  A    between atoms: C_26  and  O_27 
ROOT
ATOM      1  O   UNL d   1       1.071   0.034   0.073  0.00  0.00    -0.266 OA
ATOM      2  C   UNL d   1       2.292  -0.003   0.073  0.00  0.00     0.273 A 
ATOM      3  C   UNL d   1       3.126  -1.149   0.066  0.00  0.00     0.129 A 
ATOM      4  N   UNL d   1       3.049  -2.491   0.058  0.00  0.00    -0.272 N 
ATOM      5  N   UNL d   1       4.282  -3.070   0.013  0.00  0.00    -0.173 NA
ATOM      6  C   UNL d   1       5.154  -2.034   0.062  0.00  0.00     0.101 A 
ATOM      7  C   UNL d   1       4.448  -0.825   0.071  0.00  0.00     0.034 A 
ATOM      8  C   UNL d   1       4.627   0.634   0.118  0.00  0.00     0.162 A 
ATOM      9  N   UNL d   1       3.195   1.077   0.064  0.00  0.00    -0.333 N 
ATOM     10  H   UNL d   1       2.227  -3.087   0.072  0.00  0.00     0.189 HD
ENDROOT
BRANCH   6  11
ATOM     11  C   UNL d   1       6.601  -2.209   0.101  0.00  0.00     0.028 A 
ATOM     12  C   UNL d   1       7.263  -2.880  -0.937  0.00  0.00     0.017 A 
ATOM     13  C   UNL d   1       8.656  -3.007  -0.923  0.00  0.00     0.001 A 
ATOM     14  C   UNL d   1       9.396  -2.483   0.137  0.00  0.00     0.003 A 
ATOM     15  C   UNL d   1       8.748  -1.815   1.179  0.00  0.00     0.037 A 
ATOM     16  C   UNL d   1       7.359  -1.669   1.151  0.00  0.00     0.078 A 
BRANCH  16  17
ATOM     17  O   UNL d   1       6.720  -0.987   2.154  0.00  0.00    -0.360 OA
ATOM     18  H   UNL d   1       7.369  -0.695   2.813  0.00  0.00     0.217 HD
ENDBRANCH  16  17
ENDBRANCH   6  11
BRANCH   8  19
ATOM     19  C   UNL d   1       5.439   1.034  -1.081  0.00  0.00     0.008 A 
ATOM     20  C   UNL d   1       5.010   0.844  -2.407  0.00  0.00     0.012 A 
ATOM     21  C   UNL d   1       5.763   1.344  -3.471  0.00  0.00     0.001 A 
ATOM     22  C   UNL d   1       6.944   2.046  -3.227  0.00  0.00     0.003 A 
ATOM     23  C   UNL d   1       7.381   2.242  -1.919  0.00  0.00     0.043 A 
ATOM     24  C   UNL d   1       6.635   1.731  -0.865  0.00  0.00     0.125 A 
ATOM     25  F   UNL d   1       7.035   1.994   0.389  0.00  0.00    -0.205 F 
ENDBRANCH   8  19
BRANCH   9  26
ATOM     26  C   UNL d   1       2.773   2.480   0.070  0.00  0.00     0.129 C 
BRANCH  26  27
ATOM     27  C   UNL d   1       3.916   3.493   0.082  0.00  0.00     0.046 C 
BRANCH  27  28
ATOM     28  C   UNL d   1       3.461   4.939   0.076  0.00  0.00     0.165 C 
BRANCH  28  29
ATOM     29  O   UNL d   1       4.603   5.790   0.058  0.00  0.00    -0.401 OA
ATOM     30  H   UNL d   1       5.140   5.592   0.845  0.00  0.00     0.209 HD
ENDBRANCH  28  29
ENDBRANCH  27  28
ENDBRANCH  26  27
ENDBRANCH   9  26
TORSDOF 7
