@<TRIPOS>MOLECULE
*****
 57 60 0 0 0
SMALL
GASTEIGER

@<TRIPOS>ATOM
      1 O           1.0409   -0.1114    0.0954 O.2     1  UNL1       -0.2522
      2 C           2.2595   -0.0446   -0.0541 C.2     1  UNL1        0.3081
      3 N           2.9010    0.7590   -0.9746 N.am    1  UNL1       -0.2692
      4 C           2.2477    1.6252   -1.8708 C.ar    1  UNL1        0.0348
      5 C           2.7284    1.7250   -3.1815 C.ar    1  UNL1       -0.0404
      6 C           2.1191    2.5959   -4.0892 C.ar    1  UNL1       -0.0600
      7 C           1.0182    3.3542   -3.6944 C.ar    1  UNL1       -0.0616
      8 C           0.5559    3.2765   -2.3815 C.ar    1  UNL1       -0.0600
      9 C           1.1687    2.4128   -1.4718 C.ar    1  UNL1       -0.0404
     10 N           3.0595   -0.9230    0.6484 N.am    1  UNL1       -0.2692
     11 C           4.4534   -0.9180    0.8012 C.ar    1  UNL1        0.0349
     12 C           5.1759   -2.1060    0.9564 C.ar    1  UNL1       -0.0387
     13 C           6.5838   -2.0703    1.1066 C.ar    1  UNL1       -0.0387
     14 C           7.2740   -0.8477    1.0679 C.ar    1  UNL1        0.0338
     15 N           8.7001   -0.8015    1.0942 N.am    1  UNL1       -0.2815
     16 C           9.4475    0.3759    1.0155 C.2     1  UNL1        0.2483
     17 O           9.0084    1.5207    0.9427 O.2     1  UNL1       -0.2699
     18 C          10.9273    0.2939    0.9921 C.ar    1  UNL1        0.0371
     19 C          11.6452    1.2914    1.6761 C.ar    1  UNL1       -0.0478
     20 C          13.0292    1.4057    1.5179 C.ar    1  UNL1       -0.0346
     21 C          13.7146    0.4766    0.7256 C.ar    1  UNL1        0.1053
     22 S          15.4942    0.5590    0.7207 S.O2    1  UNL1        0.0588
     23 O          15.8749    1.7670    0.0381 O.2     1  UNL1       -0.1530
     24 O          15.9272    0.2761    2.0785 O.2     1  UNL1       -0.1530
     25 N          16.0317   -0.7237   -0.2537 N.3     1  UNL1       -0.1826
     26 C          17.5176   -0.8234   -0.2502 C.3     1  UNL1        0.0754
     27 C          17.9563   -1.8832   -1.2038 C.ar    1  UNL1        0.1202
     28 C          18.6656   -1.8226   -2.3872 C.ar    1  UNL1       -0.0194
     29 C          18.7522   -3.1459   -2.8772 C.ar    1  UNL1       -0.0236
     30 C          18.1296   -3.9395   -1.9428 C.ar    1  UNL1        0.0921
     31 O          17.6478   -3.1837   -0.9184 O.2     1  UNL1       -0.4665
     32 C          13.0053   -0.5084    0.0289 C.ar    1  UNL1       -0.0346
     33 C          11.6073   -0.5924    0.1539 C.ar    1  UNL1       -0.0478
     34 C           6.5117    0.3161    0.9785 C.ar    1  UNL1       -0.0387
     35 C           5.1305    0.2870    0.8588 C.ar    1  UNL1       -0.0387
     36 H           3.8476    0.5024   -1.2138 H       1  UNL1        0.1564
     37 H           3.5351    1.0850   -3.5295 H       1  UNL1        0.0636
     38 H           2.4952    2.6776   -5.1058 H       1  UNL1        0.0618
     39 H           0.5168    4.0017   -4.4091 H       1  UNL1        0.0618
     40 H          -0.2801    3.8913   -2.0597 H       1  UNL1        0.0618
     41 H           0.8161    2.3841   -0.4445 H       1  UNL1        0.0636
     42 H           2.5288   -1.6200    1.1567 H       1  UNL1        0.1564
     43 H           4.6695   -3.0689    0.8989 H       1  UNL1        0.0637
     44 H           7.1120   -3.0114    1.2448 H       1  UNL1        0.0637
     45 H           9.1890   -1.6856    1.1577 H       1  UNL1        0.1551
     46 H          11.1178    1.9988    2.3174 H       1  UNL1        0.0626
     47 H          13.5604    2.2203    2.0092 H       1  UNL1        0.0637
     48 H          15.7044   -0.5990   -1.2111 H       1  UNL1        0.1485
     49 H          17.9038   -1.0250    0.7532 H       1  UNL1        0.0521
     50 H          17.9343    0.1273   -0.6053 H       1  UNL1        0.0521
     51 H          19.0569   -0.9244   -2.8443 H       1  UNL1        0.0652
     52 H          19.2119   -3.4799   -3.7973 H       1  UNL1        0.0649
     53 H          17.9485   -5.0038   -1.8724 H       1  UNL1        0.1029
     54 H          13.5158   -1.2105   -0.6223 H       1  UNL1        0.0637
     55 H          11.0590   -1.3191   -0.4381 H       1  UNL1        0.0626
     56 H           6.9440    1.3061    1.0054 H       1  UNL1        0.0637
     57 H           4.6046    1.2374    0.8420 H       1  UNL1        0.0637
@<TRIPOS>BOND
     1     1     2    2
     2     2     3   am
     3     3     4    1
     4     4     5   ar
     5     5     6   ar
     6     6     7   ar
     7     7     8   ar
     8     8     9   ar
     9     4     9   ar
    10     2    10   am
    11    10    11    1
    12    11    12   ar
    13    12    13   ar
    14    13    14   ar
    15    14    15    1
    16    15    16   am
    17    16    17    2
    18    16    18    1
    19    18    19   ar
    20    19    20   ar
    21    20    21   ar
    22    21    22    1
    23    22    23    2
    24    22    24    2
    25    22    25    1
    26    25    26    1
    27    26    27    1
    28    27    28   ar
    29    28    29   ar
    30    29    30   ar
    31    30    31   ar
    32    27    31   ar
    33    21    32   ar
    34    32    33   ar
    35    18    33   ar
    36    14    34   ar
    37    34    35   ar
    38    11    35   ar
    39     3    36    1
    40     5    37    1
    41     6    38    1
    42     7    39    1
    43     8    40    1
    44     9    41    1
    45    10    42    1
    46    12    43    1
    47    13    44    1
    48    15    45    1
    49    19    46    1
    50    20    47    1
    51    25    48    1
    52    26    49    1
    53    26    50    1
    54    28    51    1
    55    29    52    1
    56    30    53    1
    57    32    54    1
    58    33    55    1
    59    34    56    1
    60    35    57    1
