REMARK  6 active torsions:
REMARK  status: ('A' for Active; 'I' for Inactive)
REMARK    1  A    between atoms: C_2  and  C_3 
REMARK    2  A    between atoms: C_7  and  N_8 
REMARK       I    between atoms: N_8  and  C_9 
REMARK       I    between atoms: C_9  and  N_11 
REMARK    3  A    between atoms: N_11  and  C_12 
REMARK    4  A    between atoms: C_15  and  N_16 
REMARK    5  A    between atoms: C_26  and  C_27 
REMARK       I    between atoms: C_27  and  N_29 
REMARK    6  A    between atoms: N_29  and  C_30 
ROOT
ATOM      1  C   UNL d   1       4.121   4.261   5.556  0.00  0.00     0.037 A 
ATOM      2  C   UNL d   1       5.035   5.088   6.204  0.00  0.00     0.032 A 
ATOM      3  C   UNL d   1       4.911   6.510   6.093  0.00  0.00     0.032 A 
ATOM      4  C   UNL d   1       3.964   7.141   5.238  0.00  0.00     0.046 A 
ATOM      5  C   UNL d   1       3.053   6.228   4.579  0.00  0.00     0.060 A 
ATOM      6  C   UNL d   1       3.149   4.853   4.754  0.00  0.00     0.049 A 
ENDROOT
BRANCH   1   7
ATOM      7  N   UNL d   1       4.102   2.841   5.698  0.00  0.00    -0.309 N 
ATOM      8  C   UNL d   1       3.845   2.062   4.585  0.00  0.00     0.325 C 
ATOM      9  N   UNL d   1       3.807   0.687   4.758  0.00  0.00    -0.309 N 
ATOM     10  O   UNL d   1       3.697   2.616   3.497  0.00  0.00    -0.247 OA
ATOM     11  H   UNL d   1       3.903   0.288   5.680  0.00  0.00     0.170 HD
ATOM     12  H   UNL d   1       4.345   2.447   6.592  0.00  0.00     0.170 HD
BRANCH   9  13
ATOM     13  C   UNL d   1       3.572  -0.221   3.671  0.00  0.00     0.036 C 
ATOM     14  C   UNL d   1       3.482  -1.601   3.866  0.00  0.00     0.029 C 
ATOM     15  C   UNL d   1       3.166  -2.452   2.785  0.00  0.00     0.003 C 
ATOM     16  C   UNL d   1       3.032  -1.954   1.489  0.00  0.00     0.007 C 
ATOM     17  C   UNL d   1       3.055  -0.586   1.291  0.00  0.00    -0.056 C 
ATOM     18  C   UNL d   1       3.365   0.241   2.367  0.00  0.00     0.036 C 
BRANCH  17  19
ATOM     19  C   UNL d   1       2.567   0.054   0.019  0.00  0.00     0.034 C 
ATOM     20  C   UNL d   1       1.042   0.081   0.031  0.00  0.00     0.010 C 
ENDBRANCH  17  19
ENDBRANCH   9  13
ENDBRANCH   1   7
BRANCH   5  21
ATOM     21  C   UNL d   1       1.828   6.685   3.818  0.00  0.00     0.254 C 
ATOM     22  O   UNL d   1       1.350   7.800   3.855  0.00  0.00    -0.268 OA
ATOM     23  N   UNL d   1       1.023   5.913   3.033  0.00  0.00    -0.352 N 
ATOM     24  H   UNL d   1       0.983   4.928   3.207  0.00  0.00     0.163 HD
BRANCH  23  25
ATOM     25  C   UNL d   1      -0.110   6.591   2.392  0.00  0.00     0.084 A 
ATOM     26  C   UNL d   1      -0.071   8.058   1.903  0.00  0.00     0.027 A 
ATOM     27  C   UNL d   1       0.005   6.945   0.933  0.00  0.00     0.027 A 
ENDBRANCH  23  25
ENDBRANCH   5  21
BRANCH   4  28
ATOM     28  N   UNL d   1       3.676   8.469   5.207  0.00  0.00    -0.378 N 
ATOM     29  C   UNL d   1       3.509   9.046   3.916  0.00  0.00     0.127 C 
ATOM     30  C   UNL d   1       3.984  11.027   3.855  0.00  0.00     0.055 C 
ATOM     31  C   UNL d   1       2.783  11.683   3.553  0.00  0.00    -0.063 C 
ATOM     32  C   UNL d   1       2.645  13.055   3.033  0.00  0.00     0.004 C 
ATOM     33  C   UNL d   1       1.892  10.699   4.130  0.00  0.00     0.034 C 
ATOM     34  C   UNL d   1       1.524  13.471   2.379  0.00  0.00     0.000 C 
ATOM     35  C   UNL d   1       0.773  12.413   2.071  0.00  0.00    -0.003 C 
ATOM     36  C   UNL d   1       1.203  11.035   2.739  0.00  0.00    -0.009 C 
ATOM     37  C   UNL d   1       3.550   9.836   5.234  0.00  0.00     0.142 C 
ENDBRANCH   4  28
TORSDOF 6
