REMARK  4 active torsions:
REMARK  status: ('A' for Active; 'I' for Inactive)
REMARK    1  A    between atoms: C_2  and  C_3 
REMARK    2  A    between atoms: C_3  and  C_4 
REMARK       I    between atoms: C_4  and  N_6 
REMARK    3  A    between atoms: N_6  and  N_7 
REMARK       I    between atoms: N_7  and  C_8 
REMARK    4  A    between atoms: C_8  and  C_10 
ROOT
ATOM      1  N   UNL d   1       6.761   1.407   2.346  0.00  0.00    -0.263 N 
ATOM      2  C   UNL d   1       7.468   2.176   3.264  0.00  0.00     0.270 C 
ATOM      3  O   UNL d   1       8.467   2.807   2.921  0.00  0.00    -0.266 OA
ATOM      4  H   UNL d   1       7.218   1.291   1.440  0.00  0.00     0.190 HD
ENDROOT
BRANCH   1   5
ATOM      5  N   UNL d   1       5.339   1.466   2.244  0.00  0.00    -0.267 N 
ATOM      6  C   UNL d   1       4.740   0.777   1.199  0.00  0.00     0.236 C 
ATOM      7  O   UNL d   1       5.397   0.186   0.344  0.00  0.00    -0.272 OA
ATOM      8  H   UNL d   1       4.820   2.036   2.905  0.00  0.00     0.190 HD
BRANCH   6   9
ATOM      9  C   UNL d   1       3.213   0.798   1.211  0.00  0.00     0.104 C 
BRANCH   9  10
ATOM     10  C   UNL d   1       2.629  -0.010   0.044  0.00  0.00     0.005 C 
ATOM     11  C   UNL d   1       1.108  -0.018   0.034  0.00  0.00     0.005 C 
ENDBRANCH   9  10
ENDBRANCH   6   9
ENDBRANCH   1   5
BRANCH   2  12
ATOM     12  C   UNL d   1       7.080   2.124   4.708  0.00  0.00     0.033 A 
ATOM     13  C   UNL d   1       7.738   2.935   5.648  0.00  0.00     0.017 A 
ATOM     14  C   UNL d   1       7.436   2.827   7.014  0.00  0.00     0.007 A 
ATOM     15  C   UNL d   1       6.476   1.911   7.457  0.00  0.00    -0.062 A 
ATOM     16  C   UNL d   1       6.141   1.763   8.912  0.00  0.00     0.048 C 
ATOM     17  C   UNL d   1       5.832   1.098   6.521  0.00  0.00     0.007 A 
ATOM     18  C   UNL d   1       6.147   1.190   5.167  0.00  0.00     0.017 A 
ENDBRANCH   2  12
TORSDOF 4
