REMARK  5 active torsions:
REMARK  status: ('A' for Active; 'I' for Inactive)
REMARK       I    between atoms: C_2  and  N_4 
REMARK    1  A    between atoms: C_6  and  C_7 
REMARK    2  A    between atoms: C_9  and  C_10 
REMARK    3  A    between atoms: C_13  and  C_14 
REMARK    4  A    between atoms: C_14  and  C_15 
REMARK    5  A    between atoms: C_23  and  C_24 
ROOT
ATOM      1  C   UNL d   1       5.963   1.833  -2.728  0.00  0.00     0.107 A 
ATOM      2  C   UNL d   1       6.265   1.180  -3.906  0.00  0.00     0.069 A 
ATOM      3  C   UNL d   1       7.605   1.516  -4.221  0.00  0.00     0.089 A 
ATOM      4  N   UNL d   1       8.112   2.345  -3.300  0.00  0.00    -0.174 NA
ATOM      5  N   UNL d   1       7.102   2.528  -2.424  0.00  0.00    -0.273 N 
ATOM      6  H   UNL d   1       7.294   3.100  -1.609  0.00  0.00     0.189 HD
ENDROOT
BRANCH   1   7
ATOM      7  C   UNL d   1       4.787   1.711  -1.932  0.00  0.00     0.215 A 
ATOM      8  N   UNL d   1       4.341   0.604  -1.447  0.00  0.00    -0.139 NA
ATOM      9  N   UNL d   1       3.154   0.938  -0.853  0.00  0.00    -0.201 N 
ATOM     10  C   UNL d   1       2.487   0.013  -0.082  0.00  0.00     0.238 C 
ATOM     11  C   UNL d   1       2.913   2.368  -0.971  0.00  0.00     0.292 A 
ATOM     12  C   UNL d   1       0.984   0.099  -0.064  0.00  0.00     0.119 C 
ATOM     13  O   UNL d   1       3.058  -0.913   0.506  0.00  0.00    -0.272 OA
ATOM     14  O   UNL d   1       4.056   2.843  -1.718  0.00  0.00    -0.299 OA
BRANCH  11  15
ATOM     15  C   UNL d   1       2.873   3.084   0.368  0.00  0.00    -0.006 A 
ATOM     16  C   UNL d   1       1.760   3.846   0.765  0.00  0.00     0.012 A 
ATOM     17  C   UNL d   1       1.798   4.598   1.946  0.00  0.00     0.002 A 
ATOM     18  C   UNL d   1       2.917   4.543   2.778  0.00  0.00     0.019 A 
ATOM     19  C   UNL d   1       4.004   3.755   2.416  0.00  0.00     0.011 A 
ATOM     20 BR   UNL d   1       5.551   3.715   3.500  0.00  0.00    -0.051 Br
ATOM     21  C   UNL d   1       3.984   3.027   1.228  0.00  0.00     0.030 A 
ENDBRANCH  11  15
ENDBRANCH   1   7
BRANCH   3  22
ATOM     22  C   UNL d   1       8.340   1.090  -5.402  0.00  0.00    -0.006 A 
ATOM     23  C   UNL d   1       9.545   0.379  -5.332  0.00  0.00     0.014 A 
ATOM     24  C   UNL d   1      10.221   0.000  -6.504  0.00  0.00     0.008 A 
ATOM     25  C   UNL d   1       9.644   0.232  -7.758  0.00  0.00    -0.058 A 
ATOM     26  C   UNL d   1       8.402   0.883  -7.795  0.00  0.00     0.008 A 
ATOM     27  C   UNL d   1       7.786   1.360  -6.648  0.00  0.00     0.014 A 
BRANCH  25  28
ATOM     28  C   UNL d   1      10.341  -0.250  -9.017  0.00  0.00     0.042 C 
BRANCH  28  29
ATOM     29  C   UNL d   1       9.627   0.134 -10.331  0.00  0.00    -0.019 C 
ATOM     30  C   UNL d   1       9.617   1.655 -10.553  0.00  0.00     0.010 C 
ATOM     31  C   UNL d   1      10.292  -0.518 -11.540  0.00  0.00     0.010 C 
ENDBRANCH  28  29
ENDBRANCH  25  28
ENDBRANCH   3  22
TORSDOF 5
