@<TRIPOS>MOLECULE
*****
 56 59 0 0 0
SMALL
GASTEIGER

@<TRIPOS>ATOM
      1 O           1.0495   -0.0660   -0.0406 O.2     1  UNL1       -0.2525
      2 C           2.2778   -0.1412    0.0159 C.2     1  UNL1        0.3053
      3 N           2.9169   -0.9189    0.9365 N.am    1  UNL1       -0.2991
      4 C           2.2216   -1.7710    1.8782 C.3     1  UNL1        0.0131
      5 C           3.1991   -2.5665    2.7462 C.3     1  UNL1       -0.0373
      6 C           2.4593   -3.4738    3.7341 C.3     1  UNL1       -0.0516
      7 C           3.4276   -4.2782    4.6108 C.3     1  UNL1       -0.0516
      8 C           2.6777   -5.1865    5.6034 C.3     1  UNL1       -0.0373
      9 C           3.6418   -5.9898    6.4859 C.3     1  UNL1        0.0131
     10 N           2.9908   -6.8564    7.4723 N.am    1  UNL1       -0.2991
     11 C           3.7637   -7.6261    8.3343 C.2     1  UNL1        0.3053
     12 O           4.9926   -7.6058    8.2556 O.2     1  UNL1       -0.2525
     13 N           3.0318   -8.3847    9.2267 N.am    1  UNL1       -0.2485
     14 C           3.6278   -9.2886   10.1010 C.ar    1  UNL1        0.1666
     15 N           3.0995  -10.4523   10.4133 N.ar    1  UNL1       -0.2245
     16 C           3.9066  -11.1111   11.3472 C.ar    1  UNL1        0.0803
     17 C           3.7198  -12.4185   11.8594 C.ar    1  UNL1       -0.0351
     18 C           4.5857  -12.9315   12.8377 C.ar    1  UNL1       -0.0597
     19 C           5.6364  -12.1595   13.3180 C.ar    1  UNL1       -0.0606
     20 C           5.8567  -10.8698   12.8187 C.ar    1  UNL1       -0.0458
     21 C           4.9908  -10.3691   11.8227 C.ar    1  UNL1        0.0408
     22 S           5.0239   -8.8549   10.9921 S.2     1  UNL1       -0.0520
     23 N           3.0416    0.6324   -0.8116 N.am    1  UNL1       -0.2485
     24 C           4.4086    0.7240   -0.8470 C.ar    1  UNL1        0.1666
     25 N           5.0683    1.8419   -1.0270 N.ar    1  UNL1       -0.2245
     26 C           6.4338    1.5878   -0.9411 C.ar    1  UNL1        0.0803
     27 C           7.4726    2.5432   -0.9473 C.ar    1  UNL1       -0.0351
     28 C           8.8077    2.1229   -0.8704 C.ar    1  UNL1       -0.0597
     29 C           9.1209    0.7696   -0.7935 C.ar    1  UNL1       -0.0606
     30 C           8.1125   -0.1953   -0.7783 C.ar    1  UNL1       -0.0458
     31 C           6.7791    0.2382   -0.8404 C.ar    1  UNL1        0.0408
     32 S           5.3456   -0.7025   -0.8029 S.2     1  UNL1       -0.0520
     33 H           3.9258   -0.9181    0.9474 H       1  UNL1        0.1502
     34 H           1.5774   -2.4461    1.3049 H       1  UNL1        0.0462
     35 H           1.5789   -1.1376    2.4997 H       1  UNL1        0.0462
     36 H           3.8532   -1.8759    3.2939 H       1  UNL1        0.0280
     37 H           3.8524   -3.1716    2.1045 H       1  UNL1        0.0280
     38 H           1.8113   -4.1622    3.1784 H       1  UNL1        0.0266
     39 H           1.8108   -2.8616    4.3722 H       1  UNL1        0.0266
     40 H           4.0776   -3.5858    5.1602 H       1  UNL1        0.0266
     41 H           4.0771   -4.8862    3.9686 H       1  UNL1        0.0266
     42 H           2.0277   -5.8710    5.0454 H       1  UNL1        0.0280
     43 H           2.0261   -4.5700    6.2338 H       1  UNL1        0.0280
     44 H           4.2974   -5.3033    7.0346 H       1  UNL1        0.0462
     45 H           4.2828   -6.6188    5.8562 H       1  UNL1        0.0462
     46 H           1.9825   -6.9003    7.5011 H       1  UNL1        0.1502
     47 H           2.0860   -8.6285    8.9798 H       1  UNL1        0.1583
     48 H           2.9000  -13.0281   11.4921 H       1  UNL1        0.0639
     49 H           4.4311  -13.9364   13.2279 H       1  UNL1        0.0618
     50 H           6.2966  -12.5637   14.0851 H       1  UNL1        0.0618
     51 H           6.6823  -10.2725   13.1957 H       1  UNL1        0.0629
     52 H           2.5360    1.3877   -1.2529 H       1  UNL1        0.1583
     53 H           7.2337    3.6009   -1.0039 H       1  UNL1        0.0639
     54 H           9.6070    2.8610   -0.8750 H       1  UNL1        0.0618
     55 H          10.1616    0.4554   -0.7417 H       1  UNL1        0.0618
     56 H           8.3535   -1.2521   -0.7143 H       1  UNL1        0.0629
@<TRIPOS>BOND
     1     1     2    2
     2     2     3   am
     3     3     4    1
     4     4     5    1
     5     5     6    1
     6     6     7    1
     7     7     8    1
     8     8     9    1
     9     9    10    1
    10    10    11   am
    11    11    12    2
    12    11    13   am
    13    13    14    1
    14    14    15   ar
    15    15    16   ar
    16    16    17   ar
    17    17    18   ar
    18    18    19   ar
    19    19    20   ar
    20    20    21   ar
    21    16    21   ar
    22    21    22   ar
    23    14    22   ar
    24     2    23   am
    25    23    24    1
    26    24    25   ar
    27    25    26   ar
    28    26    27   ar
    29    27    28   ar
    30    28    29   ar
    31    29    30   ar
    32    30    31   ar
    33    26    31   ar
    34    31    32   ar
    35    24    32   ar
    36     3    33    1
    37     4    34    1
    38     4    35    1
    39     5    36    1
    40     5    37    1
    41     6    38    1
    42     6    39    1
    43     7    40    1
    44     7    41    1
    45     8    42    1
    46     8    43    1
    47     9    44    1
    48     9    45    1
    49    10    46    1
    50    13    47    1
    51    17    48    1
    52    18    49    1
    53    19    50    1
    54    20    51    1
    55    23    52    1
    56    27    53    1
    57    28    54    1
    58    29    55    1
    59    30    56    1
