@<TRIPOS>MOLECULE
*****
 48 49 0 0 0
SMALL
GASTEIGER

@<TRIPOS>ATOM
      1 C          13.7764   -5.3250    7.0326 C.3     1  UNL1       -0.0440
      2 C          13.8173   -5.2047    5.5386 C.2     1  UNL1       -0.0793
      3 C          15.1607   -5.4601    4.9072 C.3     1  UNL1       -0.0440
      4 C          12.7052   -4.9376    4.8161 C.2     1  UNL1       -0.0809
      5 C          11.3123   -4.9255    5.3269 C.3     1  UNL1       -0.0052
      6 C          10.3354   -3.8465    4.9702 C.3     1  UNL1        0.0479
      7 C           8.9002   -4.0022    4.5995 C.2     1  UNL1        0.2173
      8 O           8.3407   -2.9649    4.2533 O.2     1  UNL1       -0.2755
      9 N           8.2178   -5.2530    4.5736 N.am    1  UNL1       -0.3123
     10 C           6.9604   -5.1833    3.8307 C.3     1  UNL1        0.0418
     11 C           5.5762   -5.8895    4.0109 C.3     1  UNL1        0.0956
     12 O           5.2385   -6.5362    2.7700 O.3     1  UNL1       -0.3856
     13 C           4.4219   -4.8889    4.3314 C.ar    1  UNL1       -0.0172
     14 C           4.6397   -3.5025    4.5283 C.ar    1  UNL1       -0.0497
     15 C           3.6775   -2.6490    5.0449 C.ar    1  UNL1        0.0159
     16 C           2.3863   -3.1209    5.2029 C.ar    1  UNL1        0.2732
     17 N           1.3469   -2.1608    5.5765 N.pl3   1  UNL1        0.0796
     18 O           1.6838   -0.9906    5.7825 O.2     1  UNL1        0.0414
     19 O           0.1771   -2.5796    5.6372 O.co2   1  UNL1       -0.5760
     20 C           2.0862   -4.4615    4.9246 C.ar    1  UNL1        0.0159
     21 C           3.1025   -5.3433    4.5039 C.ar    1  UNL1       -0.0497
     22 C          10.8272   -3.9530    6.4077 C.3     1  UNL1       -0.0163
     23 C           9.9623   -4.5443    7.4916 C.3     1  UNL1       -0.0585
     24 C          11.6575   -2.7872    6.9167 C.3     1  UNL1       -0.0585
     25 H          14.7355   -5.6105    7.4689 H       1  UNL1        0.0274
     26 H          13.0179   -6.0420    7.3566 H       1  UNL1        0.0274
     27 H          13.5733   -4.3502    7.4613 H       1  UNL1        0.0274
     28 H          15.9368   -5.6083    5.6680 H       1  UNL1        0.0274
     29 H          15.4821   -4.6276    4.2768 H       1  UNL1        0.0274
     30 H          15.1317   -6.3797    4.3120 H       1  UNL1        0.0274
     31 H          12.8154   -4.8725    3.7310 H       1  UNL1        0.0575
     32 H          10.9195   -5.9353    5.3563 H       1  UNL1        0.0356
     33 H          10.7246   -2.9636    4.4565 H       1  UNL1        0.0405
     34 H           8.7271   -6.1178    4.6940 H       1  UNL1        0.1488
     35 H           7.1937   -5.0553    2.7707 H       1  UNL1        0.0491
     36 H           6.7045   -4.2370    4.2227 H       1  UNL1        0.0491
     37 H           5.6024   -6.6672    4.7816 H       1  UNL1        0.0659
     38 H           5.0771   -5.8343    2.1120 H       1  UNL1        0.2103
     39 H           5.5663   -2.9811    4.3012 H       1  UNL1        0.0623
     40 H           3.9708   -1.6309    5.2917 H       1  UNL1        0.0685
     41 H           1.0706   -4.8347    5.0431 H       1  UNL1        0.0685
     42 H           2.8493   -6.3840    4.3024 H       1  UNL1        0.0623
     43 H           9.3031   -5.3345    7.1245 H       1  UNL1        0.0235
     44 H           9.3451   -3.7683    7.9553 H       1  UNL1        0.0235
     45 H          10.5975   -4.9806    8.2711 H       1  UNL1        0.0235
     46 H          12.3657   -2.4091    6.1727 H       1  UNL1        0.0235
     47 H          12.2126   -3.0679    7.8160 H       1  UNL1        0.0235
     48 H          11.0183   -1.9582    7.2362 H       1  UNL1        0.0235
@<TRIPOS>UNITY_ATOM_ATTR
17 1
charge 1
19 1
charge -1
@<TRIPOS>BOND
     1     1     2    1
     2     2     3    1
     3     2     4    2
     4     5     6    1
     5     7     8    2
     6     7     9   am
     7     9    10    1
     8    11    13    1
     9    13    14   ar
    10    14    15   ar
    11    15    16   ar
    12    16    17    1
    13    17    18    2
    14    17    19    1
    15    16    20   ar
    16    20    21   ar
    17    13    21   ar
    18     6    22    1
    19     5    22    1
    20    22    23    1
    21    22    24    1
    22     5     4    1
    23    11    12    1
    24    11    10    1
    25     6     7    1
    26     1    25    1
    27     1    26    1
    28     1    27    1
    29     3    28    1
    30     3    29    1
    31     3    30    1
    32     4    31    1
    33     5    32    1
    34     6    33    1
    35     9    34    1
    36    10    35    1
    37    10    36    1
    38    11    37    1
    39    12    38    1
    40    14    39    1
    41    15    40    1
    42    20    41    1
    43    21    42    1
    44    23    43    1
    45    23    44    1
    46    23    45    1
    47    24    46    1
    48    24    47    1
    49    24    48    1
