@<TRIPOS>MOLECULE
*****
 49 51 0 0 0
SMALL
GASTEIGER

@<TRIPOS>ATOM
      1 C           1.0825   -0.0180   -0.0256 C.3     1  UNL1        0.0788
      2 O           2.5038    0.0858   -0.0335 O.3     1  UNL1       -0.4944
      3 C           3.1431   -1.0608   -0.4222 C.ar    1  UNL1        0.1323
      4 C           2.8339   -1.7198   -1.6249 C.ar    1  UNL1       -0.0182
      5 C           3.5654   -2.8397   -2.0454 C.ar    1  UNL1       -0.0443
      6 C           4.6184   -3.3042   -1.2711 C.ar    1  UNL1        0.0188
      7 BR          5.6224   -4.8039   -1.8369 Br      1  UNL1       -0.0503
      8 C           4.9369   -2.6553   -0.0833 C.ar    1  UNL1       -0.0321
      9 C           4.2071   -1.5192    0.3553 C.ar    1  UNL1        0.0796
     10 C           4.6339   -0.9123    1.6487 C.2     1  UNL1        0.2531
     11 O           5.6092   -1.4775    2.1610 O.2     1  UNL1       -0.2697
     12 N           3.9878    0.2094    2.2104 N.am    1  UNL1       -0.2635
     13 C           4.2557    0.7545    3.4872 C.2     1  UNL1        0.1411
     14 S           5.3479    0.0340    4.5673 S.2     1  UNL1       -0.0182
     15 N           3.5028    1.9146    3.8127 N.am    1  UNL1       -0.2965
     16 C           3.7589    2.7386    4.9697 C.ar    1  UNL1        0.0361
     17 C           2.7541    3.3002    5.7605 C.ar    1  UNL1       -0.0396
     18 C           3.0920    4.1267    6.8660 C.ar    1  UNL1       -0.0458
     19 C           4.4324    4.3694    7.2265 C.ar    1  UNL1        0.0590
     20 C           4.7779    5.3058    8.3023 C.ar    1  UNL1        0.1388
     21 C           5.5925    6.4176    8.2746 C.ar    1  UNL1       -0.0154
     22 C           5.5784    6.9758    9.5600 C.ar    1  UNL1       -0.0178
     23 C           4.7842    6.1643   10.3433 C.ar    1  UNL1        0.1310
     24 C           4.4301    6.2549   11.7877 C.3     1  UNL1        0.1019
     25 O           5.0523    7.4318   12.3225 O.3     1  UNL1       -0.3873
     26 O           4.2698    5.1370    9.5734 O.2     1  UNL1       -0.4573
     27 C           5.4386    3.8317    6.4012 C.ar    1  UNL1        0.1325
     28 O           6.7538    4.1325    6.6814 O.3     1  UNL1       -0.4943
     29 C           7.7445    3.5576    5.8273 C.3     1  UNL1        0.0788
     30 C           5.0787    3.0564    5.2935 C.ar    1  UNL1        0.0020
     31 H           0.7029    0.9093    0.4134 H       1  UNL1        0.0660
     32 H           0.7530   -0.8498    0.6061 H       1  UNL1        0.0660
     33 H           0.6762   -0.1005   -1.0363 H       1  UNL1        0.0660
     34 H           2.0429   -1.3589   -2.2754 H       1  UNL1        0.0655
     35 H           3.3184   -3.3324   -2.9833 H       1  UNL1        0.0630
     36 H           5.7701   -3.0346    0.5112 H       1  UNL1        0.0637
     37 H           3.2577    0.6241    1.6415 H       1  UNL1        0.1568
     38 H           2.6440    2.1174    3.3160 H       1  UNL1        0.1538
     39 H           1.7047    3.0807    5.5829 H       1  UNL1        0.0636
     40 H           2.2984    4.6246    7.4230 H       1  UNL1        0.0626
     41 H           6.1200    6.7735    7.4034 H       1  UNL1        0.0655
     42 H           6.0854    7.8693    9.8914 H       1  UNL1        0.0653
     43 H           4.7935    5.4008   12.3658 H       1  UNL1        0.0638
     44 H           3.3533    6.3641   11.9356 H       1  UNL1        0.0638
     45 H           6.0111    7.3266   12.1934 H       1  UNL1        0.2100
     46 H           8.7262    3.9138    6.1484 H       1  UNL1        0.0660
     47 H           7.6125    3.8791    4.7865 H       1  UNL1        0.0660
     48 H           7.7418    2.4644    5.9048 H       1  UNL1        0.0660
     49 H           5.8524    2.6949    4.6303 H       1  UNL1        0.0673
@<TRIPOS>BOND
     1     1     2    1
     2     2     3    1
     3     3     4   ar
     4     4     5   ar
     5     5     6   ar
     6     6     7    1
     7     6     8   ar
     8     8     9   ar
     9     3     9   ar
    10     9    10    1
    11    10    11    2
    12    10    12   am
    13    12    13    1
    14    13    14    2
    15    13    15    1
    16    15    16    1
    17    16    17   ar
    18    17    18   ar
    19    18    19   ar
    20    19    20    1
    21    20    21   ar
    22    21    22   ar
    23    22    23   ar
    24    23    24    1
    25    24    25    1
    26    23    26   ar
    27    20    26   ar
    28    19    27   ar
    29    27    28    1
    30    28    29    1
    31    27    30   ar
    32    16    30   ar
    33     1    31    1
    34     1    32    1
    35     1    33    1
    36     4    34    1
    37     5    35    1
    38     8    36    1
    39    12    37    1
    40    15    38    1
    41    17    39    1
    42    18    40    1
    43    21    41    1
    44    22    42    1
    45    24    43    1
    46    24    44    1
    47    25    45    1
    48    29    46    1
    49    29    47    1
    50    29    48    1
    51    30    49    1
