REMARK  5 active torsions:
REMARK  status: ('A' for Active; 'I' for Inactive)
REMARK    1  A    between atoms: C_8  and  C_9 
REMARK    2  A    between atoms: C_9  and  C_10 
REMARK    3  A    between atoms: C_10  and  N_11 
REMARK       I    between atoms: N_11  and  C_12 
REMARK    4  A    between atoms: C_12  and  C_14 
REMARK    5  A    between atoms: C_18  and  N_17 
ROOT
ATOM      1  N   UNL d   1      10.356 -16.382  -1.083  0.00  0.00    -0.360 N 
ATOM      2  C   UNL d   1      10.024 -15.932   0.169  0.00  0.00     0.221 C 
ATOM      3  O   UNL d   1      10.413 -16.556   1.162  0.00  0.00    -0.273 OA
ATOM      4  H   UNL d   1       9.938 -15.964  -1.906  0.00  0.00     0.162 HD
ENDROOT
BRANCH   2   5
ATOM      5  C   UNL d   1       9.043 -14.796   0.363  0.00  0.00     0.081 C 
ATOM      6  C   UNL d   1       9.338 -13.301   0.070  0.00  0.00     0.044 C 
ATOM      7  C   UNL d   1       8.111 -12.521   0.569  0.00  0.00     0.276 C 
ATOM      8  N   UNL d   1       6.921 -12.983  -0.174  0.00  0.00     0.117 N 
ATOM      9  C   UNL d   1       6.580 -14.316   0.365  0.00  0.00     0.276 C 
ATOM     10  C   UNL d   1       7.649 -15.292  -0.058  0.00  0.00     0.044 C 
BRANCH   8  11
ATOM     11  C   UNL d   1       7.086 -12.869  -1.695  0.00  0.00     0.370 C 
ATOM     12  N   UNL d   1       8.097 -13.647  -2.566  0.00  0.00    -0.252 NA
ATOM     13  C   UNL d   1       7.412 -14.688  -3.275  0.00  0.00     0.046 C 
ATOM     14  H   UNL d   1       8.700 -13.084  -3.163  0.00  0.00     0.130 HD
ATOM     15  C   UNL d   1       7.993 -15.905  -3.663  0.00  0.00     0.028 C 
ATOM     16  C   UNL d   1       6.024 -14.635  -3.171  0.00  0.00     0.117 C 
ATOM     17  C   UNL d   1       7.200 -17.052  -3.514  0.00  0.00     0.021 C 
ATOM     18  C   UNL d   1       5.835 -16.895  -3.291  0.00  0.00     0.118 C 
ATOM     19  N   UNL d   1       5.216 -15.702  -3.203  0.00  0.00    -0.252 NA
ATOM     20  S   UNL d   1       5.471 -13.089  -2.521  0.00  0.00    -0.057 SA
ENDBRANCH   8  11
ENDBRANCH   2   5
BRANCH   1  21
ATOM     21  C   UNL d   1      11.126 -17.608  -1.145  0.00  0.00     0.127 C 
BRANCH  21  22
ATOM     22  C   UNL d   1      11.475 -18.069  -2.551  0.00  0.00     0.056 C 
BRANCH  22  23
ATOM     23  C   UNL d   1      12.352 -19.286  -2.581  0.00  0.00    -0.048 A 
ATOM     24  C   UNL d   1      12.816 -19.878  -3.688  0.00  0.00    -0.005 A 
ATOM     25  C   UNL d   1      13.628 -21.013  -3.205  0.00  0.00     0.038 A 
ATOM     26  C   UNL d   1      12.658 -19.605  -5.073  0.00  0.00     0.020 A 
ATOM     27  C   UNL d   1      14.275 -21.862  -4.233  0.00  0.00     0.030 A 
ATOM     28  N   UNL d   1      13.646 -21.088  -1.949  0.00  0.00    -0.385 N 
ATOM     29  C   UNL d   1      14.078 -21.541  -5.526  0.00  0.00     0.009 A 
ATOM     30  C   UNL d   1      13.264 -20.405  -5.970  0.00  0.00    -0.061 A 
ATOM     31  C   UNL d   1      13.105 -20.128  -7.436  0.00  0.00     0.048 C 
ATOM     32  C   UNL d   1      12.837 -20.004  -1.350  0.00  0.00     0.155 A 
ATOM     33  H   UNL d   1      14.155 -21.808  -1.419  0.00  0.00     0.160 HD
ENDBRANCH  22  23
ENDBRANCH  21  22
ENDBRANCH   1  21
TORSDOF 5
