@<TRIPOS>MOLECULE
*****
 63 66 0 0 0
SMALL
GASTEIGER

@<TRIPOS>ATOM
      1 C           1.1252    0.5810    0.2832 C.3     1  UNL1        0.0790
      2 O           2.5273    0.3479    0.1703 O.3     1  UNL1       -0.4914
      3 C           3.0959   -0.8937    0.3046 C.ar    1  UNL1        0.1617
      4 C           4.2631   -0.9764    1.0929 C.ar    1  UNL1       -0.0131
      5 C           5.0985   -2.1503    1.1604 C.ar    1  UNL1       -0.0195
      6 C           4.8462   -3.2536    0.3577 C.ar    1  UNL1        0.1035
      7 N           5.4048   -4.5705    0.5429 N.pl3   1  UNL1       -0.2449
      8 C           4.9305   -5.8142    0.0634 C.2     1  UNL1        0.3842
      9 N           3.8686   -6.1174   -0.6324 N.am    1  UNL1        0.0006
     10 C           2.7678   -5.3091   -0.5079 C.2     1  UNL1        0.3405
     11 O           2.3647   -4.9207    0.5671 O.2     1  UNL1       -0.2484
     12 C           1.8434   -5.2290   -1.6936 C.ar    1  UNL1        0.0561
     13 C           1.7514   -4.2694   -2.7348 C.ar    1  UNL1       -0.0478
     14 C           0.5238   -4.0557   -3.3809 C.ar    1  UNL1       -0.0581
     15 C          -0.5346   -4.9213   -3.1362 C.ar    1  UNL1       -0.0504
     16 C          -1.7822   -4.8603   -3.9527 C.3     1  UNL1       -0.0397
     17 C          -0.3921   -5.9298   -2.1803 C.ar    1  UNL1       -0.0581
     18 C           0.7751   -6.0669   -1.4562 C.ar    1  UNL1       -0.0478
     19 N           5.7201   -6.9405    0.3622 N.pl3   1  UNL1       -0.2767
     20 C           5.2188   -8.2878   -0.0251 C.3     1  UNL1        0.0684
     21 C           6.0947   -9.4504    0.4210 C.3     1  UNL1        0.0059
     22 C           5.7198  -10.8368   -0.0556 C.2     1  UNL1        0.0106
     23 C           6.4978  -11.8793    0.2440 C.ar    1  UNL1        0.0510
     24 C           7.7056  -11.9401    0.9842 C.ar    1  UNL1       -0.0482
     25 C           8.3919  -13.0859    0.9858 C.ar    1  UNL1       -0.0608
     26 C           7.8465  -14.2895    0.3794 C.ar    1  UNL1       -0.0555
     27 C           6.6723  -14.3292   -0.2878 C.ar    1  UNL1        0.0098
     28 C           5.9163  -13.0593   -0.4052 C.ar    1  UNL1        0.2086
     29 N           4.8169  -12.7701   -0.9932 N.2     1  UNL1       -0.2369
     30 C           4.5560  -11.2906   -0.9009 C.3     1  UNL1        0.1661
     31 C           3.9122   -2.9622   -0.6201 C.ar    1  UNL1        0.0222
     32 C           2.8761   -1.9876   -0.4909 C.ar    1  UNL1        0.1647
     33 O           1.7397   -2.3975   -1.1080 O.3     1  UNL1       -0.4913
     34 C           0.6665   -1.5562   -1.3930 C.3     1  UNL1        0.0790
     35 H           0.9484    1.6504    0.4032 H       1  UNL1        0.0660
     36 H           0.6686    0.0129    1.0978 H       1  UNL1        0.0660
     37 H           0.5653    0.4609   -0.6425 H       1  UNL1        0.0660
     38 H           4.5276   -0.1117    1.6951 H       1  UNL1        0.0656
     39 H           5.9672   -2.1333    1.8107 H       1  UNL1        0.0653
     40 H           6.0865   -4.6023    1.2885 H       1  UNL1        0.2646
     41 H           2.5099   -3.5134   -2.9493 H       1  UNL1        0.0626
     42 H           0.3652   -3.1599   -3.9900 H       1  UNL1        0.0620
     43 H          -1.7889   -4.0017   -4.6305 H       1  UNL1        0.0278
     44 H          -2.6690   -4.8141   -3.3155 H       1  UNL1        0.0278
     45 H          -1.8116   -5.7696   -4.5605 H       1  UNL1        0.0278
     46 H          -1.2035   -6.6076   -1.9560 H       1  UNL1        0.0620
     47 H           0.8577   -6.7811   -0.6443 H       1  UNL1        0.0626
     48 H           6.3851   -6.9067    1.1269 H       1  UNL1        0.2577
     49 H           5.1707   -8.3183   -1.1180 H       1  UNL1        0.0658
     50 H           4.2101   -8.4727    0.3699 H       1  UNL1        0.0658
     51 H           6.1205   -9.4837    1.5192 H       1  UNL1        0.0343
     52 H           7.1237   -9.2538    0.0902 H       1  UNL1        0.0343
     53 H           8.0671  -11.0520    1.4889 H       1  UNL1        0.0626
     54 H           9.3718  -13.1176    1.4542 H       1  UNL1        0.0618
     55 H           8.4462  -15.1867    0.5273 H       1  UNL1        0.0620
     56 H           6.3187  -15.2581   -0.7208 H       1  UNL1        0.0683
     57 H           4.2352  -13.4805   -1.4393 H       1  UNL1        0.4459
     58 H           3.5868  -11.1285   -0.4220 H       1  UNL1        0.1077
     59 H           4.5699  -10.8772   -1.9153 H       1  UNL1        0.1077
     60 H           3.8989   -3.6152   -1.4785 H       1  UNL1        0.0690
     61 H          -0.0872   -1.9642   -2.0696 H       1  UNL1        0.0660
     62 H           1.0838   -0.7115   -1.9416 H       1  UNL1        0.0660
     63 H           0.0977   -1.4081   -0.4738 H       1  UNL1        0.0660
@<TRIPOS>UNITY_ATOM_ATTR
29 1
charge 1
@<TRIPOS>BOND
     1     1     2    1
     2     2     3    1
     3     3     4   ar
     4     4     5   ar
     5     5     6   ar
     6     6     7    1
     7     7     8    1
     8     8     9    2
     9     9    10    1
    10    10    11    2
    11    10    12    1
    12    12    13   ar
    13    13    14   ar
    14    14    15   ar
    15    15    16    1
    16    15    17   ar
    17    17    18   ar
    18    12    18   ar
    19     8    19    1
    20    19    20    1
    21    20    21    1
    22    21    22    1
    23    22    23    2
    24    23    24   ar
    25    24    25   ar
    26    25    26   ar
    27    26    27   ar
    28    27    28   ar
    29    23    28   ar
    30    28    29    2
    31    29    30    1
    32    22    30    1
    33     6    31   ar
    34    31    32   ar
    35     3    32   ar
    36    32    33    1
    37    33    34    1
    38     1    35    1
    39     1    36    1
    40     1    37    1
    41     4    38    1
    42     5    39    1
    43     7    40    1
    44    13    41    1
    45    14    42    1
    46    16    43    1
    47    16    44    1
    48    16    45    1
    49    17    46    1
    50    18    47    1
    51    19    48    1
    52    20    49    1
    53    20    50    1
    54    21    51    1
    55    21    52    1
    56    24    53    1
    57    25    54    1
    58    26    55    1
    59    27    56    1
    60    29    57    1
    61    30    58    1
    62    30    59    1
    63    31    60    1
    64    34    61    1
    65    34    62    1
    66    34    63    1
