REMARK  5 active torsions:
REMARK  status: ('A' for Active; 'I' for Inactive)
REMARK    1  A    between atoms: C_14  and  N_15 
REMARK       I    between atoms: N_15  and  C_16 
REMARK    2  A    between atoms: C_16  and  C_18 
REMARK    3  A    between atoms: C_18  and  S_19 
REMARK    4  A    between atoms: S_19  and  C_20 
REMARK    5  A    between atoms: C_23  and  C_24 
ROOT
ATOM      1  N   UNL d   1       1.610  -5.664   1.724  0.00  0.00    -0.305 N 
ATOM      2  C   UNL d   1       1.044  -5.428   2.976  0.00  0.00     0.233 C 
ATOM      3  O   UNL d   1       1.018  -4.303   3.479  0.00  0.00    -0.272 OA
ATOM      4  H   UNL d   1       1.636  -6.579   1.292  0.00  0.00     0.171 HD
ENDROOT
BRANCH   1   5
ATOM      5  C   UNL d   1       2.169  -4.596   1.030  0.00  0.00     0.173 A 
ATOM      6  S   UNL d   1       2.826  -4.918  -0.519  0.00  0.00    -0.061 SA
ATOM      7  C   UNL d   1       3.277  -3.247  -0.667  0.00  0.00     0.085 A 
ATOM      8  C   UNL d   1       2.909  -2.568   0.476  0.00  0.00     0.075 A 
ATOM      9  C   UNL d   1       3.169  -1.202   0.801  0.00  0.00     0.006 A 
ATOM     10  N   UNL d   1       2.275  -3.343   1.417  0.00  0.00    -0.223 NA
ATOM     11  C   UNL d   1       3.868  -0.705   1.837  0.00  0.00     0.001 A 
ATOM     12  C   UNL d   1       2.555  -0.084  -0.018  0.00  0.00     0.114 A 
ATOM     13  C   UNL d   1       4.625  -1.263   2.915  0.00  0.00     0.014 A 
ATOM     14  C   UNL d   1       3.756   0.762   1.712  0.00  0.00     0.039 A 
ATOM     15  C   UNL d   1       5.239  -0.430   3.774  0.00  0.00     0.001 A 
ATOM     16  C   UNL d   1       5.152   1.017   3.650  0.00  0.00     0.002 A 
ATOM     17  C   UNL d   1       4.452   1.628   2.677  0.00  0.00     0.030 A 
ATOM     18  N   UNL d   1       3.037   1.118   0.713  0.00  0.00    -0.381 N 
ATOM     19  H   UNL d   1       2.872   2.093   0.481  0.00  0.00     0.160 HD
ATOM     20  C   UNL d   1       3.063   0.031  -1.447  0.00  0.00     0.037 C 
ENDBRANCH   1   5
BRANCH   2  21
ATOM     21  C   UNL d   1       0.444  -6.652   3.730  0.00  0.00     0.185 C 
BRANCH  21  22
ATOM     22  S   UNL d   1      -0.247  -6.082   5.330  0.00  0.00    -0.083 SA
BRANCH  22  23
ATOM     23  C   UNL d   1      -0.874  -7.421   6.216  0.00  0.00     0.167 A 
ATOM     24  N   UNL d   1      -1.655  -7.294   7.266  0.00  0.00    -0.235 NA
ATOM     25  C   UNL d   1      -1.839  -8.566   7.743  0.00  0.00     0.149 A 
ATOM     26  C   UNL d   1      -1.164  -9.491   6.968  0.00  0.00     0.062 A 
ATOM     27  N   UNL d   1      -0.551  -8.729   5.996  0.00  0.00    -0.333 N 
ATOM     28  H   UNL d   1       0.043  -9.078   5.264  0.00  0.00     0.168 HD
BRANCH  26  29
ATOM     29  C   UNL d   1      -1.041 -10.934   7.122  0.00  0.00    -0.008 A 
ATOM     30  C   UNL d   1      -2.191 -11.731   7.201  0.00  0.00     0.014 A 
ATOM     31  C   UNL d   1      -2.098 -13.078   7.562  0.00  0.00     0.001 A 
ATOM     32  C   UNL d   1      -0.848 -13.664   7.744  0.00  0.00     0.000 A 
ATOM     33  C   UNL d   1       0.306 -12.906   7.554  0.00  0.00     0.001 A 
ATOM     34  C   UNL d   1       0.210 -11.535   7.295  0.00  0.00     0.014 A 
ENDBRANCH  26  29
ENDBRANCH  22  23
ENDBRANCH  21  22
ENDBRANCH   2  21
TORSDOF 5
