REMARK  9 active torsions:
REMARK  status: ('A' for Active; 'I' for Inactive)
REMARK    1  A    between atoms: O_2  and  C_3 
REMARK    2  A    between atoms: C_5  and  C_6 
REMARK    3  A    between atoms: N_7  and  N_8 
REMARK       I    between atoms: N_8  and  C_9 
REMARK    4  A    between atoms: C_9  and  C_11 
REMARK    5  A    between atoms: C_11  and  S_12 
REMARK    6  A    between atoms: S_12  and  C_13 
REMARK    7  A    between atoms: C_24  and  O_25 
REMARK    8  A    between atoms: O_25  and  C_26 
REMARK    9  A    between atoms: C_26  and  C_27 
ROOT
ATOM      1  C   UNL d   1       6.424   2.419  -1.399  0.00  0.00     0.150 C 
ATOM      2  N   UNL d   1       7.202   3.455  -1.241  0.00  0.00    -0.184 NA
ENDROOT
BRANCH   2   3
ATOM      3  N   UNL d   1       8.493   3.454  -1.753  0.00  0.00    -0.247 N 
ATOM      4  C   UNL d   1       9.282   4.605  -1.552  0.00  0.00     0.247 C 
ATOM      5  O   UNL d   1       8.893   5.577  -0.906  0.00  0.00    -0.271 OA
ATOM      6  H   UNL d   1       8.806   2.617  -2.231  0.00  0.00     0.192 HD
BRANCH   4   7
ATOM      7  C   UNL d   1      10.720   4.622  -2.188  0.00  0.00     0.182 C 
BRANCH   7   8
ATOM      8  S   UNL d   1      11.441   6.457  -2.050  0.00  0.00    -0.104 SA
BRANCH   8   9
ATOM      9  C   UNL d   1      13.202   6.430  -2.507  0.00  0.00     0.385 C 
ATOM     10  N   UNL d   1      14.147   6.874  -1.424  0.00  0.00     0.139 N 
ATOM     11  C   UNL d   1      15.220   7.057  -2.050  0.00  0.00     0.265 C 
ATOM     12  H   UNL d   1      13.638   7.721  -1.053  0.00  0.00     0.321 HD
ATOM     13  C   UNL d   1      16.137   6.034  -2.762  0.00  0.00     0.024 C 
ATOM     14  C   UNL d   1      14.935   8.002  -3.170  0.00  0.00     0.053 C 
ATOM     15  C   UNL d   1      17.196   6.546  -3.412  0.00  0.00    -0.001 C 
ATOM     16  C   UNL d   1      17.359   7.978  -3.422  0.00  0.00     0.002 C 
ATOM     17  C   UNL d   1      16.240   8.751  -3.420  0.00  0.00     0.028 C 
ATOM     18  N   UNL d   1      13.861   7.417  -3.655  0.00  0.00    -0.353 N 
ATOM     19  H   UNL d   1      13.813   6.993  -4.596  0.00  0.00     0.162 HD
ENDBRANCH   8   9
ENDBRANCH   7   8
ENDBRANCH   4   7
ENDBRANCH   2   3
BRANCH   1  20
ATOM     20  C   UNL d   1       5.038   2.379  -0.809  0.00  0.00    -0.014 A 
ATOM     21  C   UNL d   1       4.214   1.230  -0.872  0.00  0.00     0.052 A 
ATOM     22  C   UNL d   1       3.015   1.118  -0.108  0.00  0.00     0.102 A 
ATOM     23  C   UNL d   1       2.659   2.221   0.710  0.00  0.00     0.102 A 
ATOM     24  C   UNL d   1       3.441   3.391   0.682  0.00  0.00     0.040 A 
ATOM     25  C   UNL d   1       4.607   3.478  -0.071  0.00  0.00     0.016 A 
BRANCH  22  26
ATOM     26  O   UNL d   1       2.522  -0.177  -0.068  0.00  0.00    -0.353 OA
ATOM     27  C   UNL d   1       1.162  -0.514  -0.387  0.00  0.00     0.210 C 
ENDBRANCH  22  26
BRANCH  23  28
ATOM     28  O   UNL d   1       1.664   2.370   1.655  0.00  0.00    -0.344 OA
BRANCH  28  29
ATOM     29  C   UNL d   1       0.742   1.314   1.615  0.00  0.00     0.214 C 
BRANCH  29  30
ATOM     30  C   UNL d   1      -0.468   1.350   2.477  0.00  0.00    -0.034 C 
ATOM     31  C   UNL d   1      -0.994   2.584   2.811  0.00  0.00     0.009 C 
ATOM     32  C   UNL d   1      -2.029   2.641   3.720  0.00  0.00     0.001 C 
ATOM     33  C   UNL d   1      -2.631   1.464   4.172  0.00  0.00     0.000 C 
ATOM     34  C   UNL d   1      -2.196   0.218   3.723  0.00  0.00     0.001 C 
ATOM     35  C   UNL d   1      -1.108   0.156   2.867  0.00  0.00     0.009 C 
ENDBRANCH  29  30
ENDBRANCH  28  29
ENDBRANCH  23  28
ENDBRANCH   1  20
TORSDOF 9
