@<TRIPOS>MOLECULE
*****
 51 53 0 0 0
SMALL
GASTEIGER

@<TRIPOS>ATOM
      1 O           0.9920    0.0169   -0.6124 O.2     1  UNL1       -0.2513
      2 C           2.2077    0.0782   -0.7770 C.2     1  UNL1        0.3160
      3 N           2.8539    1.2961   -0.8558 N.am    1  UNL1       -0.2982
      4 C           2.1592    2.5586   -0.5091 C.3     1  UNL1        0.0147
      5 C           3.1503    3.7079   -0.2893 C.3     1  UNL1       -0.0191
      6 C           2.4860    5.0842   -0.2111 C.3     1  UNL1        0.0296
      7 N           3.4610    6.2014   -0.2001 N.ar    1  UNL1       -0.2957
      8 C           4.8529    6.1157   -0.2286 C.ar    1  UNL1        0.0732
      9 C           5.3381    7.3901   -0.2519 C.ar    1  UNL1        0.1870
     10 N           4.2432    8.2158   -0.2197 N.ar    1  UNL1       -0.2011
     11 C           3.1128    7.5025   -0.1815 C.ar    1  UNL1        0.2463
     12 N           2.9920   -1.0748   -0.7935 N.am    1  UNL1       -0.2180
     13 N           4.4329   -1.1795   -0.7930 N.am    1  UNL1       -0.2292
     14 C           5.0237   -2.4045   -0.4041 C.2     1  UNL1        0.2609
     15 O           4.4082   -3.4383   -0.2424 O.2     1  UNL1       -0.2686
     16 C           6.5118   -2.4014   -0.1297 C.ar    1  UNL1        0.0490
     17 C           7.2679   -3.3649   -0.8305 C.ar    1  UNL1       -0.0489
     18 C           8.6559   -3.4843   -0.6510 C.ar    1  UNL1       -0.0610
     19 C           9.3262   -2.6169    0.1996 C.ar    1  UNL1       -0.0610
     20 C           8.5933   -1.6860    0.9298 C.ar    1  UNL1       -0.0502
     21 C           7.1836   -1.5916    0.8071 C.ar    1  UNL1        0.0344
     22 C           6.5620   -0.5945    1.7159 C.2     1  UNL1        0.1939
     23 O           7.2543    0.2953    2.2088 O.2     1  UNL1       -0.2866
     24 C           5.1246   -0.5270    1.9967 C.ar    1  UNL1        0.0223
     25 C           4.5308    0.7184    1.8067 C.ar    1  UNL1       -0.0509
     26 C           3.1681    0.8542    2.0277 C.ar    1  UNL1       -0.0611
     27 C           2.3673   -0.2721    2.2048 C.ar    1  UNL1       -0.0617
     28 C           2.9546   -1.5255    2.3284 C.ar    1  UNL1       -0.0611
     29 C           4.3456   -1.6435    2.3116 C.ar    1  UNL1       -0.0509
     30 H           3.8364    1.2422   -0.6685 H       1  UNL1        0.1503
     31 H           1.5379    2.4370    0.3884 H       1  UNL1        0.0463
     32 H           1.4581    2.7918   -1.3134 H       1  UNL1        0.0463
     33 H           3.8730    3.6974   -1.1111 H       1  UNL1        0.0297
     34 H           3.7304    3.5551    0.6322 H       1  UNL1        0.0297
     35 H           1.8745    5.1760    0.6956 H       1  UNL1        0.0494
     36 H           1.8345    5.2362   -1.0783 H       1  UNL1        0.0494
     37 H           5.3408    5.1567   -0.2385 H       1  UNL1        0.0871
     38 H           6.3276    7.8115   -0.2869 H       1  UNL1        0.1392
     39 H           4.2796    9.2330   -0.2236 H       1  UNL1        0.4538
     40 H           2.1067    7.9059   -0.1491 H       1  UNL1        0.1600
     41 H           2.5087   -1.9052   -0.4382 H       1  UNL1        0.1744
     42 H           4.9583   -0.3347   -0.6641 H       1  UNL1        0.1732
     43 H           6.7794   -4.0423   -1.5295 H       1  UNL1        0.0625
     44 H           9.2162   -4.2583   -1.1738 H       1  UNL1        0.0618
     45 H          10.4087   -2.6731    0.3113 H       1  UNL1        0.0618
     46 H           9.1366   -1.0379    1.6209 H       1  UNL1        0.0625
     47 H           5.1090    1.5416    1.3875 H       1  UNL1        0.0625
     48 H           2.6980    1.8171    1.9025 H       1  UNL1        0.0618
     49 H           1.2853   -0.1831    2.0984 H       1  UNL1        0.0618
     50 H           2.3286   -2.4157    2.3433 H       1  UNL1        0.0618
     51 H           4.7879   -2.6325    2.3935 H       1  UNL1        0.0625
@<TRIPOS>UNITY_ATOM_ATTR
10 1
charge 1
@<TRIPOS>BOND
     1     1     2    2
     2     2     3   am
     3     3     4    1
     4     4     5    1
     5     5     6    1
     6     6     7    1
     7     7     8   ar
     8     8     9   ar
     9     9    10   ar
    10    10    11   ar
    11     7    11   ar
    12     2    12   am
    13    12    13    1
    14    13    14   am
    15    14    15    2
    16    14    16    1
    17    16    17   ar
    18    17    18   ar
    19    18    19   ar
    20    19    20   ar
    21    20    21   ar
    22    16    21   ar
    23    21    22    1
    24    22    23    2
    25    22    24    1
    26    24    25   ar
    27    25    26   ar
    28    26    27   ar
    29    27    28   ar
    30    28    29   ar
    31    24    29   ar
    32     3    30    1
    33     4    31    1
    34     4    32    1
    35     5    33    1
    36     5    34    1
    37     6    35    1
    38     6    36    1
    39     8    37    1
    40     9    38    1
    41    10    39    1
    42    11    40    1
    43    12    41    1
    44    13    42    1
    45    17    43    1
    46    18    44    1
    47    19    45    1
    48    20    46    1
    49    25    47    1
    50    26    48    1
    51    27    49    1
    52    28    50    1
    53    29    51    1
