REMARK  7 active torsions:
REMARK  status: ('A' for Active; 'I' for Inactive)
REMARK    1  A    between atoms: C_5  and  C_6 
REMARK    2  A    between atoms: C_6  and  C_7 
REMARK    3  A    between atoms: C_7  and  C_8 
REMARK    4  A    between atoms: C_8  and  N_9 
REMARK       I    between atoms: N_9  and  C_10 
REMARK       I    between atoms: C_10  and  N_12 
REMARK    5  A    between atoms: N_12  and  C_13 
REMARK    6  A    between atoms: C_13  and  C_14 
REMARK    7  A    between atoms: C_17  and  O_18 
ROOT
ATOM      1  N   UNL d   1       6.263   1.008  -0.312  0.00  0.00    -0.343 N 
ATOM      2  C   UNL d   1       7.454   1.693  -0.432  0.00  0.00     0.316 C 
ATOM      3  O   UNL d   1       7.519   2.914  -0.541  0.00  0.00    -0.247 OA
ATOM      4  N   UNL d   1       8.553   0.879  -0.424  0.00  0.00    -0.339 N 
ATOM      5  H   UNL d   1       6.266   0.002  -0.234  0.00  0.00     0.164 HD
ATOM      6  H   UNL d   1       8.405  -0.099  -0.267  0.00  0.00     0.164 HD
ENDROOT
BRANCH   1   7
ATOM      7  C   UNL d   1       4.992   1.724  -0.312  0.00  0.00     0.125 C 
BRANCH   7   8
ATOM      8  C   UNL d   1       3.765   0.814  -0.172  0.00  0.00     0.028 C 
BRANCH   8   9
ATOM      9  C   UNL d   1       2.457   1.619  -0.172  0.00  0.00     0.090 C 
BRANCH   9  10
ATOM     10  C   UNL d   1       1.218   0.795  -0.053  0.00  0.00     0.172 A 
ATOM     11  O   UNL d   1       1.340  -0.566  -0.023  0.00  0.00    -0.196 OA
ATOM     12  N   UNL d   1       0.042  -1.082   0.018  0.00  0.00    -0.112 NA
ATOM     13  C   UNL d   1      -0.725   0.015   0.014  0.00  0.00     0.152 A 
ATOM     14  C   UNL d   1      -2.201  -0.040  -0.012  0.00  0.00     0.096 C 
ATOM     15  N   UNL d   1      -0.034   1.200  -0.018  0.00  0.00    -0.209 NA
ENDBRANCH   9  10
ENDBRANCH   8   9
ENDBRANCH   7   8
ENDBRANCH   1   7
BRANCH   4  16
ATOM     16  C   UNL d   1       9.914   1.405  -0.529  0.00  0.00     0.162 C 
BRANCH  16  17
ATOM     17  C   UNL d   1      11.031   0.369  -0.495  0.00  0.00    -0.040 A 
ATOM     18  C   UNL d   1      10.791  -1.014  -0.500  0.00  0.00     0.011 A 
ATOM     19  C   UNL d   1      11.837  -1.943  -0.478  0.00  0.00     0.037 A 
ATOM     20  C   UNL d   1      13.150  -1.498  -0.468  0.00  0.00     0.065 A 
ATOM     21  C   UNL d   1      13.428  -0.138  -0.465  0.00  0.00     0.037 A 
ATOM     22  C   UNL d   1      12.377   0.792  -0.480  0.00  0.00     0.011 A 
BRANCH  20  23
ATOM     23  O   UNL d   1      14.198  -2.369  -0.465  0.00  0.00    -0.361 OA
ATOM     24  H   UNL d   1      13.853  -3.277  -0.497  0.00  0.00     0.217 HD
ENDBRANCH  20  23
ENDBRANCH  16  17
ENDBRANCH   4  16
TORSDOF 7
