@<TRIPOS>MOLECULE
*****
 48 50 0 0 0
SMALL
GASTEIGER

@<TRIPOS>ATOM
      1 N           1.2282   -0.0008   -0.0847 N.am    1  UNL1       -0.3131
      2 C           2.5754    0.0618    0.0159 C.2     1  UNL1        0.3013
      3 O           3.0637    0.7623    0.9075 O.2     1  UNL1       -0.2527
      4 N           3.2629   -0.6365   -0.9415 N.am    1  UNL1       -0.2696
      5 C           4.6660   -0.7992   -0.9319 C.ar    1  UNL1        0.0349
      6 C           5.4023   -0.9113   -2.1140 C.ar    1  UNL1       -0.0387
      7 C           6.7939   -1.1839   -2.0647 C.ar    1  UNL1       -0.0387
      8 C           7.4664   -1.3059   -0.8310 C.ar    1  UNL1        0.0338
      9 N           8.8925   -1.4222   -0.7727 N.am    1  UNL1       -0.2815
     10 C           9.6638   -1.2451    0.3799 C.2     1  UNL1        0.2486
     11 O           9.2445   -1.1906    1.5386 O.2     1  UNL1       -0.2698
     12 C          11.1492   -1.1011    0.2539 C.ar    1  UNL1        0.0434
     13 C          11.8900   -1.8767    1.1720 C.ar    1  UNL1       -0.0493
     14 C          13.2677   -1.7113    1.3212 C.ar    1  UNL1       -0.0610
     15 C          13.9428   -0.8104    0.5102 C.ar    1  UNL1       -0.0614
     16 C          13.2290   -0.0322   -0.4012 C.ar    1  UNL1       -0.0546
     17 C          11.8238   -0.1389   -0.5287 C.ar    1  UNL1        0.0017
     18 C          11.1774    0.8239   -1.4995 C.3     1  UNL1        0.1153
     19 O           9.7920    0.8941   -1.2654 O.3     1  UNL1       -0.4873
     20 C           8.9491    1.3552   -2.2186 C.ar    1  UNL1        0.1216
     21 C           7.7156    1.7696   -1.7073 C.ar    1  UNL1       -0.0199
     22 C           6.6906    2.1713   -2.5550 C.ar    1  UNL1       -0.0577
     23 C           6.9269    2.2356   -3.9241 C.ar    1  UNL1       -0.0513
     24 C           8.1507    1.7839   -4.4332 C.ar    1  UNL1        0.0176
     25 C           8.3877    1.7933   -5.8860 C.2     1  UNL1        0.1503
     26 O           9.4211    1.3426   -6.3712 O.2     1  UNL1       -0.2957
     27 C           9.1531    1.3024   -3.5871 C.ar    1  UNL1       -0.0097
     28 C           6.7050   -1.1724    0.3238 C.ar    1  UNL1       -0.0387
     29 C           5.3369   -0.9179    0.2778 C.ar    1  UNL1       -0.0387
     30 H           0.7172    0.5141    0.6222 H       1  UNL1        0.1465
     31 H           0.7160   -0.5941   -0.7158 H       1  UNL1        0.1465
     32 H           2.7493   -1.0314   -1.7147 H       1  UNL1        0.1564
     33 H           4.9382   -0.6811   -3.0724 H       1  UNL1        0.0637
     34 H           7.3457   -1.1941   -3.0036 H       1  UNL1        0.0637
     35 H           9.3763   -1.2905   -1.6518 H       1  UNL1        0.1551
     36 H          11.3756   -2.5961    1.8093 H       1  UNL1        0.0625
     37 H          13.8055   -2.2692    2.0839 H       1  UNL1        0.0618
     38 H          15.0214   -0.7015    0.5966 H       1  UNL1        0.0618
     39 H          13.7770    0.6982   -0.9963 H       1  UNL1        0.0622
     40 H          11.4469    0.4935   -2.5070 H       1  UNL1        0.0748
     41 H          11.5598    1.8340   -1.3212 H       1  UNL1        0.0748
     42 H           7.5278    1.6768   -0.6364 H       1  UNL1        0.0654
     43 H           5.7083    2.3812   -2.1376 H       1  UNL1        0.0619
     44 H           6.1445    2.6120   -4.5748 H       1  UNL1        0.0624
     45 H           7.5957    2.2258   -6.5159 H       1  UNL1        0.1081
     46 H          10.0471    0.8669   -4.0215 H       1  UNL1        0.0661
     47 H           7.1412   -1.2289    1.3108 H       1  UNL1        0.0637
     48 H           4.8122   -0.8481    1.2251 H       1  UNL1        0.0637
@<TRIPOS>BOND
     1     1     2   am
     2     2     3    2
     3     2     4   am
     4     4     5    1
     5     5     6   ar
     6     6     7   ar
     7     7     8   ar
     8     8     9    1
     9     9    10   am
    10    10    11    2
    11    10    12    1
    12    12    13   ar
    13    13    14   ar
    14    14    15   ar
    15    15    16   ar
    16    16    17   ar
    17    12    17   ar
    18    17    18    1
    19    18    19    1
    20    19    20    1
    21    20    21   ar
    22    21    22   ar
    23    22    23   ar
    24    23    24   ar
    25    24    25    1
    26    25    26    2
    27    24    27   ar
    28    20    27   ar
    29     8    28   ar
    30    28    29   ar
    31     5    29   ar
    32     1    30    1
    33     1    31    1
    34     4    32    1
    35     6    33    1
    36     7    34    1
    37     9    35    1
    38    13    36    1
    39    14    37    1
    40    15    38    1
    41    16    39    1
    42    18    40    1
    43    18    41    1
    44    21    42    1
    45    22    43    1
    46    23    44    1
    47    25    45    1
    48    27    46    1
    49    28    47    1
    50    29    48    1
