REMARK  10 active torsions:
REMARK  status: ('A' for Active; 'I' for Inactive)
REMARK    1  A    between atoms: C_5  and  S_6 
REMARK    2  A    between atoms: S_6  and  N_9 
REMARK    3  A    between atoms: N_9  and  N_10 
REMARK    4  A    between atoms: N_10  and  C_11 
REMARK    5  A    between atoms: C_11  and  S_13 
REMARK    6  A    between atoms: S_13  and  C_14 
REMARK    7  A    between atoms: C_14  and  C_15 
REMARK       I    between atoms: C_15  and  N_17 
REMARK    8  A    between atoms: N_17  and  C_18 
REMARK    9  A    between atoms: C_18  and  O_19 
REMARK   10  A    between atoms: C_18  and  C_20 
ROOT
ATOM      1  C   UNL d   1      -6.311   3.024  -0.129  0.00  0.00     0.154 C 
ATOM      2  S   UNL d   1      -5.445   4.454  -0.151  0.00  0.00    -0.051 SA
ENDROOT
BRANCH   1   3
ATOM      3  N   UNL d   1      -5.719   1.764  -0.086  0.00  0.00    -0.275 N 
ATOM      4  H   UNL d   1      -6.286   0.921   0.017  0.00  0.00     0.189 HD
BRANCH   3   5
ATOM      5  N   UNL d   1      -4.234   1.560  -0.145  0.00  0.00    -0.221 N 
ATOM      6  H   UNL d   1      -3.740   2.202  -0.771  0.00  0.00     0.200 HD
BRANCH   5   7
ATOM      7  S   UNL d   1      -3.647  -0.044  -0.080  0.00  0.00     0.276 S 
ATOM      8  O   UNL d   1      -4.003  -0.647  -1.343  0.00  0.00    -0.199 OA
ATOM      9  O   UNL d   1      -4.096  -0.610   1.179  0.00  0.00    -0.199 OA
BRANCH   7  10
ATOM     10  C   UNL d   1      -1.863   0.028  -0.020  0.00  0.00     0.081 A 
ATOM     11  C   UNL d   1      -1.162  -1.189  -0.008  0.00  0.00     0.026 A 
ATOM     12  C   UNL d   1       0.240  -1.202   0.002  0.00  0.00     0.008 A 
ATOM     13  C   UNL d   1       0.957  -0.001   0.000  0.00  0.00    -0.062 A 
ATOM     14  C   UNL d   1       2.461   0.003  -0.013  0.00  0.00     0.048 C 
ATOM     15  C   UNL d   1       0.248   1.210   0.005  0.00  0.00     0.008 A 
ATOM     16  C   UNL d   1      -1.156   1.230   0.001  0.00  0.00     0.026 A 
ENDBRANCH   7  10
ENDBRANCH   5   7
ENDBRANCH   3   5
ENDBRANCH   1   3
BRANCH   1  17
ATOM     17  S   UNL d   1      -8.069   2.885  -0.136  0.00  0.00    -0.090 SA
BRANCH  17  18
ATOM     18  C   UNL d   1      -8.751   4.605  -0.156  0.00  0.00     0.184 C 
BRANCH  18  19
ATOM     19  C   UNL d   1     -10.301   4.585  -0.195  0.00  0.00     0.229 C 
ATOM     20  O   UNL d   1     -10.956   3.551  -0.304  0.00  0.00    -0.273 OA
ATOM     21  N   UNL d   1     -10.934   5.821  -0.099  0.00  0.00    -0.330 N 
ATOM     22  H   UNL d   1     -10.389   6.669  -0.201  0.00  0.00     0.165 HD
BRANCH  21  23
ATOM     23  C   UNL d   1     -12.402   5.934  -0.199  0.00  0.00     0.275 C 
BRANCH  23  24
ATOM     24  O   UNL d   1     -12.934   5.253   0.939  0.00  0.00    -0.372 OA
ATOM     25  H   UNL d   1     -12.597   5.707   1.728  0.00  0.00     0.212 HD
ENDBRANCH  23  24
BRANCH  23  26
ATOM     26  C   UNL d   1     -12.966   7.404  -0.263  0.00  0.00     0.231 C 
ATOM     27 CL   UNL d   1     -12.433   8.309   1.205  0.00  0.00    -0.079 Cl
ATOM     28 CL   UNL d   1     -12.333   8.262  -1.702  0.00  0.00    -0.079 Cl
ATOM     29 CL   UNL d   1     -14.758   7.426  -0.314  0.00  0.00    -0.079 Cl
ENDBRANCH  23  26
ENDBRANCH  21  23
ENDBRANCH  18  19
ENDBRANCH  17  18
ENDBRANCH   1  17
TORSDOF 10
