REMARK  14 active torsions:
REMARK  status: ('A' for Active; 'I' for Inactive)
REMARK    1  A    between atoms: C_2  and  C_3 
REMARK    2  A    between atoms: C_3  and  C_4 
REMARK    3  A    between atoms: C_4  and  C_5 
REMARK    4  A    between atoms: C_5  and  C_6 
REMARK    5  A    between atoms: C_6  and  O_7 
REMARK    6  A    between atoms: O_7  and  C_8 
REMARK    7  A    between atoms: C_11  and  C_12 
REMARK       I    between atoms: C_12  and  N_14 
REMARK    8  A    between atoms: N_14  and  C_15 
REMARK    9  A    between atoms: C_15  and  N_17 
REMARK   10  A    between atoms: C_23  and  C_24 
REMARK   11  A    between atoms: C_24  and  C_25 
REMARK   12  A    between atoms: C_25  and  O_27 
REMARK   13  A    between atoms: O_27  and  C_28 
REMARK   14  A    between atoms: C_28  and  C_30 
ROOT
ATOM      1  C   UNL d   1      15.108  -3.338  -3.641  0.00  0.00     0.177 C 
ATOM      2  S   UNL d   1      15.965  -3.206  -5.085  0.00  0.00    -0.041 SA
ENDROOT
BRANCH   1   3
ATOM      3  N   UNL d   1      13.699  -3.198  -3.538  0.00  0.00    -0.299 N 
ATOM      4  C   UNL d   1      12.755  -2.936  -4.558  0.00  0.00     0.257 C 
ATOM      5  O   UNL d   1      13.051  -2.793  -5.741  0.00  0.00    -0.267 OA
ATOM      6  H   UNL d   1      13.345  -3.133  -2.602  0.00  0.00     0.171 HD
BRANCH   4   7
ATOM      7  C   UNL d   1      11.291  -2.768  -4.219  0.00  0.00     0.032 A 
ATOM      8  C   UNL d   1      10.424  -2.413  -5.276  0.00  0.00     0.020 A 
ATOM      9  C   UNL d   1       9.069  -2.126  -5.057  0.00  0.00     0.038 A 
ATOM     10  C   UNL d   1       8.527  -2.252  -3.783  0.00  0.00     0.068 A 
ATOM     11  C   UNL d   1       9.358  -2.659  -2.736  0.00  0.00     0.038 A 
ATOM     12  C   UNL d   1      10.731  -2.912  -2.947  0.00  0.00     0.020 A 
BRANCH  10  13
ATOM     13  O   UNL d   1       7.174  -2.066  -3.684  0.00  0.00    -0.351 OA
BRANCH  13  14
ATOM     14  C   UNL d   1       6.717  -1.452  -2.477  0.00  0.00     0.175 C 
BRANCH  14  15
ATOM     15  C   UNL d   1       5.190  -1.456  -2.469  0.00  0.00     0.027 C 
BRANCH  15  16
ATOM     16  C   UNL d   1       4.655  -0.736  -1.234  0.00  0.00     0.002 C 
BRANCH  16  17
ATOM     17  C   UNL d   1       3.131  -0.730  -1.218  0.00  0.00    -0.000 C 
BRANCH  17  18
ATOM     18  C   UNL d   1       2.602   0.001   0.013  0.00  0.00    -0.005 C 
ATOM     19  C   UNL d   1       1.084   0.006   0.023  0.00  0.00     0.005 C 
ENDBRANCH  17  18
ENDBRANCH  16  17
ENDBRANCH  15  16
ENDBRANCH  14  15
ENDBRANCH  13  14
ENDBRANCH  10  13
ENDBRANCH   4   7
ENDBRANCH   1   3
BRANCH   1  20
ATOM     20  N   UNL d   1      15.772  -3.499  -2.394  0.00  0.00    -0.343 N 
ATOM     21  C   UNL d   1      17.126  -2.914  -2.220  0.00  0.00     0.146 C 
ATOM     22  C   UNL d   1      17.167  -2.268  -0.845  0.00  0.00     0.142 C 
ATOM     23  N   UNL d   1      16.957  -3.258   0.177  0.00  0.00    -0.358 N 
ATOM     24  C   UNL d   1      16.096  -4.308   0.026  0.00  0.00     0.241 C 
ATOM     25  H   UNL d   1      17.239  -3.084   1.135  0.00  0.00     0.162 HD
ATOM     26  O   UNL d   1      15.868  -4.973   1.034  0.00  0.00    -0.271 OA
ATOM     27  C   UNL d   1      15.548  -4.641  -1.421  0.00  0.00     0.188 C 
BRANCH  27  28
ATOM     28  C   UNL d   1      14.094  -5.071  -1.331  0.00  0.00     0.146 C 
BRANCH  28  29
ATOM     29  C   UNL d   1      13.856  -6.253  -0.446  0.00  0.00     0.261 C 
ATOM     30  O   UNL d   1      14.710  -7.062  -0.105  0.00  0.00    -0.265 OA
BRANCH  29  31
ATOM     31  O   UNL d   1      12.527  -6.329  -0.135  0.00  0.00    -0.316 OA
BRANCH  31  32
ATOM     32  C   UNL d   1      12.227  -7.361   0.822  0.00  0.00     0.127 C 
ATOM     33  C   UNL d   1      12.688  -6.878   2.197  0.00  0.00     0.040 C 
BRANCH  32  34
ATOM     34  C   UNL d   1      10.719  -7.638   0.810  0.00  0.00     0.027 C 
ATOM     35  C   UNL d   1      10.334  -8.715   1.817  0.00  0.00     0.007 C 
ENDBRANCH  32  34
ENDBRANCH  31  32
ENDBRANCH  29  31
ENDBRANCH  28  29
ENDBRANCH  27  28
ENDBRANCH   1  20
TORSDOF 14
