REMARK  5 active torsions:
REMARK  status: ('A' for Active; 'I' for Inactive)
REMARK    1  A    between atoms: C_10  and  O_11 
REMARK    2  A    between atoms: C_13  and  C_14 
REMARK    3  A    between atoms: C_17  and  O_18 
REMARK    4  A    between atoms: O_18  and  C_19 
REMARK    5  A    between atoms: C_19  and  C_21 
ROOT
ATOM      1  C   UNL d   1       0.884   0.025   0.003  0.00  0.00     0.270 C 
ATOM      2  N   UNL d   1       2.388  -0.081  -0.084  0.00  0.00    -0.070 N 
ATOM      3  C   UNL d   1       2.922   0.160  -1.491  0.00  0.00     0.239 C 
ATOM      4  C   UNL d   1       2.300  -0.842  -2.464  0.00  0.00     0.068 C 
ATOM      5  C   UNL d   1       2.373  -2.242  -1.935  0.00  0.00    -0.024 A 
ATOM      6  C   UNL d   1       2.643  -2.499  -0.596  0.00  0.00     0.018 A 
ATOM      7  S   UNL d   1       2.651  -4.172  -0.258  0.00  0.00    -0.074 SA
ATOM      8  C   UNL d   1       2.335  -4.560  -1.887  0.00  0.00     0.087 A 
ATOM      9  C   UNL d   1       2.171  -3.445  -2.678  0.00  0.00     0.057 A 
ATOM     10  C   UNL d   1       1.861  -3.666  -4.078  0.00  0.00     0.173 C 
ATOM     11  N   UNL d   1       1.986  -4.794  -4.661  0.00  0.00    -0.235 NA
ATOM     12  C   UNL d   1       2.426  -5.937  -3.851  0.00  0.00     0.243 C 
ATOM     13  N   UNL d   1       2.227  -5.797  -2.408  0.00  0.00    -0.357 N 
ATOM     14  C   UNL d   1       2.888  -1.437   0.440  0.00  0.00     0.281 C 
ATOM     15  H   UNL d   1       2.780   0.651   0.523  0.00  0.00     0.279 HD
ATOM     16  H   UNL d   1       2.142  -6.652  -1.867  0.00  0.00     0.162 HD
ENDROOT
BRANCH  12  17
ATOM     17  C   UNL d   1       1.686  -7.163  -4.357  0.00  0.00    -0.014 A 
ATOM     18  C   UNL d   1       2.281  -8.211  -5.084  0.00  0.00     0.014 A 
ATOM     19  C   UNL d   1       1.485  -9.227  -5.664  0.00  0.00     0.038 A 
ATOM     20  C   UNL d   1       0.098  -9.228  -5.463  0.00  0.00     0.079 A 
ATOM     21  C   UNL d   1      -0.475  -8.178  -4.753  0.00  0.00     0.038 A 
ATOM     22  C   UNL d   1       0.300  -7.170  -4.205  0.00  0.00     0.014 A 
BRANCH  20  23
ATOM     23  O   UNL d   1      -0.673 -10.319  -5.963  0.00  0.00    -0.275 OA
BRANCH  23  24
ATOM     24  C   UNL d   1      -2.038 -10.418  -5.702  0.00  0.00     0.298 C 
ATOM     25  O   UNL d   1      -2.765  -9.616  -5.110  0.00  0.00    -0.259 OA
BRANCH  24  26
ATOM     26  C   UNL d   1      -2.666 -11.647  -6.197  0.00  0.00     0.039 A 
ATOM     27  C   UNL d   1      -3.961 -11.542  -6.735  0.00  0.00     0.017 A 
ATOM     28  C   UNL d   1      -4.716 -12.687  -6.973  0.00  0.00     0.001 A 
ATOM     29  C   UNL d   1      -4.158 -13.940  -6.728  0.00  0.00     0.000 A 
ATOM     30  C   UNL d   1      -2.869 -14.046  -6.196  0.00  0.00     0.001 A 
ATOM     31  C   UNL d   1      -2.122 -12.899  -5.915  0.00  0.00     0.017 A 
ENDBRANCH  24  26
ENDBRANCH  23  24
ENDBRANCH  20  23
ENDBRANCH  12  17
BRANCH  10  32
ATOM     32  O   UNL d   1       1.415  -2.626  -4.815  0.00  0.00    -0.344 OA
ATOM     33  H   UNL d   1       1.193  -1.841  -4.309  0.00  0.00     0.219 HD
ENDBRANCH  10  32
TORSDOF 5
