REMARK  4 active torsions:
REMARK  status: ('A' for Active; 'I' for Inactive)
REMARK    1  A    between atoms: C_5  and  N_6 
REMARK       I    between atoms: N_6  and  C_7 
REMARK       I    between atoms: C_7  and  N_9 
REMARK    2  A    between atoms: N_9  and  C_10 
REMARK    3  A    between atoms: C_13  and  O_14 
REMARK    4  A    between atoms: O_14  and  C_15 
ROOT
ATOM      1  C   UNL d   1      -6.168   2.465  -0.141  0.00  0.00     0.036 A 
ATOM      2  C   UNL d   1      -7.344   2.660   0.591  0.00  0.00     0.032 A 
ATOM      3  C   UNL d   1      -8.067   3.873   0.471  0.00  0.00     0.039 A 
ATOM      4  C   UNL d   1      -7.590   4.918  -0.334  0.00  0.00     0.076 A 
ATOM      5  C   UNL d   1      -6.425   4.705  -1.064  0.00  0.00     0.039 A 
ATOM      6  C   UNL d   1      -5.742   3.498  -0.981  0.00  0.00     0.032 A 
ENDROOT
BRANCH   1   7
ATOM      7  N   UNL d   1      -5.394   1.262  -0.066  0.00  0.00    -0.309 N 
ATOM      8  C   UNL d   1      -4.008   1.346  -0.034  0.00  0.00     0.325 C 
ATOM      9  N   UNL d   1      -3.305   0.150  -0.032  0.00  0.00    -0.309 N 
ATOM     10  O   UNL d   1      -3.462   2.455   0.005  0.00  0.00    -0.247 OA
ATOM     11  H   UNL d   1      -3.815  -0.722  -0.063  0.00  0.00     0.170 HD
ATOM     12  H   UNL d   1      -5.859   0.411   0.210  0.00  0.00     0.170 HD
BRANCH   9  13
ATOM     13  C   UNL d   1      -1.868   0.075  -0.011  0.00  0.00     0.036 A 
ATOM     14  C   UNL d   1      -1.199  -1.157  -0.005  0.00  0.00     0.030 A 
ATOM     15  C   UNL d   1       0.217  -1.211   0.002  0.00  0.00     0.009 A 
ATOM     16  C   UNL d   1       0.987  -0.041   0.001  0.00  0.00    -0.062 A 
ATOM     17  C   UNL d   1       2.485  -0.036  -0.013  0.00  0.00     0.048 C 
ATOM     18  C   UNL d   1       0.327   1.177   0.005  0.00  0.00     0.009 A 
ATOM     19  C   UNL d   1      -1.064   1.224   0.002  0.00  0.00     0.030 A 
ENDBRANCH   9  13
ENDBRANCH   1   7
BRANCH   4  20
ATOM     20  O   UNL d   1      -8.268   6.127  -0.304  0.00  0.00    -0.311 OA
BRANCH  20  21
ATOM     21  C   UNL d   1      -7.869   7.118  -1.183  0.00  0.00     0.076 A 
ATOM     22  C   UNL d   1      -7.442   8.353  -0.686  0.00  0.00     0.037 A 
ATOM     23  C   UNL d   1      -7.031   9.354  -1.577  0.00  0.00     0.003 A 
ATOM     24  C   UNL d   1      -6.980   9.095  -2.948  0.00  0.00     0.000 A 
ATOM     25  C   UNL d   1      -7.419   7.868  -3.441  0.00  0.00     0.003 A 
ATOM     26  C   UNL d   1      -7.908   6.902  -2.564  0.00  0.00     0.037 A 
ENDBRANCH  20  21
ENDBRANCH   4  20
TORSDOF 4
