@<TRIPOS>MOLECULE
*****
 52 52 0 0 0
SMALL
GASTEIGER

@<TRIPOS>ATOM
      1 C           5.4619   -5.1167    2.9889 C.3     1  UNL1       -0.0653
      2 C           5.1287   -4.5428    1.6339 C.3     1  UNL1       -0.0559
      3 C           6.3228   -3.7592    1.1006 C.3     1  UNL1       -0.0532
      4 C           5.9461   -3.2057   -0.2486 C.3     1  UNL1       -0.0514
      5 C           7.0438   -2.3722   -0.8909 C.3     1  UNL1       -0.0347
      6 C           6.6175   -1.8332   -2.2802 C.3     1  UNL1        0.0218
      7 C           5.0849   -1.7138   -2.3945 C.3     1  UNL1       -0.0466
      8 N           7.1921   -2.6510   -3.3591 N.am    1  UNL1       -0.2968
      9 C           8.5518   -2.7489   -3.5316 C.2     1  UNL1        0.2999
     10 O           9.3681   -2.1511   -2.8268 O.2     1  UNL1       -0.2529
     11 N           8.9452   -3.6025   -4.5285 N.am    1  UNL1       -0.2968
     12 C          10.3700   -3.7922   -4.8111 C.3     1  UNL1        0.0423
     13 C          10.6558   -4.6873   -6.0320 C.3     1  UNL1        0.1046
     14 O          10.0249   -4.1074   -7.1842 O.3     1  UNL1       -0.3869
     15 C          12.1783   -4.8567   -6.2666 C.3     1  UNL1        0.1169
     16 O          12.3991   -5.6500   -7.4451 O.3     1  UNL1       -0.4893
     17 C          13.6964   -5.9846   -7.7323 C.ar    1  UNL1        0.1210
     18 C          14.0305   -6.0495   -9.0912 C.ar    1  UNL1       -0.0135
     19 C          15.2904   -6.5069   -9.4997 C.ar    1  UNL1        0.0190
     20 C          16.2454   -6.8393   -8.5329 C.ar    1  UNL1        0.2734
     21 N          17.6132   -7.1885   -8.9422 N.pl3   1  UNL1        0.0796
     22 O          17.8697   -7.1967  -10.1542 O.2     1  UNL1        0.0414
     23 O          18.4383   -7.4276   -8.0479 O.co2   1  UNL1       -0.5760
     24 C          15.9178   -6.7887   -7.1725 C.ar    1  UNL1        0.0190
     25 C          14.6400   -6.3690   -6.7782 C.ar    1  UNL1       -0.0135
     26 H           4.6158   -5.6867    3.3782 H       1  UNL1        0.0230
     27 H           5.6984   -4.3122    3.6919 H       1  UNL1        0.0230
     28 H           6.3296   -5.7786    2.9140 H       1  UNL1        0.0230
     29 H           4.2490   -3.8901    1.7111 H       1  UNL1        0.0263
     30 H           4.8644   -5.3485    0.9372 H       1  UNL1        0.0263
     31 H           7.2032   -4.4037    1.0100 H       1  UNL1        0.0265
     32 H           6.5713   -2.9364    1.7812 H       1  UNL1        0.0265
     33 H           5.0539   -2.5900   -0.0912 H       1  UNL1        0.0266
     34 H           5.6817   -4.0317   -0.9197 H       1  UNL1        0.0266
     35 H           7.9517   -2.9833   -0.9561 H       1  UNL1        0.0283
     36 H           7.2934   -1.5287   -0.2342 H       1  UNL1        0.0283
     37 H           7.0419   -0.8274   -2.3964 H       1  UNL1        0.0496
     38 H           4.5960   -2.6944   -2.3239 H       1  UNL1        0.0247
     39 H           4.7604   -1.2791   -3.3400 H       1  UNL1        0.0247
     40 H           4.6883   -1.0849   -1.5848 H       1  UNL1        0.0247
     41 H           6.5722   -3.1574   -3.9728 H       1  UNL1        0.1505
     42 H           8.2688   -3.9758   -5.1802 H       1  UNL1        0.1503
     43 H          10.8332   -4.2114   -3.9103 H       1  UNL1        0.0489
     44 H          10.8019   -2.7967   -4.9755 H       1  UNL1        0.0489
     45 H          10.1994   -5.6739   -5.8928 H       1  UNL1        0.0643
     46 H          10.4811   -3.2709   -7.3813 H       1  UNL1        0.2100
     47 H          12.6114   -5.3288   -5.3791 H       1  UNL1        0.0723
     48 H          12.6459   -3.8788   -6.4301 H       1  UNL1        0.0723
     49 H          13.3079   -5.7351   -9.8421 H       1  UNL1        0.0656
     50 H          15.5075   -6.5978  -10.5625 H       1  UNL1        0.0686
     51 H          16.6362   -7.0822   -6.4093 H       1  UNL1        0.0686
     52 H          14.4045   -6.3786   -5.7198 H       1  UNL1        0.0656
@<TRIPOS>UNITY_ATOM_ATTR
21 1
charge 1
23 1
charge -1
@<TRIPOS>BOND
     1     1     2    1
     2     2     3    1
     3     3     4    1
     4     4     5    1
     5     6     8    1
     6     8     9   am
     7     9    10    2
     8     9    11   am
     9    11    12    1
    10    12    13    1
    11    13    14    1
    12    13    15    1
    13    15    16    1
    14    16    17    1
    15    17    18   ar
    16    18    19   ar
    17    19    20   ar
    18    20    21    1
    19    21    22    2
    20    21    23    1
    21    20    24   ar
    22    24    25   ar
    23    17    25   ar
    24     6     7    1
    25     6     5    1
    26     1    26    1
    27     1    27    1
    28     1    28    1
    29     2    29    1
    30     2    30    1
    31     3    31    1
    32     3    32    1
    33     4    33    1
    34     4    34    1
    35     5    35    1
    36     5    36    1
    37     6    37    1
    38     7    38    1
    39     7    39    1
    40     7    40    1
    41     8    41    1
    42    11    42    1
    43    12    43    1
    44    12    44    1
    45    13    45    1
    46    14    46    1
    47    15    47    1
    48    15    48    1
    49    18    49    1
    50    19    50    1
    51    24    51    1
    52    25    52    1
