REMARK  9 active torsions:
REMARK  status: ('A' for Active; 'I' for Inactive)
REMARK    1  A    between atoms: C_2  and  C_3 
REMARK    2  A    between atoms: C_3  and  C_5 
REMARK    3  A    between atoms: C_8  and  O_9 
REMARK    4  A    between atoms: C_10  and  N_11 
REMARK    5  A    between atoms: N_11  and  C_12 
REMARK    6  A    between atoms: C_12  and  N_14 
REMARK       I    between atoms: N_14  and  C_15 
REMARK    7  A    between atoms: C_15  and  C_17 
REMARK    8  A    between atoms: C_19  and  N_20 
REMARK    9  A    between atoms: C_25  and  N_26 
ROOT
ATOM      1  N   UNL d   1       9.758   0.682  -5.043  0.00  0.00    -0.299 N 
ATOM      2  C   UNL d   1      11.124   0.891  -5.267  0.00  0.00     0.260 C 
ATOM      3  O   UNL d   1      12.043   0.757  -4.435  0.00  0.00    -0.267 OA
ATOM      4  H   UNL d   1       9.180   0.884  -5.846  0.00  0.00     0.171 HD
ENDROOT
BRANCH   1   5
ATOM      5  C   UNL d   1       9.166   0.704  -3.745  0.00  0.00     0.179 C 
ATOM      6  S   UNL d   1      10.178   1.012  -2.418  0.00  0.00    -0.040 SA
BRANCH   5   7
ATOM      7  N   UNL d   1       7.724   0.640  -3.725  0.00  0.00    -0.331 N 
ATOM      8  H   UNL d   1       7.221   0.864  -4.581  0.00  0.00     0.168 HD
BRANCH   7   9
ATOM      9  C   UNL d   1       6.846   0.552  -2.542  0.00  0.00     0.068 C 
ATOM     10  C   UNL d   1       7.320   0.262  -1.254  0.00  0.00     0.092 C 
ATOM     11  C   UNL d   1       6.572   0.302  -0.098  0.00  0.00     0.039 C 
ATOM     12  C   UNL d   1       5.220   0.377  -0.198  0.00  0.00     0.010 C 
ATOM     13  C   UNL d   1       4.602   0.534  -1.443  0.00  0.00    -0.052 C 
ATOM     14  C   UNL d   1       5.427   0.687  -2.618  0.00  0.00     0.039 C 
BRANCH  10  15
ATOM     15  O   UNL d   1       8.495  -0.364  -0.972  0.00  0.00    -0.358 OA
ATOM     16  H   UNL d   1       9.050   0.332  -0.564  0.00  0.00     0.217 HD
ENDBRANCH  10  15
BRANCH  13  17
ATOM     17  C   UNL d   1       3.067   0.532  -1.458  0.00  0.00     0.014 C 
ATOM     18  C   UNL d   1       2.575   1.955  -1.715  0.00  0.00     0.015 C 
BRANCH  17  19
ATOM     19  C   UNL d   1       2.455  -0.012  -0.126  0.00  0.00     0.004 C 
ATOM     20  C   UNL d   1       0.944  -0.063  -0.084  0.00  0.00     0.006 C 
ENDBRANCH  17  19
ENDBRANCH  13  17
ENDBRANCH   7   9
ENDBRANCH   5   7
ENDBRANCH   1   5
BRANCH   2  21
ATOM     21  C   UNL d   1      11.666   1.259  -6.572  0.00  0.00     0.061 A 
ATOM     22  C   UNL d   1      12.854   0.559  -6.893  0.00  0.00     0.055 A 
ATOM     23  C   UNL d   1      13.646   0.974  -7.945  0.00  0.00     0.104 A 
ATOM     24  C   UNL d   1      13.199   2.016  -8.760  0.00  0.00     0.038 A 
ATOM     25  C   UNL d   1      12.008   2.705  -8.434  0.00  0.00     0.033 A 
ATOM     26  C   UNL d   1      11.232   2.377  -7.305  0.00  0.00     0.046 A 
BRANCH  23  27
ATOM     27  N   UNL d   1      14.985   0.396  -8.135  0.00  0.00    -0.116 N 
ATOM     28  O   UNL d   1      15.353  -0.482  -7.323  0.00  0.00    -0.532 OA
ATOM     29  O   UNL d   1      15.669   0.818  -9.061  0.00  0.00    -0.532 OA
ENDBRANCH  23  27
BRANCH  26  30
ATOM     30  N   UNL d   1      10.149   3.145  -6.940  0.00  0.00    -0.376 N 
ATOM     31  C   UNL d   1      10.099   3.956  -5.705  0.00  0.00     0.149 C 
ATOM     32  C   UNL d   1       8.779   3.687  -4.965  0.00  0.00     0.187 C 
ATOM     33  O   UNL d   1       7.605   3.694  -5.794  0.00  0.00    -0.388 OA
ATOM     34  C   UNL d   1       7.736   2.883  -6.975  0.00  0.00     0.187 C 
ATOM     35  C   UNL d   1       8.973   3.277  -7.798  0.00  0.00     0.149 C 
ENDBRANCH  26  30
ENDBRANCH   2  21
TORSDOF 9
