REMARK  13 active torsions:
REMARK  status: ('A' for Active; 'I' for Inactive)
REMARK    1  A    between atoms: S_2  and  C_4 
REMARK    2  A    between atoms: S_2  and  N_22 
REMARK    3  A    between atoms: C_4  and  C_5 
REMARK    4  A    between atoms: C_5  and  C_6 
REMARK    5  A    between atoms: C_6  and  C_7 
REMARK    6  A    between atoms: C_7  and  C_8 
REMARK    7  A    between atoms: C_8  and  C_9 
REMARK    8  A    between atoms: C_9  and  S_10 
REMARK    9  A    between atoms: S_10  and  N_13 
REMARK   10  A    between atoms: N_13  and  C_14 
REMARK   11  A    between atoms: C_20  and  O_21 
REMARK   12  A    between atoms: N_22  and  C_23 
REMARK   13  A    between atoms: C_29  and  O_30 
ROOT
ATOM      1  C   UNL d   1       3.142   4.055   0.406  0.00  0.00     0.001 C 
ENDROOT
BRANCH   1   2
ATOM      2  C   UNL d   1       2.580   2.771  -0.213  0.00  0.00     0.017 C 
BRANCH   2   3
ATOM      3  C   UNL d   1       3.091   1.573   0.549  0.00  0.00     0.163 C 
BRANCH   3   4
ATOM      4  S   UNL d   1       2.602  -0.008  -0.114  0.00  0.00     0.231 S 
ATOM      5  O   UNL d   1       1.159  -0.100   0.027  0.00  0.00    -0.206 OA
ATOM      6  O   UNL d   1       3.226  -0.177  -1.405  0.00  0.00    -0.206 OA
BRANCH   4   7
ATOM      7  N   UNL d   1       3.221  -1.153   0.959  0.00  0.00    -0.282 N 
ATOM      8  H   UNL d   1       2.541  -1.863   1.232  0.00  0.00     0.178 HD
BRANCH   7   9
ATOM      9  C   UNL d   1       4.622  -1.456   1.045  0.00  0.00     0.077 A 
ATOM     10  C   UNL d   1       5.096  -2.761   0.860  0.00  0.00     0.056 A 
ATOM     11  C   UNL d   1       6.470  -3.026   1.001  0.00  0.00     0.036 A 
ATOM     12 CL   UNL d   1       7.071  -4.634   0.859  0.00  0.00    -0.084 Cl
ATOM     13  C   UNL d   1       7.380  -2.005   1.280  0.00  0.00     0.026 A 
ATOM     14  C   UNL d   1       6.916  -0.716   1.474  0.00  0.00     0.040 A 
ATOM     15  C   UNL d   1       5.548  -0.477   1.428  0.00  0.00     0.093 A 
BRANCH  15  16
ATOM     16  O   UNL d   1       5.132   0.712   1.953  0.00  0.00    -0.358 OA
ATOM     17  H   UNL d   1       5.816   1.379   1.775  0.00  0.00     0.217 HD
ENDBRANCH  15  16
ENDBRANCH   7   9
ENDBRANCH   4   7
ENDBRANCH   3   4
ENDBRANCH   2   3
ENDBRANCH   1   2
BRANCH   1  18
ATOM     18  C   UNL d   1       2.664   5.256  -0.401  0.00  0.00     0.001 C 
BRANCH  18  19
ATOM     19  C   UNL d   1       3.159   6.559   0.199  0.00  0.00     0.017 C 
BRANCH  19  20
ATOM     20  C   UNL d   1       2.652   7.779  -0.586  0.00  0.00     0.163 C 
BRANCH  20  21
ATOM     21  S   UNL d   1       3.316   9.254   0.184  0.00  0.00     0.231 S 
ATOM     22  O   UNL d   1       2.681   9.397   1.473  0.00  0.00    -0.206 OA
ATOM     23  O   UNL d   1       4.751   9.059   0.080  0.00  0.00    -0.206 OA
BRANCH  21  24
ATOM     24  N   UNL d   1       2.797  10.532  -0.793  0.00  0.00    -0.282 N 
ATOM     25  H   UNL d   1       2.139  10.370  -1.551  0.00  0.00     0.178 HD
BRANCH  24  26
ATOM     26  C   UNL d   1       3.142  11.895  -0.444  0.00  0.00     0.077 A 
ATOM     27  C   UNL d   1       2.185  12.921  -0.501  0.00  0.00     0.056 A 
ATOM     28  C   UNL d   1       2.557  14.245  -0.200  0.00  0.00     0.036 A 
ATOM     29 CL   UNL d   1       1.400  15.522  -0.284  0.00  0.00    -0.084 Cl
ATOM     30  C   UNL d   1       3.865  14.564   0.165  0.00  0.00     0.026 A 
ATOM     31  C   UNL d   1       4.819  13.560   0.212  0.00  0.00     0.040 A 
ATOM     32  C   UNL d   1       4.461  12.258  -0.126  0.00  0.00     0.093 A 
BRANCH  32  33
ATOM     33  O   UNL d   1       5.470  11.357  -0.268  0.00  0.00    -0.358 OA
ATOM     34  H   UNL d   1       6.239  11.600   0.265  0.00  0.00     0.217 HD
ENDBRANCH  32  33
ENDBRANCH  24  26
ENDBRANCH  21  24
ENDBRANCH  20  21
ENDBRANCH  19  20
ENDBRANCH  18  19
ENDBRANCH   1  18
TORSDOF 13
