@<TRIPOS>MOLECULE
*****
 59 62 0 0 0
SMALL
GASTEIGER

@<TRIPOS>ATOM
      1 C           1.0560   -0.2475   -0.0008 C.3     1  UNL1       -0.0260
      2 C           2.5502   -0.0335   -0.0726 C.2     1  UNL1        0.0146
      3 C           3.1538    1.1828   -0.1965 C.2     1  UNL1        0.0467
      4 C           2.4214    2.4712   -0.3980 C.2     1  UNL1        0.2468
      5 O           1.2425    2.4514   -0.7695 O.2     1  UNL1       -0.2701
      6 N           3.1136    3.6607   -0.2608 N.am    1  UNL1       -0.2815
      7 C           2.4210    4.8921   -0.3200 C.ar    1  UNL1        0.0366
      8 C           2.8499    5.8677   -1.2296 C.ar    1  UNL1       -0.0402
      9 C           2.1423    7.0673   -1.3505 C.ar    1  UNL1       -0.0600
     10 C           1.0339    7.3087   -0.5423 C.ar    1  UNL1       -0.0614
     11 C           0.6310    6.3557    0.3908 C.ar    1  UNL1       -0.0571
     12 C           1.3175    5.1414    0.5211 C.ar    1  UNL1       -0.0292
     13 C           0.8945    4.1939    1.6138 C.3     1  UNL1       -0.0380
     14 C           4.6546    1.2629   -0.0666 C.3     1  UNL1        0.0854
     15 C           5.0323    1.6030    1.3390 C.ar    1  UNL1        0.1175
     16 C           4.7346    0.9418    2.5127 C.ar    1  UNL1       -0.0198
     17 C           5.4237    1.6201    3.5277 C.ar    1  UNL1       -0.0236
     18 C           6.0945    2.6514    2.9103 C.ar    1  UNL1        0.0921
     19 O           5.8618    2.6511    1.5683 O.2     1  UNL1       -0.4668
     20 C           5.3277   -0.0304   -0.3967 C.2     1  UNL1        0.0717
     21 C           6.7889    0.0748   -0.8019 C.1     1  UNL1        0.0982
     22 N           8.0011    0.1621   -1.1380 N.1     1  UNL1       -0.1911
     23 C           4.6886   -1.2303   -0.3203 C.2     1  UNL1        0.0802
     24 S           5.6568   -2.6575   -0.6295 S.3     1  UNL1       -0.0998
     25 C           4.6817   -4.1808   -0.5000 C.3     1  UNL1        0.0763
     26 C           5.5920   -5.3925   -0.8378 C.2     1  UNL1        0.2274
     27 O           6.7741   -5.2565   -1.1563 O.2     1  UNL1       -0.2746
     28 N           4.9766   -6.6454   -0.8004 N.am    1  UNL1       -0.2848
     29 C           5.6954   -7.8491   -1.0454 C.ar    1  UNL1        0.0334
     30 C           5.1005   -8.9007   -1.7518 C.ar    1  UNL1       -0.0405
     31 C           5.7917  -10.1091   -1.9370 C.ar    1  UNL1       -0.0600
     32 C           7.0876  -10.2636   -1.4447 C.ar    1  UNL1       -0.0616
     33 C           7.6830   -9.2232   -0.7401 C.ar    1  UNL1       -0.0600
     34 C           6.9905   -8.0259   -0.5447 C.ar    1  UNL1       -0.0405
     35 N           3.3387   -1.1944    0.0065 N.pl3   1  UNL1       -0.3117
     36 H           0.4605    0.6621    0.0025 H       1  UNL1        0.0290
     37 H           0.7813   -0.7551    0.9291 H       1  UNL1        0.0290
     38 H           0.7206   -0.8406   -0.8558 H       1  UNL1        0.0290
     39 H           4.1158    3.7067   -0.3965 H       1  UNL1        0.1551
     40 H           3.6848    5.6845   -1.9014 H       1  UNL1        0.0636
     41 H           2.4418    7.8111   -2.0849 H       1  UNL1        0.0618
     42 H           0.4814    8.2404   -0.6299 H       1  UNL1        0.0618
     43 H          -0.2224    6.5661    1.0304 H       1  UNL1        0.0621
     44 H           0.0851    4.6169    2.2149 H       1  UNL1        0.0278
     45 H           1.7395    3.9914    2.2801 H       1  UNL1        0.0278
     46 H           0.5052    3.2506    1.2296 H       1  UNL1        0.0278
     47 H           5.0283    1.9909   -0.7980 H       1  UNL1        0.0487
     48 H           4.1168    0.0565    2.5895 H       1  UNL1        0.0652
     49 H           5.4340    1.3702    4.5775 H       1  UNL1        0.0649
     50 H           6.7531    3.4270    3.2713 H       1  UNL1        0.1029
     51 H           3.8466   -4.1508   -1.2043 H       1  UNL1        0.0475
     52 H           4.3144   -4.2877    0.5237 H       1  UNL1        0.0475
     53 H           3.9685   -6.7136   -0.7614 H       1  UNL1        0.1548
     54 H           4.1313   -8.7819   -2.2280 H       1  UNL1        0.0636
     55 H           5.3254  -10.9340   -2.4715 H       1  UNL1        0.0618
     56 H           7.6367  -11.1869   -1.6142 H       1  UNL1        0.0618
     57 H           8.6837   -9.3375   -0.3315 H       1  UNL1        0.0618
     58 H           7.4728   -7.2404    0.0309 H       1  UNL1        0.0636
     59 H           2.8762   -2.0802    0.1755 H       1  UNL1        0.1524
@<TRIPOS>BOND
     1     1     2    1
     2     2     3    2
     3     3     4    1
     4     4     5    2
     5     4     6   am
     6     6     7    1
     7     7     8   ar
     8     8     9   ar
     9     9    10   ar
    10    10    11   ar
    11    11    12   ar
    12     7    12   ar
    13    12    13    1
    14     3    14    1
    15    14    15    1
    16    15    16   ar
    17    16    17   ar
    18    17    18   ar
    19    18    19   ar
    20    15    19   ar
    21    14    20    1
    22    20    21    1
    23    21    22    3
    24    20    23    2
    25    23    24    1
    26    24    25    1
    27    25    26    1
    28    26    27    2
    29    26    28   am
    30    28    29    1
    31    29    30   ar
    32    30    31   ar
    33    31    32   ar
    34    32    33   ar
    35    33    34   ar
    36    29    34   ar
    37    23    35    1
    38     2    35    1
    39     1    36    1
    40     1    37    1
    41     1    38    1
    42     6    39    1
    43     8    40    1
    44     9    41    1
    45    10    42    1
    46    11    43    1
    47    13    44    1
    48    13    45    1
    49    13    46    1
    50    14    47    1
    51    16    48    1
    52    17    49    1
    53    18    50    1
    54    25    51    1
    55    25    52    1
    56    28    53    1
    57    30    54    1
    58    31    55    1
    59    32    56    1
    60    33    57    1
    61    34    58    1
    62    35    59    1
