@<TRIPOS>MOLECULE
*****
 49 50 0 0 0
SMALL
GASTEIGER

@<TRIPOS>ATOM
      1 C           2.4953   -0.2259   -0.0117 C.3     1  UNL1       -0.0390
      2 C           1.0082   -0.0467   -0.0028 C.ar    1  UNL1       -0.0382
      3 C           0.2134   -1.2092    0.0057 C.ar    1  UNL1       -0.0564
      4 C          -1.1915   -1.1466   -0.0013 C.ar    1  UNL1       -0.0402
      5 C          -1.8463    0.0882   -0.0103 C.ar    1  UNL1        0.0345
      6 N          -3.2729    0.1365   -0.0348 N.am    1  UNL1       -0.2777
      7 C          -4.0511    1.2918   -0.0567 C.2     1  UNL1        0.3031
      8 O          -3.6675    2.4579   -0.0505 O.2     1  UNL1       -0.2648
      9 C          -5.5993    1.0901   -0.0924 C.2     1  UNL1        0.2996
     10 O          -6.0994   -0.0265   -0.1033 O.2     1  UNL1       -0.2652
     11 N          -6.2675    2.2912   -0.1075 N.am    1  UNL1       -0.3030
     12 C          -7.7012    2.5138   -0.1362 C.3     1  UNL1        0.0437
     13 C          -8.0959    3.9896   -0.1444 C.ar    1  UNL1        0.0098
     14 S          -9.7887    4.3712   -0.2041 S.2     1  UNL1       -0.0998
     15 C          -9.5062    6.0557   -0.1925 C.ar    1  UNL1       -0.0238
     16 C          -8.1655    6.3398   -0.1389 C.ar    1  UNL1       -0.0515
     17 C          -7.3452    5.1642   -0.1099 C.ar    1  UNL1       -0.0387
     18 C          -5.8619    5.2610   -0.0513 C.3     1  UNL1       -0.0389
     19 C          -1.0452    1.2399   -0.0042 C.ar    1  UNL1       -0.0281
     20 C           0.3725    1.2085   -0.0122 C.ar    1  UNL1        0.0414
     21 C           1.0492    2.5665   -0.0459 C.2     1  UNL1        0.2446
     22 O           0.3589    3.5820   -0.0891 O.2     1  UNL1       -0.2702
     23 N           2.4270    2.6446   -0.0198 N.am    1  UNL1       -0.3090
     24 C           3.1974    3.8730    0.0080 C.3     1  UNL1        0.0178
     25 C           2.8792    4.6638    1.2676 C.3     1  UNL1       -0.0469
     26 C           4.6959    3.5356   -0.0144 C.3     1  UNL1       -0.0469
     27 H           2.8189   -1.2670   -0.0099 H       1  UNL1        0.0278
     28 H           2.9192    0.2239    0.8949 H       1  UNL1        0.0278
     29 H           2.9037    0.2190   -0.9276 H       1  UNL1        0.0278
     30 H           0.7013   -2.1847    0.0094 H       1  UNL1        0.0621
     31 H          -1.7406   -2.0857   -0.0023 H       1  UNL1        0.0636
     32 H          -3.7869   -0.7408   -0.0496 H       1  UNL1        0.1553
     33 H          -5.6295    3.0703   -0.0937 H       1  UNL1        0.1495
     34 H          -8.1277    2.0194    0.7435 H       1  UNL1        0.0517
     35 H          -8.0912    2.0190   -1.0324 H       1  UNL1        0.0517
     36 H         -10.3203    6.7700   -0.2240 H       1  UNL1        0.0693
     37 H          -7.7728    7.3507   -0.1214 H       1  UNL1        0.0626
     38 H          -5.5094    6.2926   -0.0264 H       1  UNL1        0.0278
     39 H          -5.4331    4.7932   -0.9441 H       1  UNL1        0.0278
     40 H          -5.5026    4.7701    0.8597 H       1  UNL1        0.0278
     41 H          -1.5104    2.2200    0.0005 H       1  UNL1        0.0644
     42 H           3.0014    1.8354   -0.0016 H       1  UNL1        0.1493
     43 H           2.9357    4.4423   -0.8899 H       1  UNL1        0.0493
     44 H           3.1261    4.0797    2.1619 H       1  UNL1        0.0247
     45 H           1.8162    4.9102    1.3279 H       1  UNL1        0.0247
     46 H           3.4432    5.5986    1.2886 H       1  UNL1        0.0247
     47 H           4.9839    2.9452    0.8658 H       1  UNL1        0.0247
     48 H           5.3019    4.4464   -0.0203 H       1  UNL1        0.0247
     49 H           4.9626    2.9406   -0.8957 H       1  UNL1        0.0247
@<TRIPOS>BOND
     1     1     2    1
     2     2     3   ar
     3     3     4   ar
     4     4     5   ar
     5     5     6    1
     6     6     7   am
     7     7     8    2
     8     7     9    1
     9     9    10    2
    10     9    11   am
    11    11    12    1
    12    12    13    1
    13    13    14   ar
    14    14    15   ar
    15    15    16   ar
    16    16    17   ar
    17    13    17   ar
    18    17    18    1
    19     5    19   ar
    20    19    20   ar
    21     2    20   ar
    22    20    21    1
    23    21    22    2
    24    21    23   am
    25    23    24    1
    26    24    25    1
    27    24    26    1
    28     1    27    1
    29     1    28    1
    30     1    29    1
    31     3    30    1
    32     4    31    1
    33     6    32    1
    34    11    33    1
    35    12    34    1
    36    12    35    1
    37    15    36    1
    38    16    37    1
    39    18    38    1
    40    18    39    1
    41    18    40    1
    42    19    41    1
    43    23    42    1
    44    24    43    1
    45    25    44    1
    46    25    45    1
    47    25    46    1
    48    26    47    1
    49    26    48    1
    50    26    49    1
