REMARK  4 active torsions:
REMARK  status: ('A' for Active; 'I' for Inactive)
REMARK    1  A    between atoms: C_7  and  C_8 
REMARK    2  A    between atoms: C_8  and  N_9 
REMARK    3  A    between atoms: C_13  and  C_14 
REMARK    4  A    between atoms: C_17  and  O_18 
ROOT
ATOM      1  C   UNL d   1       8.815  -1.236  -0.108  0.00  0.00     0.175 C 
ENDROOT
BRANCH   1   2
ATOM      2  C   UNL d   1       7.258  -1.227  -0.199  0.00  0.00     0.033 C 
ATOM      3  N   UNL d   1       6.562  -0.046   0.069  0.00  0.00    -0.344 N 
ATOM      4  C   UNL d   1       5.236  -0.077   0.142  0.00  0.00     0.114 C 
ATOM      5  H   UNL d   1       7.049   0.841   0.177  0.00  0.00     0.167 HD
ATOM      6  C   UNL d   1       4.501   1.221   0.128  0.00  0.00     0.050 C 
ATOM      7  N   UNL d   1       4.529  -1.203   0.107  0.00  0.00    -0.274 N 
ATOM      8  C   UNL d   1       3.183   1.200  -0.127  0.00  0.00     0.012 C 
ATOM      9  C   UNL d   1       2.466  -0.055  -0.059  0.00  0.00    -0.046 C 
ATOM     10  C   UNL d   1       0.975  -0.056  -0.076  0.00  0.00     0.049 C 
ATOM     11  C   UNL d   1       3.146  -1.196   0.103  0.00  0.00     0.108 C 
ATOM     12  C   UNL d   1       5.148  -2.460   0.024  0.00  0.00     0.255 C 
ATOM     13  C   UNL d   1       6.569  -2.380  -0.163  0.00  0.00     0.101 C 
ATOM     14  O   UNL d   1       4.530  -3.519   0.067  0.00  0.00    -0.268 OA
ENDBRANCH   1   2
BRANCH   1  15
ATOM     15  N   UNL d   1       9.385  -2.540   0.216  0.00  0.00    -0.399 N 
ATOM     16  C   UNL d   1       9.317  -3.705  -0.657  0.00  0.00     0.118 C 
ATOM     17  C   UNL d   1       9.091  -4.840   0.338  0.00  0.00     0.022 C 
ATOM     18  C   UNL d   1       9.959  -4.429   1.519  0.00  0.00     0.031 C 
ATOM     19  C   UNL d   1       9.928  -2.881   1.549  0.00  0.00     0.112 C 
BRANCH  19  20
ATOM     20  C   UNL d   1       9.176  -2.376   2.786  0.00  0.00    -0.036 C 
ATOM     21  C   UNL d   1       9.597  -2.607   4.090  0.00  0.00     0.012 C 
ATOM     22  C   UNL d   1       8.739  -2.296   5.174  0.00  0.00     0.037 C 
ATOM     23  C   UNL d   1       7.550  -1.592   4.977  0.00  0.00     0.065 C 
ATOM     24  C   UNL d   1       7.219  -1.171   3.734  0.00  0.00     0.037 C 
ATOM     25  C   UNL d   1       7.987  -1.662   2.709  0.00  0.00     0.012 C 
BRANCH  23  26
ATOM     26  O   UNL d   1       6.637  -1.317   5.939  0.00  0.00    -0.361 OA
ATOM     27  H   UNL d   1       6.892  -1.785   6.746  0.00  0.00     0.217 HD
ENDBRANCH  23  26
ENDBRANCH  19  20
ENDBRANCH   1  15
TORSDOF 4
