REMARK  3 active torsions:
REMARK  status: ('A' for Active; 'I' for Inactive)
REMARK       I    between atoms: C_2  and  N_3 
REMARK    1  A    between atoms: C_2  and  C_15 
REMARK    2  A    between atoms: N_3  and  N_4 
REMARK    3  A    between atoms: C_5  and  C_6 
ROOT
ATOM      1  N   UNL d   1       2.242  -2.006  -1.614  0.00  0.00    -0.184 NA
ATOM      2  C   UNL d   1       2.917  -2.929  -2.224  0.00  0.00     0.152 C 
ENDROOT
BRANCH   1   3
ATOM      3  N   UNL d   1       2.931  -1.075  -0.845  0.00  0.00    -0.247 N 
ATOM      4  C   UNL d   1       2.195  -0.129  -0.129  0.00  0.00     0.241 C 
ATOM      5  O   UNL d   1       0.959  -0.111  -0.107  0.00  0.00    -0.271 OA
ATOM      6  H   UNL d   1       3.945  -1.085  -0.836  0.00  0.00     0.192 HD
BRANCH   4   7
ATOM      7  C   UNL d   1       2.996   0.921   0.674  0.00  0.00     0.080 C 
ATOM      8  C   UNL d   1       2.502   2.332   0.287  0.00  0.00     0.014 C 
ATOM      9  C   UNL d   1       3.077   3.446   1.165  0.00  0.00     0.001 C 
ATOM     10  C   UNL d   1       2.818   3.187   2.644  0.00  0.00     0.000 C 
ATOM     11  C   UNL d   1       3.365   1.823   3.047  0.00  0.00     0.001 C 
ATOM     12  C   UNL d   1       2.780   0.699   2.185  0.00  0.00     0.014 C 
ENDBRANCH   4   7
ENDBRANCH   1   3
BRANCH   2  13
ATOM     13  C   UNL d   1       2.236  -3.944  -3.028  0.00  0.00     0.011 A 
ATOM     14  C   UNL d   1       2.641  -5.265  -3.139  0.00  0.00     0.102 A 
ATOM     15  N   UNL d   1       1.782  -5.924  -3.985  0.00  0.00    -0.364 N 
ATOM     16  C   UNL d   1       0.860  -5.045  -4.503  0.00  0.00     0.043 A 
ATOM     17  H   UNL d   1       1.835  -6.904  -4.231  0.00  0.00     0.165 HD
ATOM     18  C   UNL d   1      -0.149  -5.246  -5.459  0.00  0.00     0.030 A 
ATOM     19  C   UNL d   1       1.101  -3.807  -3.898  0.00  0.00     0.004 A 
ATOM     20  C   UNL d   1      -0.920  -4.140  -5.829  0.00  0.00     0.002 A 
ATOM     21  C   UNL d   1      -0.710  -2.896  -5.240  0.00  0.00     0.001 A 
ATOM     22  C   UNL d   1       0.283  -2.721  -4.269  0.00  0.00     0.014 A 
ENDBRANCH   2  13
TORSDOF 3
