@<TRIPOS>MOLECULE
*****
 52 54 0 0 0
SMALL
GASTEIGER

@<TRIPOS>ATOM
      1 C           1.2631   -1.0193    0.3701 C.3     1  UNL1       -0.0632
      2 C           2.7072   -0.7818    0.0150 C.3     1  UNL1       -0.0303
      3 C           3.1053   -1.1518   -1.3785 C.3     1  UNL1        0.0810
      4 N           2.5395   -0.1672   -2.3919 N.am    1  UNL1       -0.3016
      5 C           1.1669   -0.0260   -2.6998 C.2     1  UNL1        0.2447
      6 O           0.7349   -0.5842   -3.7270 O.2     1  UNL1       -0.2702
      7 C           0.2007    0.8116   -1.8193 C.ar    1  UNL1        0.0385
      8 C          -1.1805    0.5678   -1.8543 C.ar    1  UNL1       -0.0493
      9 C          -1.9898    1.0375   -0.8007 C.ar    1  UNL1       -0.0564
     10 C          -1.4291    1.6488    0.3581 C.ar    1  UNL1       -0.0292
     11 C          -2.3597    2.0846    1.4637 C.3     1  UNL1       -0.0380
     12 C          -0.0305    1.8517    0.4504 C.ar    1  UNL1        0.0370
     13 N           0.5414    2.1619    1.7711 N.am    1  UNL1       -0.2855
     14 C           1.8049    2.1301    2.3737 C.2     1  UNL1        0.2141
     15 C           2.9846    1.6882    1.6037 C.3     1  UNL1        0.0125
     16 O           1.9513    2.3753    3.5659 O.2     1  UNL1       -0.2758
     17 C           0.7041    1.5952   -0.7434 C.ar    1  UNL1       -0.0281
     18 C           4.6329   -1.0699   -1.3465 C.ar    1  UNL1        0.1282
     19 N           5.4290   -2.1117   -1.2136 N.ar    1  UNL1       -0.2306
     20 C           6.6897   -1.6110   -1.0210 C.ar    1  UNL1        0.0889
     21 C           7.8699   -2.4354   -1.0073 C.ar    1  UNL1        0.0018
     22 C           8.8371   -2.3247   -0.0048 C.ar    1  UNL1       -0.0525
     23 C          10.0297   -3.0406   -0.1158 C.ar    1  UNL1       -0.0611
     24 C          10.2213   -3.9196   -1.1837 C.ar    1  UNL1       -0.0617
     25 C           9.2386   -4.0613   -2.1620 C.ar    1  UNL1       -0.0611
     26 C           8.0655   -3.3184   -2.0743 C.ar    1  UNL1       -0.0525
     27 C           6.6823   -0.2367   -1.0178 C.ar    1  UNL1        0.0293
     28 N           5.3640    0.1004   -1.1782 N.ar    1  UNL1       -0.3462
     29 H           0.9365   -0.3664    1.1800 H       1  UNL1        0.0230
     30 H           0.9915   -2.0349    0.6235 H       1  UNL1        0.0230
     31 H           0.6522   -0.8616   -0.4954 H       1  UNL1        0.0230
     32 H           3.3435   -1.1291    0.8343 H       1  UNL1        0.0285
     33 H           2.9890    0.2429   -0.1329 H       1  UNL1        0.0285
     34 H           2.7622   -2.1724   -1.5606 H       1  UNL1        0.0579
     35 H           3.0149   -0.3800   -3.2625 H       1  UNL1        0.1497
     36 H          -1.6329   -0.0256   -2.6528 H       1  UNL1        0.0625
     37 H          -3.0698    0.8777   -0.8622 H       1  UNL1        0.0621
     38 H          -3.4090    2.0581    1.1503 H       1  UNL1        0.0278
     39 H          -2.1319    3.1249    1.7187 H       1  UNL1        0.0278
     40 H          -2.2550    1.4604    2.3576 H       1  UNL1        0.0278
     41 H          -0.1331    2.2721    2.5212 H       1  UNL1        0.1548
     42 H           2.4439    1.3952    0.7614 H       1  UNL1        0.0323
     43 H           3.4775    0.8050    2.0298 H       1  UNL1        0.0323
     44 H           3.6966    2.4067    1.2103 H       1  UNL1        0.0323
     45 H           1.7475    1.8424   -0.8346 H       1  UNL1        0.0644
     46 H           8.6681   -1.6881    0.8599 H       1  UNL1        0.0624
     47 H          10.8145   -2.9055    0.6233 H       1  UNL1        0.0618
     48 H          11.1373   -4.4995   -1.2516 H       1  UNL1        0.0618
     49 H           9.3886   -4.7327   -3.0021 H       1  UNL1        0.0618
     50 H           7.3035   -3.4071   -2.8462 H       1  UNL1        0.0624
     51 H           7.4781    0.4964   -0.9592 H       1  UNL1        0.0829
     52 H           4.9962    1.0423   -1.1466 H       1  UNL1        0.1666
@<TRIPOS>BOND
     1     1     2    1
     2     2     3    1
     3     3     4    1
     4     4     5   am
     5     5     6    2
     6     5     7    1
     7     7     8   ar
     8     8     9   ar
     9     9    10   ar
    10    10    11    1
    11    10    12   ar
    12    12    13    1
    13    13    14   am
    14    14    15    1
    15    14    16    2
    16    12    17   ar
    17     7    17   ar
    18     3    18    1
    19    18    19   ar
    20    19    20   ar
    21    20    21    1
    22    21    22   ar
    23    22    23   ar
    24    23    24   ar
    25    24    25   ar
    26    25    26   ar
    27    21    26   ar
    28    20    27   ar
    29    27    28   ar
    30    18    28   ar
    31     1    29    1
    32     1    30    1
    33     1    31    1
    34     2    32    1
    35     2    33    1
    36     3    34    1
    37     4    35    1
    38     8    36    1
    39     9    37    1
    40    11    38    1
    41    11    39    1
    42    11    40    1
    43    13    41    1
    44    15    42    1
    45    15    43    1
    46    15    44    1
    47    17    45    1
    48    22    46    1
    49    23    47    1
    50    24    48    1
    51    25    49    1
    52    26    50    1
    53    27    51    1
    54    28    52    1
