REMARK  3 active torsions:
REMARK  status: ('A' for Active; 'I' for Inactive)
REMARK    1  A    between atoms: C_4  and  N_5 
REMARK    2  A    between atoms: N_5  and  C_6 
REMARK    3  A    between atoms: C_16  and  C_17 
ROOT
ATOM      1  O   UNL d   1       1.050   0.156   0.055  0.00  0.00    -0.265 OA
ATOM      2  C   UNL d   1       2.277   0.135   0.038  0.00  0.00     0.291 A 
ATOM      3  N   UNL d   1       3.038   1.267   0.051  0.00  0.00    -0.151 N 
ATOM      4  C   UNL d   1       4.406   1.224   0.065  0.00  0.00     0.726 A 
ATOM      5  N   UNL d   1       5.029   0.082   0.081  0.00  0.00     0.043 NA
ATOM      6  N   UNL d   1       4.350  -1.148   0.077  0.00  0.00    -0.128 NA
ATOM      7  C   UNL d   1       3.052  -1.160   0.033  0.00  0.00     0.158 A 
ATOM      8  H   UNL d   1       2.532   2.136   0.069  0.00  0.00     0.188 HD
ENDROOT
BRANCH   4   9
ATOM      9  N   UNL d   1       5.061   2.445   0.076  0.00  0.00    -0.188 N 
ATOM     10  H   UNL d   1       4.548   3.305   0.201  0.00  0.00     0.184 HD
BRANCH   9  11
ATOM     11  C   UNL d   1       6.467   2.569   0.086  0.00  0.00     0.051 C 
ATOM     12  C   UNL d   1       7.230   2.007  -0.949  0.00  0.00     0.033 C 
ATOM     13  C   UNL d   1       8.625   1.996  -0.895  0.00  0.00     0.046 C 
ATOM     14  C   UNL d   1       9.264   2.441   0.253  0.00  0.00     0.138 C 
ATOM     15  F   UNL d   1      10.591   2.279   0.357  0.00  0.00    -0.204 F 
ATOM     16  C   UNL d   1       8.529   3.027   1.280  0.00  0.00     0.074 C 
ATOM     17 CL   UNL d   1       9.317   3.528   2.730  0.00  0.00    -0.081 Cl
ATOM     18  C   UNL d   1       7.139   3.166   1.164  0.00  0.00     0.057 C 
ENDBRANCH   9  11
ENDBRANCH   4   9
BRANCH   7  19
ATOM     19  C   UNL d   1       2.308  -2.446   0.025  0.00  0.00     0.000 A 
ATOM     20  C   UNL d   1       1.375  -2.725  -0.980  0.00  0.00     0.014 A 
ATOM     21  C   UNL d   1       0.560  -3.858  -0.880  0.00  0.00     0.001 A 
ATOM     22  C   UNL d   1       0.749  -4.766   0.161  0.00  0.00     0.000 A 
ATOM     23  C   UNL d   1       1.764  -4.551   1.094  0.00  0.00     0.001 A 
ATOM     24  C   UNL d   1       2.515  -3.371   1.054  0.00  0.00     0.014 A 
ENDBRANCH   7  19
TORSDOF 3
