@<TRIPOS>MOLECULE
*****
 38 40 0 0 0
SMALL
GASTEIGER

@<TRIPOS>ATOM
      1 C           2.4928   -0.0077   -0.0065 C.3     1  UNL1       -0.0397
      2 C           0.9943   -0.0081    0.0171 C.ar    1  UNL1       -0.0487
      3 C           0.2669   -1.1983    0.0241 C.ar    1  UNL1       -0.0587
      4 C          -1.1252   -1.1575    0.0134 C.ar    1  UNL1       -0.0597
      5 C          -1.7943    0.0749   -0.0344 C.ar    1  UNL1       -0.0394
      6 C          -1.0846    1.2906   -0.0548 C.ar    1  UNL1        0.0447
      7 N          -1.7818    2.5103   -0.3153 N.pl3   1  UNL1       -0.2642
      8 N          -1.1135    3.6978    0.1538 N.am    1  UNL1       -0.2324
      9 C          -1.8373    4.9011    0.0904 C.2     1  UNL1        0.2636
     10 O          -1.4269    5.8205   -0.5812 O.2     1  UNL1       -0.2685
     11 C          -3.0514    5.0826    0.9851 C.ar    1  UNL1        0.0801
     12 C          -3.6941    6.3229    0.9439 C.ar    1  UNL1       -0.0383
     13 C          -4.7438    6.6689    1.8261 C.ar    1  UNL1       -0.0169
     14 C          -5.2964    7.9298    1.6775 C.ar    1  UNL1       -0.0540
     15 C          -6.4499    8.2816    2.3626 C.ar    1  UNL1       -0.0612
     16 C          -6.7463    7.7427    3.5786 C.ar    1  UNL1       -0.0612
     17 C          -6.3099    6.4021    3.7009 C.ar    1  UNL1       -0.0539
     18 C          -5.2548    5.8063    2.8143 C.ar    1  UNL1       -0.0144
     19 C          -4.6160    4.4949    2.7919 C.ar    1  UNL1       -0.0117
     20 C          -3.5213    4.1726    1.9294 C.ar    1  UNL1        0.1296
     21 O          -2.8647    2.9773    2.0465 O.3     1  UNL1       -0.5060
     22 C           0.3129    1.2195   -0.0153 C.ar    1  UNL1       -0.0365
     23 H           2.8965   -1.0243    0.0036 H       1  UNL1        0.0278
     24 H           2.8812    0.5238    0.8679 H       1  UNL1        0.0278
     25 H           2.8483    0.4883   -0.9160 H       1  UNL1        0.0278
     26 H           0.7790   -2.1582    0.0187 H       1  UNL1        0.0620
     27 H          -1.6865   -2.0894    0.0076 H       1  UNL1        0.0618
     28 H          -2.8807    0.0661   -0.0773 H       1  UNL1        0.0636
     29 H          -2.7230    2.4521    0.0817 H       1  UNL1        0.1700
     30 H          -0.2113    3.8093   -0.2970 H       1  UNL1        0.1730
     31 H          -3.3463    7.0763    0.2359 H       1  UNL1        0.0632
     32 H          -4.9466    8.6276    0.9273 H       1  UNL1        0.0624
     33 H          -7.3392    7.9188    1.7942 H       1  UNL1        0.0618
     34 H          -7.5965    8.2991    4.0057 H       1  UNL1        0.0618
     35 H          -6.8347    5.7530    4.4049 H       1  UNL1        0.0624
     36 H          -4.9220    3.7239    3.4951 H       1  UNL1        0.0660
     37 H          -3.2320    2.3640    2.6951 H       1  UNL1        0.2922
     38 H           0.9092    2.1244   -0.0364 H       1  UNL1        0.0639
@<TRIPOS>BOND
     1     1     2    1
     2     2     3   ar
     3     3     4   ar
     4     4     5   ar
     5     5     6   ar
     6     6     7    1
     7     7     8    1
     8     8     9   am
     9     9    10    2
    10     9    11    1
    11    11    12   ar
    12    12    13   ar
    13    13    14   ar
    14    14    15   ar
    15    15    16   ar
    16    16    17   ar
    17    17    18   ar
    18    13    18   ar
    19    18    19   ar
    20    19    20   ar
    21    11    20   ar
    22    20    21    1
    23     6    22   ar
    24     2    22   ar
    25     1    23    1
    26     1    24    1
    27     1    25    1
    28     3    26    1
    29     4    27    1
    30     5    28    1
    31     7    29    1
    32     8    30    1
    33    12    31    1
    34    14    32    1
    35    15    33    1
    36    16    34    1
    37    17    35    1
    38    19    36    1
    39    21    37    1
    40    22    38    1
