@<TRIPOS>MOLECULE
*****
 33 34 0 0 0
SMALL
GASTEIGER

@<TRIPOS>ATOM
      1 C          -2.4979   -1.1636   -0.0209 C.3     1  UNL1       -0.0220
      2 C          -1.1930   -0.4226    0.0027 C.ar    1  UNL1        0.0484
      3 C          -0.0135   -1.0496   -0.0079 C.ar    1  UNL1        0.0240
      4 C           1.1921   -0.2121   -0.0150 C.ar    1  UNL1        0.2540
      5 O           2.3118   -0.7197    0.0034 O.2     1  UNL1       -0.2677
      6 N           0.9868    1.1432   -0.0457 N.ar    1  UNL1       -0.2800
      7 C          -0.2700    1.7020   -0.0090 C.ar    1  UNL1        0.2727
      8 N          -0.4428    3.0791   -0.0036 N.pl3   1  UNL1       -0.2127
      9 C          -1.6334    3.7710    0.0397 C.cat   1  UNL1        0.3859
     10 N          -2.7888    3.1782    0.0851 N.pl3   1  UNL1       -0.1292
     11 N          -1.6146    5.1300    0.0478 N.pl3   1  UNL1       -0.2701
     12 C          -2.8796    5.8742    0.0773 C.3     1  UNL1        0.1068
     13 C          -2.6992    7.3840    0.0673 C.ar    1  UNL1        0.0747
     14 C          -3.8212    8.2084    0.2233 C.ar    1  UNL1       -0.0373
     15 C          -3.6591    9.5920    0.1910 C.ar    1  UNL1       -0.0585
     16 C          -2.3886   10.1181    0.0040 C.ar    1  UNL1       -0.0436
     17 C          -1.3293    9.2359   -0.1404 C.ar    1  UNL1        0.0280
     18 N          -1.4487    7.8879   -0.1158 N.ar    1  UNL1       -0.2567
     19 N          -1.3229    0.9347    0.0216 N.ar    1  UNL1       -0.2049
     20 H          -2.3595   -2.2481   -0.0445 H       1  UNL1        0.0293
     21 H          -3.0732   -0.8761   -0.9083 H       1  UNL1        0.0293
     22 H          -3.0916   -0.9141    0.8653 H       1  UNL1        0.0293
     23 H           0.0946   -2.1250   -0.0237 H       1  UNL1        0.0690
     24 H           1.8258    1.6987   -0.0674 H       1  UNL1        0.1731
     25 H           0.3871    3.6481   -0.0334 H       1  UNL1        0.2678
     26 H          -2.5885    2.1609    0.0778 H       1  UNL1        0.3062
     27 H          -0.7923    5.7150   -0.0305 H       1  UNL1        0.2583
     28 H          -3.4338    5.6073    0.9860 H       1  UNL1        0.0722
     29 H          -3.4895    5.6053   -0.7950 H       1  UNL1        0.0722
     30 H          -4.8120    7.7859    0.3692 H       1  UNL1        0.0636
     31 H          -4.5144   10.2528    0.3103 H       1  UNL1        0.0619
     32 H          -2.2256   11.1899   -0.0276 H       1  UNL1        0.0633
     33 H          -0.3185    9.6054   -0.2842 H       1  UNL1        0.0829
@<TRIPOS>BOND
     1     1     2    1
     2     2     3   ar
     3     3     4   ar
     4     4     5    2
     5     4     6   ar
     6     6     7   ar
     7     7     8    1
     8     8     9    1
     9     9    10    2
    10     9    11    1
    11    11    12    1
    12    12    13    1
    13    13    14   ar
    14    14    15   ar
    15    15    16   ar
    16    16    17   ar
    17    17    18   ar
    18    13    18   ar
    19     7    19   ar
    20     2    19   ar
    21     1    20    1
    22     1    21    1
    23     1    22    1
    24     3    23    1
    25     6    24    1
    26     8    25    1
    27    10    26    1
    28    11    27    1
    29    12    28    1
    30    12    29    1
    31    14    30    1
    32    15    31    1
    33    16    32    1
    34    17    33    1
