@<TRIPOS>MOLECULE
*****
 45 47 0 0 0
SMALL
GASTEIGER

@<TRIPOS>ATOM
      1 C           1.3150   -0.7412   -0.3322 C.3     1  UNL1        0.0790
      2 O           2.6480   -0.2780   -0.1648 O.3     1  UNL1       -0.4914
      3 C           3.0656    0.8316   -0.8574 C.ar    1  UNL1        0.1618
      4 C           4.2381    0.6436   -1.6119 C.ar    1  UNL1       -0.0163
      5 C           4.9203    1.7160   -2.1947 C.ar    1  UNL1       -0.0578
      6 C           4.4543    3.0085   -2.0037 C.ar    1  UNL1       -0.0540
      7 C           3.2862    3.2491   -1.2409 C.ar    1  UNL1        0.0101
      8 C           2.9143    4.7293   -0.9897 C.3     1  UNL1        0.0513
      9 C           2.6095    5.2665   -2.3326 C.ar    1  UNL1        0.0477
     10 C           1.6432    4.8679   -3.2713 C.ar    1  UNL1        0.2356
     11 O           0.7271    3.8958   -3.1698 O.3     1  UNL1       -0.4912
     12 N           1.6258    5.6243   -4.3613 N.ar    1  UNL1       -0.1358
     13 N           2.5966    6.5285   -4.1162 N.ar    1  UNL1       -0.2781
     14 C           3.2272    6.3513   -2.9154 C.ar    1  UNL1        0.0408
     15 C           4.3270    7.1733   -2.3649 C.3     1  UNL1       -0.0225
     16 C           1.8078    4.9339   -0.0020 C.ar    1  UNL1        0.0480
     17 C           1.8179    4.5289    1.3680 C.ar    1  UNL1        0.0675
     18 C           2.9309    3.7806    2.0411 C.3     1  UNL1       -0.0202
     19 N           0.5983    4.6515    1.9266 N.ar    1  UNL1       -0.1759
     20 N          -0.1733    5.0991    0.9151 N.ar    1  UNL1       -0.2465
     21 C           0.5140    5.4199   -0.2176 C.ar    1  UNL1        0.2125
     22 O          -0.0168    5.9818   -1.2831 O.3     1  UNL1       -0.4925
     23 C           2.5598    2.1311   -0.7293 C.ar    1  UNL1        0.1655
     24 O           1.3486    2.4877   -0.2337 O.3     1  UNL1       -0.4911
     25 C           0.6555    1.7754    0.7556 C.3     1  UNL1        0.0790
     26 H           1.2523   -1.7667    0.0318 H       1  UNL1        0.0660
     27 H           0.9370   -0.6189   -1.3474 H       1  UNL1        0.0660
     28 H           0.6132   -0.3147    0.3669 H       1  UNL1        0.0660
     29 H           4.6234   -0.3610   -1.7681 H       1  UNL1        0.0655
     30 H           5.8255    1.5522   -2.7761 H       1  UNL1        0.0619
     31 H           4.9864    3.8332   -2.4826 H       1  UNL1        0.0622
     32 H           3.7992    5.2204   -0.5576 H       1  UNL1        0.0452
     33 H           0.7587    3.5462   -2.2601 H       1  UNL1        0.2938
     34 H           2.7747    7.2315   -4.8222 H       1  UNL1        0.1886
     35 H           4.6706    7.9460   -3.0510 H       1  UNL1        0.0292
     36 H           5.1750    6.5206   -2.1210 H       1  UNL1        0.0292
     37 H           4.0101    7.6432   -1.4252 H       1  UNL1        0.0292
     38 H           3.8104    3.7194    1.3895 H       1  UNL1        0.0293
     39 H           2.6589    2.7413    2.2603 H       1  UNL1        0.0293
     40 H           3.2431    4.2580    2.9664 H       1  UNL1        0.0293
     41 H          -1.1834    5.1483    1.0518 H       1  UNL1        0.1920
     42 H          -0.9936    5.9333   -1.3167 H       1  UNL1        0.2937
     43 H           0.0951    2.3871    1.4614 H       1  UNL1        0.0660
     44 H           1.3138    1.1645    1.3823 H       1  UNL1        0.0660
     45 H          -0.1427    1.2983    0.1935 H       1  UNL1        0.0660
@<TRIPOS>BOND
     1     1     2    1
     2     2     3    1
     3     3     4   ar
     4     4     5   ar
     5     5     6   ar
     6     6     7   ar
     7     7     8    1
     8     8     9    1
     9     9    10   ar
    10    10    11    1
    11    10    12   ar
    12    12    13   ar
    13    13    14   ar
    14     9    14   ar
    15    14    15    1
    16     8    16    1
    17    16    17   ar
    18    17    18    1
    19    17    19   ar
    20    19    20   ar
    21    20    21   ar
    22    16    21   ar
    23    21    22    1
    24     7    23   ar
    25     3    23   ar
    26    23    24    1
    27    24    25    1
    28     1    26    1
    29     1    27    1
    30     1    28    1
    31     4    29    1
    32     5    30    1
    33     6    31    1
    34     8    32    1
    35    11    33    1
    36    13    34    1
    37    15    35    1
    38    15    36    1
    39    15    37    1
    40    18    38    1
    41    18    39    1
    42    18    40    1
    43    20    41    1
    44    22    42    1
    45    25    43    1
    46    25    44    1
    47    25    45    1
