REMARK  6 active torsions:
REMARK  status: ('A' for Active; 'I' for Inactive)
REMARK    1  A    between atoms: O_2  and  C_3 
REMARK    2  A    between atoms: C_3  and  C_5 
REMARK    3  A    between atoms: C_7  and  N_8 
REMARK       I    between atoms: N_8  and  C_9 
REMARK    4  A    between atoms: C_9  and  C_11 
REMARK    5  A    between atoms: C_11  and  N_13 
REMARK       I    between atoms: N_13  and  C_14 
REMARK       I    between atoms: C_14  and  N_16 
REMARK    6  A    between atoms: N_16  and  C_17 
ROOT
ATOM      1  N   UNL d   1       7.700  -2.371  -2.444  0.00  0.00    -0.325 N 
ATOM      2  C   UNL d   1       9.113  -2.365  -2.483  0.00  0.00     0.244 C 
ATOM      3  O   UNL d   1       9.841  -1.865  -1.619  0.00  0.00    -0.271 OA
ATOM      4  H   UNL d   1       7.196  -2.838  -3.192  0.00  0.00     0.169 HD
ENDROOT
BRANCH   2   5
ATOM      5  C   UNL d   1       9.829  -3.037  -3.696  0.00  0.00     0.174 C 
ATOM      6  C   UNL d   1       9.383  -2.372  -4.993  0.00  0.00     0.042 C 
BRANCH   5   7
ATOM      7  N   UNL d   1      11.314  -2.922  -3.540  0.00  0.00    -0.330 N 
ATOM      8  C   UNL d   1      12.180  -3.501  -4.441  0.00  0.00     0.321 C 
ATOM      9  O   UNL d   1      11.747  -4.145  -5.393  0.00  0.00    -0.247 OA
ATOM     10  N   UNL d   1      13.530  -3.307  -4.195  0.00  0.00    -0.309 N 
ATOM     11  H   UNL d   1      13.828  -3.038  -3.268  0.00  0.00     0.170 HD
ATOM     12  H   UNL d   1      11.647  -2.433  -2.715  0.00  0.00     0.165 HD
BRANCH  10  13
ATOM     13  C   UNL d   1      14.526  -3.806  -5.088  0.00  0.00     0.036 A 
ATOM     14  C   UNL d   1      15.686  -4.429  -4.611  0.00  0.00     0.029 A 
ATOM     15  C   UNL d   1      16.670  -4.884  -5.508  0.00  0.00     0.002 A 
ATOM     16  C   UNL d   1      16.492  -4.744  -6.884  0.00  0.00     0.000 A 
ATOM     17  C   UNL d   1      15.350  -4.113  -7.364  0.00  0.00     0.002 A 
ATOM     18  C   UNL d   1      14.377  -3.650  -6.472  0.00  0.00     0.029 A 
ENDBRANCH  10  13
ENDBRANCH   5   7
ENDBRANCH   2   5
BRANCH   1  19
ATOM     19  C   UNL d   1       6.894  -1.761  -1.413  0.00  0.00     0.035 A 
ATOM     20  C   UNL d   1       5.475  -1.794  -1.428  0.00  0.00     0.049 A 
ATOM     21  C   UNL d   1       4.702  -1.172  -0.391  0.00  0.00     0.063 A 
ATOM     22  C   UNL d   1       5.362  -0.556   0.679  0.00  0.00     0.050 A 
ATOM     23  C   UNL d   1       6.751  -0.518   0.688  0.00  0.00     0.027 A 
ATOM     24 CL   UNL d   1       4.578   0.116   2.064  0.00  0.00    -0.083 Cl
ATOM     25  C   UNL d   1       7.491  -1.101  -0.340  0.00  0.00     0.031 A 
BRANCH  21  26
ATOM     26  C   UNL d   1       3.211  -1.258  -0.424  0.00  0.00     0.294 C 
ATOM     27  O   UNL d   1       2.618  -2.284  -0.745  0.00  0.00    -0.259 OA
BRANCH  26  28
ATOM     28  O   UNL d   1       2.623  -0.073  -0.117  0.00  0.00    -0.322 OA
ATOM     29  C   UNL d   1       1.186  -0.074  -0.075  0.00  0.00     0.213 C 
ENDBRANCH  26  28
ENDBRANCH  21  26
ENDBRANCH   1  19
TORSDOF 6
