@<TRIPOS>MOLECULE
*****
 36 37 0 0 0
SMALL
GASTEIGER

@<TRIPOS>ATOM
      1 C           2.4446   -0.3572    0.4712 C.3     1  UNL1       -0.0380
      2 C           0.9903   -0.1116    0.1907 C.ar    1  UNL1       -0.0292
      3 C           0.2256   -1.2763    0.0813 C.ar    1  UNL1       -0.0564
      4 C          -1.1552   -1.2315   -0.0057 C.ar    1  UNL1       -0.0493
      5 C          -1.8206   -0.0086   -0.0084 C.ar    1  UNL1        0.0383
      6 C          -3.3201    0.0404   -0.0461 C.2     1  UNL1        0.2416
      7 N          -4.0057   -1.1558   -0.0604 N.am    1  UNL1       -0.3253
      8 O          -3.9262    1.0934   -0.0591 O.2     1  UNL1       -0.2704
      9 C          -1.0591    1.1840    0.0068 C.ar    1  UNL1       -0.0281
     10 C           0.3591    1.1450    0.0487 C.ar    1  UNL1        0.0373
     11 N           1.0627    2.3837   -0.0642 N.am    1  UNL1       -0.2813
     12 C           2.4333    2.5945   -0.1812 C.2     1  UNL1        0.2483
     13 O           3.0036    3.3839    0.5686 O.2     1  UNL1       -0.2699
     14 C           3.2208    1.8762   -1.2552 C.ar    1  UNL1        0.0376
     15 C           4.6141    1.7344   -1.1004 C.ar    1  UNL1       -0.0496
     16 C           5.3203    0.7983   -1.8726 C.ar    1  UNL1       -0.0605
     17 C           4.6404   -0.0398   -2.7623 C.ar    1  UNL1       -0.0501
     18 C           3.2510    0.0734   -2.9182 C.ar    1  UNL1        0.0555
     19 C           2.4767   -0.9731   -3.6876 C.3     1  UNL1        0.4174
     20 F           2.6730   -0.8749   -5.0270 F       1  UNL1       -0.1659
     21 F           2.8229   -2.2487   -3.3455 F       1  UNL1       -0.1659
     22 F           1.1289   -0.9062   -3.4928 F       1  UNL1       -0.1659
     23 C           2.5673    1.0992   -2.2337 C.ar    1  UNL1       -0.0380
     24 H           2.6782   -1.4078    0.6513 H       1  UNL1        0.0278
     25 H           2.8253    0.2646    1.2825 H       1  UNL1        0.0278
     26 H           3.0357   -0.2069   -0.4056 H       1  UNL1        0.0278
     27 H           0.7182   -2.2458    0.0808 H       1  UNL1        0.0621
     28 H          -1.6678   -2.1830   -0.0443 H       1  UNL1        0.0625
     29 H          -3.5949   -2.0741   -0.0503 H       1  UNL1        0.1453
     30 H          -5.0164   -1.1144   -0.0816 H       1  UNL1        0.1453
     31 H          -1.5908    2.1362   -0.0340 H       1  UNL1        0.0644
     32 H           0.5488    3.2196    0.1996 H       1  UNL1        0.1551
     33 H           5.1398    2.2605   -0.3030 H       1  UNL1        0.0625
     34 H           6.3906    0.6633   -1.7223 H       1  UNL1        0.0618
     35 H           5.1861   -0.8226   -3.2897 H       1  UNL1        0.0623
     36 H           1.4809    1.1095   -2.2931 H       1  UNL1        0.0631
@<TRIPOS>BOND
     1     1     2    1
     2     2     3   ar
     3     3     4   ar
     4     4     5   ar
     5     5     6    1
     6     6     7   am
     7     6     8    2
     8     5     9   ar
     9     9    10   ar
    10     2    10   ar
    11    10    11    1
    12    11    12   am
    13    12    13    2
    14    12    14    1
    15    14    15   ar
    16    15    16   ar
    17    16    17   ar
    18    17    18   ar
    19    18    19    1
    20    19    20    1
    21    19    21    1
    22    19    22    1
    23    18    23   ar
    24    14    23   ar
    25     1    24    1
    26     1    25    1
    27     1    26    1
    28     3    27    1
    29     4    28    1
    30     7    29    1
    31     7    30    1
    32     9    31    1
    33    11    32    1
    34    15    33    1
    35    16    34    1
    36    17    35    1
    37    23    36    1
