@<TRIPOS>MOLECULE
*****
 67 68 0 0 0
SMALL
GASTEIGER

@<TRIPOS>ATOM
      1 C           0.8979    0.0394    0.0207 C.3     1  UNL1       -0.0653
      2 C           2.4149    0.0460    0.0150 C.3     1  UNL1       -0.0559
      3 C           2.9410    1.1340   -0.9134 C.3     1  UNL1       -0.0533
      4 C           4.4644    1.1460   -0.9236 C.3     1  UNL1       -0.0531
      5 C           4.9857    2.2367   -1.8542 C.3     1  UNL1       -0.0530
      6 C           6.5118    2.2521   -1.8673 C.3     1  UNL1       -0.0500
      7 C           7.0499    3.3403   -2.7976 C.3     1  UNL1       -0.0185
      8 C           8.5801    3.3521   -2.8150 C.3     1  UNL1        0.0928
      9 O           9.0538    4.3785   -3.7085 O.3     1  UNL1       -0.4612
     10 C          10.4073    4.4390   -3.8483 C.2     1  UNL1        0.3392
     11 O          11.2252    3.7064   -3.3009 O.2     1  UNL1       -0.2450
     12 C          10.7934    5.5547   -4.7498 C.ar    1  UNL1        0.0591
     13 C          11.8219    5.4529   -5.7017 C.ar    1  UNL1       -0.0460
     14 C          12.2134    6.5827   -6.4728 C.ar    1  UNL1       -0.0397
     15 C          11.5433    7.8103   -6.3332 C.ar    1  UNL1        0.0334
     16 N          11.8212    8.9274   -7.1936 N.am    1  UNL1       -0.2855
     17 C          11.1087   10.1310   -7.1649 C.2     1  UNL1        0.2177
     18 O          10.1989   10.3913   -6.3789 O.2     1  UNL1       -0.2755
     19 C          11.4765   11.1928   -8.1908 C.3     1  UNL1        0.0343
     20 C          10.6018   12.4567   -7.9666 C.3     1  UNL1        0.0532
     21 C          10.9236   13.5604   -8.9484 C.2     1  UNL1        0.3079
     22 O          11.7651   13.4657   -9.8328 O.2     1  UNL1       -0.2508
     23 O          10.1618   14.6723   -8.7320 O.3     1  UNL1       -0.4566
     24 C          10.4133   15.7627   -9.6400 C.3     1  UNL1        0.1547
     25 C           9.5441   16.9919   -9.3339 C.2     1  UNL1        0.2003
     26 O           8.7514   17.0431   -8.3957 O.2     1  UNL1       -0.2884
     27 C           9.6596   18.1918  -10.2198 C.ar    1  UNL1        0.0209
     28 C           9.6076   19.4821   -9.6652 C.ar    1  UNL1       -0.0501
     29 C           9.5687   20.6103  -10.4978 C.ar    1  UNL1       -0.0471
     30 C           9.6478   20.4516  -11.8798 C.ar    1  UNL1        0.0179
     31 BR          9.7336   21.9702  -13.0036 Br      1  UNL1       -0.0503
     32 C           9.7023   19.1759  -12.4384 C.ar    1  UNL1       -0.0471
     33 C           9.7027   18.0471  -11.6102 C.ar    1  UNL1       -0.0501
     34 C          10.5648    7.8820   -5.3360 C.ar    1  UNL1       -0.0397
     35 C          10.1850    6.7852   -4.5628 C.ar    1  UNL1       -0.0460
     36 H           0.5238   -0.7421    0.6875 H       1  UNL1        0.0230
     37 H           0.5079   -0.1490   -0.9847 H       1  UNL1        0.0230
     38 H           0.5079    1.0026    0.3649 H       1  UNL1        0.0230
     39 H           2.7847   -0.9336   -0.3099 H       1  UNL1        0.0263
     40 H           2.7847    0.2127    1.0335 H       1  UNL1        0.0263
     41 H           2.5660    2.1123   -0.5879 H       1  UNL1        0.0265
     42 H           2.5661    0.9665   -1.9307 H       1  UNL1        0.0265
     43 H           4.8392    0.1680   -1.2498 H       1  UNL1        0.0265
     44 H           4.8392    1.3142    0.0935 H       1  UNL1        0.0265
     45 H           4.6060    3.2119   -1.5257 H       1  UNL1        0.0265
     46 H           4.6060    2.0656   -2.8689 H       1  UNL1        0.0265
     47 H           6.8813    1.2708   -2.1897 H       1  UNL1        0.0266
     48 H           6.8818    2.4167   -0.8478 H       1  UNL1        0.0266
     49 H           6.6729    4.3211   -2.4818 H       1  UNL1        0.0298
     50 H           6.6692    3.1835   -3.8144 H       1  UNL1        0.0298
     51 H           8.9468    2.3764   -3.1534 H       1  UNL1        0.0697
     52 H           8.9533    3.5521   -1.8036 H       1  UNL1        0.0697
     53 H          12.3163    4.4940   -5.8558 H       1  UNL1        0.0626
     54 H          13.0475    6.4696   -7.1637 H       1  UNL1        0.0636
     55 H          12.5179    8.7898   -7.9184 H       1  UNL1        0.1548
     56 H          11.3042   10.7989   -9.1983 H       1  UNL1        0.0364
     57 H          12.5352   11.4499   -8.0859 H       1  UNL1        0.0364
     58 H          10.7586   12.8380   -6.9489 H       1  UNL1        0.0382
     59 H           9.5394   12.1966   -8.0691 H       1  UNL1        0.0382
     60 H          10.2008   15.4188  -10.6570 H       1  UNL1        0.0782
     61 H          11.4615   16.0701   -9.5482 H       1  UNL1        0.0782
     62 H           9.5939   19.6213   -8.5852 H       1  UNL1        0.0625
     63 H           9.4680   21.6035  -10.0642 H       1  UNL1        0.0629
     64 H           9.7272   19.0476  -13.5180 H       1  UNL1        0.0629
     65 H           9.7019   17.0666  -12.0749 H       1  UNL1        0.0625
     66 H          10.0459    8.7996   -5.0991 H       1  UNL1        0.0636
     67 H           9.4171    6.9251   -3.8079 H       1  UNL1        0.0626
@<TRIPOS>BOND
     1     1     2    1
     2     2     3    1
     3     3     4    1
     4     4     5    1
     5     5     6    1
     6     6     7    1
     7     7     8    1
     8     8     9    1
     9     9    10    1
    10    10    11    2
    11    10    12    1
    12    12    13   ar
    13    13    14   ar
    14    14    15   ar
    15    15    16    1
    16    16    17   am
    17    17    18    2
    18    17    19    1
    19    19    20    1
    20    20    21    1
    21    21    22    2
    22    21    23    1
    23    23    24    1
    24    24    25    1
    25    25    26    2
    26    25    27    1
    27    27    28   ar
    28    28    29   ar
    29    29    30   ar
    30    30    31    1
    31    30    32   ar
    32    32    33   ar
    33    27    33   ar
    34    15    34   ar
    35    34    35   ar
    36    12    35   ar
    37     1    36    1
    38     1    37    1
    39     1    38    1
    40     2    39    1
    41     2    40    1
    42     3    41    1
    43     3    42    1
    44     4    43    1
    45     4    44    1
    46     5    45    1
    47     5    46    1
    48     6    47    1
    49     6    48    1
    50     7    49    1
    51     7    50    1
    52     8    51    1
    53     8    52    1
    54    13    53    1
    55    14    54    1
    56    16    55    1
    57    19    56    1
    58    19    57    1
    59    20    58    1
    60    20    59    1
    61    24    60    1
    62    24    61    1
    63    28    62    1
    64    29    63    1
    65    32    64    1
    66    33    65    1
    67    34    66    1
    68    35    67    1
