@<TRIPOS>MOLECULE
*****
 50 51 0 0 0
SMALL
GASTEIGER

@<TRIPOS>ATOM
      1 C           1.0494   -0.0031   -0.0368 C.3     1  UNL1        0.0125
      2 C           2.5527   -0.0983   -0.0929 C.2     1  UNL1        0.2141
      3 O           3.0812   -1.0486   -0.6684 O.2     1  UNL1       -0.2758
      4 N           3.2394    0.9148    0.5655 N.am    1  UNL1       -0.2857
      5 C           4.6532    1.0153    0.5399 C.ar    1  UNL1        0.0334
      6 C           5.3789    1.4638    1.6460 C.ar    1  UNL1       -0.0399
      7 C           6.7907    1.5839    1.5742 C.ar    1  UNL1       -0.0528
      8 C           7.5030    1.2339    0.4081 C.ar    1  UNL1       -0.0248
      9 C           8.9950    1.2434    0.3635 C.2     1  UNL1       -0.0496
     10 C           9.7596    0.8644   -0.6870 C.2     1  UNL1        0.0022
     11 C          11.2592    0.8546   -0.6484 C.2     1  UNL1        0.2530
     12 O          11.8917    1.1857    0.3582 O.2     1  UNL1       -0.2693
     13 N          11.8753    0.4490   -1.8209 N.am    1  UNL1       -0.2309
     14 N          13.2987    0.4164   -1.8966 N.am    1  UNL1       -0.2342
     15 C          13.9024    0.0186   -3.0786 C.2     1  UNL1        0.2291
     16 O          13.2378   -0.3096   -4.0633 O.2     1  UNL1       -0.2743
     17 C          15.4350    0.0158   -3.0714 C.3     1  UNL1        0.0257
     18 C          15.9978   -0.4409   -4.4258 C.3     1  UNL1       -0.0408
     19 C          17.5273   -0.4678   -4.4661 C.3     1  UNL1       -0.0272
     20 C          18.0360   -0.9299   -5.8120 C.ar    1  UNL1       -0.0473
     21 C          17.8938   -2.2694   -6.2023 C.ar    1  UNL1       -0.0586
     22 C          18.4144   -2.7123   -7.4183 C.ar    1  UNL1       -0.0615
     23 C          19.0162   -1.8067   -8.2888 C.ar    1  UNL1       -0.0617
     24 C          19.1393   -0.4672   -7.9238 C.ar    1  UNL1       -0.0615
     25 C          18.6605   -0.0317   -6.6868 C.ar    1  UNL1       -0.0586
     26 C           6.7433    0.8310   -0.6935 C.ar    1  UNL1       -0.0528
     27 C           5.3513    0.7127   -0.6255 C.ar    1  UNL1       -0.0399
     28 H           0.6306   -0.8813   -0.5445 H       1  UNL1        0.0323
     29 H           0.6968    0.8877   -0.5617 H       1  UNL1        0.0323
     30 H           0.6940   -0.0102    0.9957 H       1  UNL1        0.0323
     31 H           2.7311    1.5415    1.1769 H       1  UNL1        0.1548
     32 H           4.8821    1.6492    2.5967 H       1  UNL1        0.0636
     33 H           7.3213    1.9435    2.4556 H       1  UNL1        0.0624
     34 H           9.4844    1.5502    1.2882 H       1  UNL1        0.0625
     35 H           9.3179    0.5310   -1.6163 H       1  UNL1        0.0670
     36 H          11.3830    0.1678   -2.6690 H       1  UNL1        0.1731
     37 H          13.8037    0.6947   -1.0571 H       1  UNL1        0.1728
     38 H          15.7902   -0.6596   -2.2842 H       1  UNL1        0.0359
     39 H          15.7984    1.0252   -2.8468 H       1  UNL1        0.0359
     40 H          15.6311    0.2216   -5.2207 H       1  UNL1        0.0273
     41 H          15.6081   -1.4407   -4.6562 H       1  UNL1        0.0273
     42 H          17.9262   -1.1392   -3.6951 H       1  UNL1        0.0313
     43 H          17.9283    0.5284   -4.2409 H       1  UNL1        0.0313
     44 H          17.3723   -2.9763   -5.5610 H       1  UNL1        0.0620
     45 H          18.3516   -3.7642   -7.6838 H       1  UNL1        0.0618
     46 H          19.3842   -2.1447   -9.2535 H       1  UNL1        0.0618
     47 H          19.6167    0.2378   -8.5992 H       1  UNL1        0.0618
     48 H          18.7735    1.0147   -6.4136 H       1  UNL1        0.0620
     49 H           7.2021    0.5896   -1.6447 H       1  UNL1        0.0624
     50 H           4.8211    0.3973   -1.5201 H       1  UNL1        0.0636
@<TRIPOS>BOND
     1     1     2    1
     2     2     3    2
     3     2     4   am
     4     4     5    1
     5     5     6   ar
     6     6     7   ar
     7     7     8   ar
     8     8     9    1
     9     9    10    2
    10    10    11    1
    11    11    12    2
    12    11    13   am
    13    13    14    1
    14    14    15   am
    15    15    16    2
    16    15    17    1
    17    17    18    1
    18    18    19    1
    19    19    20    1
    20    20    21   ar
    21    21    22   ar
    22    22    23   ar
    23    23    24   ar
    24    24    25   ar
    25    20    25   ar
    26     8    26   ar
    27    26    27   ar
    28     5    27   ar
    29     1    28    1
    30     1    29    1
    31     1    30    1
    32     4    31    1
    33     6    32    1
    34     7    33    1
    35     9    34    1
    36    10    35    1
    37    13    36    1
    38    14    37    1
    39    17    38    1
    40    17    39    1
    41    18    40    1
    42    18    41    1
    43    19    42    1
    44    19    43    1
    45    21    44    1
    46    22    45    1
    47    23    46    1
    48    24    47    1
    49    25    48    1
    50    26    49    1
    51    27    50    1
