REMARK  3 active torsions:
REMARK  status: ('A' for Active; 'I' for Inactive)
REMARK    1  A    between atoms: C_7  and  C_8 
REMARK       I    between atoms: C_8  and  N_10 
REMARK    2  A    between atoms: N_10  and  C_11 
REMARK    3  A    between atoms: C_11  and  C_12 
ROOT
ATOM      1  C   UNL d   1       0.016  -2.599   0.022  0.00  0.00     0.255 C 
ATOM      2  O   UNL d   1      -1.050  -3.212  -0.016  0.00  0.00    -0.268 OA
ATOM      3  N   UNL d   1       1.221  -3.265   0.074  0.00  0.00    -0.356 N 
ATOM      4  H   UNL d   1       2.068  -2.729   0.072  0.00  0.00     0.162 HD
ENDROOT
BRANCH   1   5
ATOM      5  C   UNL d   1       0.066  -1.129   0.013  0.00  0.00     0.081 A 
ATOM      6  C   UNL d   1       1.152  -0.257   0.004  0.00  0.00     0.041 A 
ATOM      7  N   UNL d   1       0.628   1.009   0.012  0.00  0.00    -0.281 N 
ATOM      8  C   UNL d   1       2.618  -0.456  -0.020  0.00  0.00     0.071 C 
ATOM      9  N   UNL d   1      -0.705   1.044   0.003  0.00  0.00    -0.179 NA
ATOM     10  H   UNL d   1       1.125   1.895   0.019  0.00  0.00     0.189 HD
ATOM     11  C   UNL d   1      -1.063  -0.245   0.004  0.00  0.00     0.068 A 
ATOM     12  C   UNL d   1      -2.507  -0.599   0.001  0.00  0.00     0.073 C 
ENDBRANCH   1   5
BRANCH   3  13
ATOM     13  C   UNL d   1       1.330  -4.715   0.007  0.00  0.00     0.127 C 
BRANCH  13  14
ATOM     14  C   UNL d   1       2.787  -5.207  -0.007  0.00  0.00     0.003 C 
ATOM     15  C   UNL d   1       2.964  -6.602  -0.613  0.00  0.00     0.006 C 
ATOM     16  C   UNL d   1       4.451  -6.679  -0.955  0.00  0.00     0.000 C 
ATOM     17  C   UNL d   1       4.887  -5.246  -1.245  0.00  0.00     0.000 C 
ATOM     18  C   UNL d   1       3.699  -4.362  -0.898  0.00  0.00     0.006 C 
ENDBRANCH  13  14
ENDBRANCH   3  13
TORSDOF 3
