REMARK  11 active torsions:
REMARK  status: ('A' for Active; 'I' for Inactive)
REMARK    1  A    between atoms: C_2  and  C_3 
REMARK    2  A    between atoms: C_3  and  C_4 
REMARK    3  A    between atoms: C_4  and  S_5 
REMARK    4  A    between atoms: S_5  and  C_6 
REMARK    5  A    between atoms: C_9  and  C_10 
REMARK       I    between atoms: C_10  and  N_12 
REMARK    6  A    between atoms: N_12  and  C_13 
REMARK    7  A    between atoms: C_14  and  C_13 
REMARK    8  A    between atoms: C_14  and  N_25 
REMARK    9  A    between atoms: C_14  and  C_15 
REMARK   10  A    between atoms: C_18  and  O_19 
REMARK   11  A    between atoms: C_21  and  O_22 
ROOT
ATOM      1  C   UNL d   1      13.934  -1.801  -3.982  0.00  0.00     0.238 C 
ENDROOT
BRANCH   1   2
ATOM      2  N   UNL d   1      15.515  -1.845  -3.927  0.00  0.00    -0.061 N 
ATOM      3  C   UNL d   1      16.140  -0.569  -3.400  0.00  0.00     0.236 C 
ATOM      4  C   UNL d   1      17.634  -0.675  -3.225  0.00  0.00     0.028 C 
ATOM      5  C   UNL d   1      17.956  -1.859  -2.334  0.00  0.00     0.003 C 
ATOM      6  C   UNL d   1      17.544  -3.121  -3.075  0.00  0.00     0.028 C 
ATOM      7  C   UNL d   1      16.035  -3.141  -3.242  0.00  0.00     0.236 C 
ATOM      8  H   UNL d   1      15.812  -1.928  -4.908  0.00  0.00     0.280 HD
ENDBRANCH   1   2
BRANCH   1   9
ATOM      9  C   UNL d   1      13.346  -2.401  -2.722  0.00  0.00    -0.023 A 
ATOM     10  C   UNL d   1      13.739  -1.919  -1.470  0.00  0.00     0.012 A 
ATOM     11  C   UNL d   1      13.499  -2.586  -0.292  0.00  0.00     0.040 A 
ATOM     12  C   UNL d   1      12.772  -3.756  -0.326  0.00  0.00     0.101 A 
ATOM     13  C   UNL d   1      12.351  -4.276  -1.569  0.00  0.00     0.102 A 
ATOM     14  C   UNL d   1      12.621  -3.583  -2.758  0.00  0.00     0.049 A 
BRANCH  12  15
ATOM     15  O   UNL d   1      12.582  -4.264   0.927  0.00  0.00    -0.353 OA
ATOM     16  C   UNL d   1      11.707  -5.373   1.025  0.00  0.00     0.210 C 
ENDBRANCH  12  15
BRANCH  13  17
ATOM     17  O   UNL d   1      11.745  -5.497  -1.569  0.00  0.00    -0.353 OA
ATOM     18  C   UNL d   1      11.359  -6.057  -2.810  0.00  0.00     0.210 C 
ENDBRANCH  13  17
ENDBRANCH   1   9
BRANCH   1  19
ATOM     19  C   UNL d   1      13.349  -0.378  -4.312  0.00  0.00     0.161 C 
BRANCH  19  20
ATOM     20  N   UNL d   1      13.167   0.514  -3.154  0.00  0.00    -0.354 N 
ATOM     21  C   UNL d   1      12.051   1.291  -2.943  0.00  0.00     0.256 C 
ATOM     22  O   UNL d   1      11.171   1.381  -3.801  0.00  0.00    -0.268 OA
ATOM     23  H   UNL d   1      13.870   0.547  -2.432  0.00  0.00     0.162 HD
BRANCH  21  24
ATOM     24  C   UNL d   1      11.911   2.014  -1.643  0.00  0.00     0.090 A 
ATOM     25  C   UNL d   1      10.820   2.836  -1.448  0.00  0.00     0.139 A 
ATOM     26  N   UNL d   1      10.584   3.544  -0.310  0.00  0.00    -0.234 NA
ATOM     27  C   UNL d   1      11.464   3.410   0.693  0.00  0.00     0.189 A 
ATOM     28  N   UNL d   1      12.547   2.643   0.619  0.00  0.00    -0.210 NA
ATOM     29  C   UNL d   1      12.746   1.992  -0.543  0.00  0.00     0.146 A 
ATOM     30 CL   UNL d   1      14.287   1.241  -0.469  0.00  0.00    -0.061 Cl
BRANCH  27  31
ATOM     31  S   UNL d   1      11.366   4.489   2.089  0.00  0.00    -0.090 SA
BRANCH  31  32
ATOM     32  C   UNL d   1      10.262   3.545   3.190  0.00  0.00     0.082 C 
BRANCH  32  33
ATOM     33  C   UNL d   1      10.084   4.339   4.489  0.00  0.00     0.010 C 
BRANCH  33  34
ATOM     34  C   UNL d   1       9.129   3.644   5.461  0.00  0.00    -0.004 C 
ATOM     35  C   UNL d   1       8.961   4.456   6.737  0.00  0.00     0.005 C 
ENDBRANCH  33  34
ENDBRANCH  32  33
ENDBRANCH  31  32
ENDBRANCH  27  31
ENDBRANCH  21  24
ENDBRANCH  19  20
ENDBRANCH   1  19
TORSDOF 11
