REMARK  5 active torsions:
REMARK  status: ('A' for Active; 'I' for Inactive)
REMARK    1  A    between atoms: C_2  and  N_5 
REMARK       I    between atoms: N_5  and  C_6 
REMARK    2  A    between atoms: C_6  and  C_8 
REMARK    3  A    between atoms: C_11  and  N_12 
REMARK       I    between atoms: N_12  and  C_13 
REMARK    4  A    between atoms: C_13  and  C_15 
REMARK    5  A    between atoms: C_19  and  N_20 
ROOT
ATOM      1  C   UNL d   1       4.895   2.366  -2.103  0.00  0.00     0.032 A 
ATOM      2  C   UNL d   1       5.926   2.228  -3.043  0.00  0.00     0.019 A 
ATOM      3  C   UNL d   1       6.324   3.335  -3.823  0.00  0.00     0.030 A 
ATOM      4  C   UNL d   1       5.657   4.564  -3.695  0.00  0.00     0.035 A 
ATOM      5  C   UNL d   1       4.670   4.677  -2.713  0.00  0.00     0.030 A 
ATOM      6  C   UNL d   1       4.289   3.600  -1.924  0.00  0.00     0.019 A 
ENDROOT
BRANCH   4   7
ATOM      7  N   UNL d   1       5.961   5.645  -4.566  0.00  0.00    -0.323 N 
ATOM      8  C   UNL d   1       5.313   6.878  -4.556  0.00  0.00     0.256 C 
ATOM      9  O   UNL d   1       4.434   7.258  -3.785  0.00  0.00    -0.267 OA
ATOM     10  H   UNL d   1       6.672   5.476  -5.269  0.00  0.00     0.169 HD
BRANCH   8  11
ATOM     11  C   UNL d   1       5.682   7.850  -5.602  0.00  0.00     0.034 A 
ATOM     12  C   UNL d   1       5.807   9.208  -5.262  0.00  0.00     0.017 A 
ATOM     13  C   UNL d   1       5.995  10.171  -6.257  0.00  0.00     0.003 A 
ATOM     14  C   UNL d   1       6.099   9.776  -7.591  0.00  0.00     0.036 A 
ATOM     15  C   UNL d   1       5.941   8.421  -7.924  0.00  0.00     0.103 A 
ATOM     16  C   UNL d   1       5.722   7.453  -6.936  0.00  0.00     0.053 A 
BRANCH  15  17
ATOM     17  N   UNL d   1       5.962   8.006  -9.329  0.00  0.00    -0.116 N 
ATOM     18  O   UNL d   1       6.173   8.875 -10.186  0.00  0.00    -0.532 OA
ATOM     19  O   UNL d   1       5.771   6.806  -9.572  0.00  0.00    -0.532 OA
ENDBRANCH  15  17
ENDBRANCH   8  11
ENDBRANCH   4   7
BRANCH   1  20
ATOM     20  C   UNL d   1       4.511   1.269  -1.193  0.00  0.00     0.252 C 
ATOM     21  N   UNL d   1       3.153   1.100  -0.966  0.00  0.00    -0.349 N 
ATOM     22  H   UNL d   1       2.497   1.674  -1.483  0.00  0.00     0.163 HD
ATOM     23  O   UNL d   1       5.406   0.602  -0.677  0.00  0.00    -0.268 OA
BRANCH  21  24
ATOM     24  C   UNL d   1       2.610   0.081  -0.052  0.00  0.00     0.022 C 
ATOM     25  C   UNL d   1       1.067   0.109  -0.068  0.00  0.00     0.037 C 
ATOM     26  C   UNL d   1       3.070   0.359   1.387  0.00  0.00     0.037 C 
ATOM     27  C   UNL d   1       3.060  -1.316  -0.502  0.00  0.00     0.037 C 
ENDBRANCH  21  24
ENDBRANCH   1  20
TORSDOF 5
