@<TRIPOS>MOLECULE
*****
 68 69 0 0 0
SMALL
GASTEIGER

@<TRIPOS>ATOM
      1 C           2.2798   -3.2114   -2.1388 C.3     1  UNL1       -0.0653
      2 C           3.4264   -2.4981   -1.4216 C.3     1  UNL1       -0.0559
      3 C           3.6183   -2.9879    0.0490 C.3     1  UNL1       -0.0532
      4 C           4.4498   -2.0899    0.9813 C.3     1  UNL1       -0.0500
      5 C           4.7811   -2.6751    2.3202 C.3     1  UNL1       -0.0186
      6 C           5.5489   -1.5828    3.1622 C.3     1  UNL1        0.0896
      7 O           5.7710   -1.9685    4.5020 O.3     1  UNL1       -0.4912
      8 C           5.8984   -1.2399    5.6427 C.ar    1  UNL1        0.1326
      9 C           6.5596   -2.0448    6.6216 C.ar    1  UNL1       -0.0192
     10 C           7.0085   -1.5496    7.8371 C.ar    1  UNL1       -0.0583
     11 C           6.8363   -0.2044    8.0785 C.ar    1  UNL1       -0.0608
     12 C           6.0457    0.5606    7.2002 C.ar    1  UNL1       -0.0461
     13 C           5.4860    0.0416    5.9934 C.ar    1  UNL1        0.0786
     14 C           4.5590    0.9816    5.2490 C.2     1  UNL1        0.2530
     15 O           4.6488    2.1672    5.5604 O.2     1  UNL1       -0.2697
     16 N           3.5943    0.4935    4.3300 N.am    1  UNL1       -0.2635
     17 C           2.9499    1.2113    3.2898 C.2     1  UNL1        0.1401
     18 S           2.9597    2.8995    3.2207 S.2     1  UNL1       -0.0183
     19 N           2.4190    0.4571    2.2014 N.am    1  UNL1       -0.2988
     20 C           2.4503    1.1464    0.8430 C.3     1  UNL1        0.0301
     21 C           2.7827    0.1902   -0.2415 C.3     1  UNL1        0.0274
     22 N           1.6911   -0.7756   -0.2005 N.am    1  UNL1       -0.3123
     23 C           1.1798   -1.3856    0.9004 C.2     1  UNL1        0.2341
     24 O           0.4916   -2.3775    0.6670 O.2     1  UNL1       -0.2738
     25 C           1.3787   -0.7245    2.2839 C.3     1  UNL1        0.1113
     26 C           1.6712   -1.7256    3.4233 C.3     1  UNL1        0.0720
     27 C           1.1943   -3.1851    3.4601 C.2     1  UNL1        0.3096
     28 O           0.2390   -3.5934    2.7710 O.2     1  UNL1       -0.2508
     29 O           1.7739   -4.1101    4.2750 O.3     1  UNL1       -0.4616
     30 C           2.6314   -3.9369    5.4239 C.3     1  UNL1        0.1000
     31 C           3.8934   -3.3563    5.0120 C.3     1  UNL1       -0.0277
     32 C           3.2116   -5.2394    5.9704 C.3     1  UNL1       -0.0188
     33 C           2.1393   -6.0018    6.6452 C.3     1  UNL1       -0.0619
     34 H           2.0608   -2.7027   -3.0877 H       1  UNL1        0.0230
     35 H           1.3283   -3.1798   -1.5890 H       1  UNL1        0.0230
     36 H           2.5268   -4.2536   -2.3046 H       1  UNL1        0.0230
     37 H           3.1830   -1.4626   -1.6228 H       1  UNL1        0.0263
     38 H           4.3912   -2.4946   -1.9274 H       1  UNL1        0.0263
     39 H           4.0723   -3.9757    0.0097 H       1  UNL1        0.0265
     40 H           2.6683   -3.1961    0.5501 H       1  UNL1        0.0265
     41 H           3.8500   -1.2512    1.3115 H       1  UNL1        0.0266
     42 H           5.3575   -1.7064    0.5240 H       1  UNL1        0.0266
     43 H           5.3106   -3.6233    2.2585 H       1  UNL1        0.0298
     44 H           3.8117   -2.9970    2.6972 H       1  UNL1        0.0298
     45 H           5.0883   -0.6060    3.0562 H       1  UNL1        0.0696
     46 H           6.5399   -1.4885    2.7358 H       1  UNL1        0.0696
     47 H           6.7451   -3.0998    6.4075 H       1  UNL1        0.0654
     48 H           7.5285   -2.1932    8.5446 H       1  UNL1        0.0619
     49 H           7.3094    0.2502    8.9465 H       1  UNL1        0.0618
     50 H           5.8884    1.6063    7.4703 H       1  UNL1        0.0626
     51 H           3.5619   -0.5024    4.3139 H       1  UNL1        0.1568
     52 H           3.1802    1.9529    0.7652 H       1  UNL1        0.0480
     53 H           1.4471    1.5049    0.5994 H       1  UNL1        0.0480
     54 H           3.8037   -0.1914   -0.1120 H       1  UNL1        0.0477
     55 H           2.8545    0.6088   -1.2505 H       1  UNL1        0.0477
     56 H           1.4154   -1.2892   -1.0233 H       1  UNL1        0.1488
     57 H           0.4015   -0.2632    2.4572 H       1  UNL1        0.0602
     58 H           1.4769   -1.2622    4.3934 H       1  UNL1        0.0401
     59 H           2.7273   -1.7620    3.3010 H       1  UNL1        0.0401
     60 H           2.1541   -3.3023    6.1761 H       1  UNL1        0.0731
     61 H           4.3686   -3.9706    4.2392 H       1  UNL1        0.0265
     62 H           4.5732   -3.3188    5.8515 H       1  UNL1        0.0265
     63 H           3.6639   -2.3556    4.7187 H       1  UNL1        0.0265
     64 H           4.0139   -5.0331    6.7026 H       1  UNL1        0.0298
     65 H           3.6825   -5.8309    5.1692 H       1  UNL1        0.0298
     66 H           1.7166   -5.3701    7.4299 H       1  UNL1        0.0231
     67 H           2.5737   -6.9008    7.0783 H       1  UNL1        0.0231
     68 H           1.3765   -6.2502    5.9088 H       1  UNL1        0.0231
@<TRIPOS>BOND
     1     1     2    1
     2     2     3    1
     3     3     4    1
     4     4     5    1
     5     5     6    1
     6     6     7    1
     7     7     8    1
     8     8     9   ar
     9     9    10   ar
    10    10    11   ar
    11    11    12   ar
    12    12    13   ar
    13     8    13   ar
    14    13    14    1
    15    14    15    2
    16    14    16   am
    17    16    17    1
    18    17    18    2
    19    17    19    1
    20    19    20    1
    21    20    21    1
    22    21    22    1
    23    22    23   am
    24    23    24    2
    25    23    25    1
    26    19    25    1
    27    25    26    1
    28    26    27    1
    29    27    28    2
    30    27    29    1
    31    30    32    1
    32    32    33    1
    33    30    31    1
    34    30    29    1
    35     1    34    1
    36     1    35    1
    37     1    36    1
    38     2    37    1
    39     2    38    1
    40     3    39    1
    41     3    40    1
    42     4    41    1
    43     4    42    1
    44     5    43    1
    45     5    44    1
    46     6    45    1
    47     6    46    1
    48     9    47    1
    49    10    48    1
    50    11    49    1
    51    12    50    1
    52    16    51    1
    53    20    52    1
    54    20    53    1
    55    21    54    1
    56    21    55    1
    57    22    56    1
    58    25    57    1
    59    26    58    1
    60    26    59    1
    61    30    60    1
    62    31    61    1
    63    31    62    1
    64    31    63    1
    65    32    64    1
    66    32    65    1
    67    33    66    1
    68    33    67    1
    69    33    68    1
