REMARK  7 active torsions:
REMARK  status: ('A' for Active; 'I' for Inactive)
REMARK    1  A    between atoms: C_2  and  O_4 
REMARK    2  A    between atoms: C_2  and  C_5 
REMARK    3  A    between atoms: C_5  and  C_6 
REMARK    4  A    between atoms: C_6  and  C_7 
REMARK    5  A    between atoms: C_10  and  C_11 
REMARK       I    between atoms: C_11  and  N_13 
REMARK    6  A    between atoms: C_14  and  N_13 
REMARK    7  A    between atoms: C_22  and  O_23 
ROOT
ATOM      1  C   UNL d   1       9.540   4.840   4.749  0.00  0.00     0.276 C 
ATOM      2  O   UNL d   1      10.539   4.162   4.950  0.00  0.00    -0.265 OA
ATOM      3  N   UNL d   1       8.643   4.899   5.810  0.00  0.00    -0.344 N 
ATOM      4  H   UNL d   1       8.849   4.272   6.582  0.00  0.00     0.163 HD
ENDROOT
BRANCH   1   5
ATOM      5  C   UNL d   1       9.394   5.698   3.530  0.00  0.00     0.144 C 
ATOM      6  C   UNL d   1      10.434   6.119   2.711  0.00  0.00     0.046 C 
ATOM      7  C   UNL d   1       9.985   7.266   1.990  0.00  0.00     0.050 C 
ATOM      8  C   UNL d   1       8.705   7.555   2.420  0.00  0.00     0.129 C 
ATOM      9  O   UNL d   1       8.273   6.492   3.220  0.00  0.00    -0.296 OA
BRANCH   8  10
ATOM     10  C   UNL d   1       7.935   8.811   2.287  0.00  0.00    -0.038 C 
BRANCH  10  11
ATOM     11  C   UNL d   1       7.229   9.824   1.868  0.00  0.00    -0.062 C 
BRANCH  11  12
ATOM     12  C   UNL d   1       6.406  11.005   1.379  0.00  0.00     0.114 C 
ATOM     13  C   UNL d   1       7.301  12.239   1.281  0.00  0.00     0.060 C 
ATOM     14  C   UNL d   1       5.257  11.260   2.353  0.00  0.00     0.060 C 
BRANCH  12  15
ATOM     15  O   UNL d   1       5.885  10.696   0.094  0.00  0.00    -0.378 OA
ATOM     16  H   UNL d   1       5.356  11.456  -0.199  0.00  0.00     0.211 HD
ENDBRANCH  12  15
ENDBRANCH  11  12
ENDBRANCH  10  11
ENDBRANCH   8  10
ENDBRANCH   1   5
BRANCH   3  17
ATOM     17  C   UNL d   1       7.503   5.760   5.928  0.00  0.00     0.147 C 
ATOM     18  C   UNL d   1       7.821   7.240   5.887  0.00  0.00    -0.027 C 
ATOM     19  C   UNL d   1       8.916   7.917   5.375  0.00  0.00     0.010 C 
ATOM     20  C   UNL d   1       6.815   7.974   6.495  0.00  0.00    -0.047 C 
ATOM     21  C   UNL d   1       8.829   9.271   5.098  0.00  0.00     0.001 C 
ATOM     22  C   UNL d   1       7.764   9.996   5.599  0.00  0.00     0.001 C 
ATOM     23  C   UNL d   1       6.800   9.359   6.387  0.00  0.00     0.008 C 
ATOM     24  C   UNL d   1       5.915   7.058   7.277  0.00  0.00     0.073 C 
ATOM     25  C   UNL d   1       6.757   5.749   7.292  0.00  0.00     0.149 C 
BRANCH  25  26
ATOM     26  O   UNL d   1       7.695   5.781   8.387  0.00  0.00    -0.393 OA
ATOM     27  H   UNL d   1       8.277   6.551   8.236  0.00  0.00     0.210 HD
ENDBRANCH  25  26
ENDBRANCH   3  17
TORSDOF 7
