REMARK  7 active torsions:
REMARK  status: ('A' for Active; 'I' for Inactive)
REMARK    1  A    between atoms: C_10  and  C_12 
REMARK    2  A    between atoms: C_10  and  O_11 
REMARK       I    between atoms: C_12  and  N_14 
REMARK    3  A    between atoms: N_14  and  C_15 
REMARK    4  A    between atoms: C_15  and  C_16 
REMARK    5  A    between atoms: C_16  and  C_17 
REMARK    6  A    between atoms: C_17  and  N_18 
REMARK    7  A    between atoms: N_24  and  C_25 
ROOT
ATOM      1  O   UNL d   1       1.176   0.168   0.502  0.00  0.00    -0.246 OA
ATOM      2  C   UNL d   1       2.360   0.027   0.169  0.00  0.00     0.330 C 
ATOM      3  N   UNL d   1       3.112   1.099  -0.245  0.00  0.00    -0.308 N 
ATOM      4  C   UNL d   1       4.151   0.963  -1.169  0.00  0.00     0.048 A 
ATOM      5  C   UNL d   1       4.754   2.096  -1.732  0.00  0.00     0.030 A 
ATOM      6  C   UNL d   1       5.709   1.952  -2.744  0.00  0.00     0.002 A 
ATOM      7  C   UNL d   1       6.030   0.689  -3.216  0.00  0.00     0.001 A 
ATOM      8  C   UNL d   1       5.392  -0.422  -2.679  0.00  0.00     0.015 A 
ATOM      9  C   UNL d   1       4.488  -0.316  -1.606  0.00  0.00     0.034 A 
ATOM     10  C   UNL d   1       3.845  -1.542  -0.946  0.00  0.00     0.256 C 
ATOM     11  N   UNL d   1       3.056  -1.169   0.250  0.00  0.00    -0.254 N 
ATOM     12  H   UNL d   1       2.760   2.017  -0.006  0.00  0.00     0.170 HD
ENDROOT
BRANCH  10  13
ATOM     13  C   UNL d   1       4.943  -2.716  -0.885  0.00  0.00     0.279 C 
ATOM     14  O   UNL d   1       5.640  -3.079  -1.838  0.00  0.00    -0.268 OA
ATOM     15  N   UNL d   1       5.153  -3.320   0.316  0.00  0.00    -0.356 N 
ATOM     16  H   UNL d   1       4.338  -3.556   0.861  0.00  0.00     0.162 HD
BRANCH  15  17
ATOM     17  C   UNL d   1       6.363  -4.022   0.585  0.00  0.00     0.124 C 
BRANCH  17  18
ATOM     18  C   UNL d   1       6.439  -4.328   2.064  0.00  0.00     0.050 C 
BRANCH  18  19
ATOM     19  C   UNL d   1       7.704  -5.066   2.305  0.00  0.00     0.274 C 
BRANCH  19  20
ATOM     20  N   UNL d   1       7.797  -5.680   3.639  0.00  0.00     0.092 N 
ATOM     21  C   UNL d   1       8.953  -5.175   4.438  0.00  0.00     0.298 C 
ATOM     22  C   UNL d   1      10.310  -5.356   3.726  0.00  0.00     0.198 C 
ATOM     23  O   UNL d   1      10.516  -6.723   3.323  0.00  0.00    -0.388 OA
ATOM     24  C   UNL d   1       9.412  -7.212   2.550  0.00  0.00     0.198 C 
ATOM     25  C   UNL d   1       8.091  -7.107   3.356  0.00  0.00     0.298 C 
ENDBRANCH  19  20
ENDBRANCH  18  19
ENDBRANCH  17  18
ENDBRANCH  15  17
ENDBRANCH  10  13
BRANCH  10  26
ATOM     26  O   UNL d   1       2.860  -2.049  -1.869  0.00  0.00    -0.359 OA
ATOM     27  H   UNL d   1       2.267  -1.307  -2.077  0.00  0.00     0.213 HD
ENDBRANCH  10  26
BRANCH  11  28
ATOM     28  C   UNL d   1       3.260  -1.679   1.576  0.00  0.00     0.044 C 
ATOM     29  C   UNL d   1       2.243  -2.423   2.185  0.00  0.00     0.031 C 
ATOM     30  C   UNL d   1       2.484  -3.129   3.377  0.00  0.00     0.028 C 
ATOM     31  C   UNL d   1       3.690  -2.976   4.064  0.00  0.00     0.055 C 
ATOM     32 CL   UNL d   1       3.918  -3.871   5.525  0.00  0.00    -0.083 Cl
ATOM     33  C   UNL d   1       4.662  -2.119   3.545  0.00  0.00     0.058 C 
ATOM     34 CL   UNL d   1       6.137  -1.791   4.409  0.00  0.00    -0.082 Cl
ATOM     35  C   UNL d   1       4.477  -1.534   2.272  0.00  0.00     0.055 C 
ENDBRANCH  11  28
TORSDOF 7
