REMARK  11 active torsions:
REMARK  status: ('A' for Active; 'I' for Inactive)
REMARK    1  A    between atoms: C_2  and  C_30 
REMARK    2  A    between atoms: C_2  and  N_3 
REMARK       I    between atoms: N_3  and  C_4 
REMARK    3  A    between atoms: C_4  and  C_6 
REMARK       I    between atoms: N_9  and  C_10 
REMARK    4  A    between atoms: C_12  and  C_10 
REMARK    5  A    between atoms: C_12  and  N_20 
REMARK    6  A    between atoms: C_12  and  C_13 
REMARK    7  A    between atoms: C_13  and  C_14 
REMARK       I    between atoms: N_20  and  C_21 
REMARK    8  A    between atoms: C_21  and  O_23 
REMARK    9  A    between atoms: O_23  and  C_24 
REMARK       I    between atoms: C_30  and  N_32 
REMARK   10  A    between atoms: N_32  and  C_33 
REMARK   11  A    between atoms: C_33  and  C_34 
ROOT
ATOM      1  C   UNL d   1      -3.338  -5.882   1.702  0.00  0.00     0.081 C 
ATOM      2  C   UNL d   1      -4.900  -5.829   1.732  0.00  0.00     0.034 C 
ATOM      3  C   UNL d   1      -5.588  -4.985   0.676  0.00  0.00     0.126 C 
ATOM      4  N   UNL d   1      -5.210  -3.662   0.997  0.00  0.00    -0.350 N 
ATOM      5  C   UNL d   1      -6.163  -2.673   1.082  0.00  0.00     0.243 C 
ATOM      6  O   UNL d   1      -7.339  -3.071   1.113  0.00  0.00    -0.271 OA
ATOM      7  C   UNL d   1      -3.799  -3.621   0.951  0.00  0.00     0.126 C 
ATOM      8  C   UNL d   1      -2.913  -4.450   1.805  0.00  0.00     0.034 C 
ENDROOT
BRANCH   5   9
ATOM      9  C   UNL d   1      -5.875  -1.095   1.082  0.00  0.00     0.183 C 
BRANCH   9  10
ATOM     10  N   UNL d   1      -6.912  -0.485   1.994  0.00  0.00    -0.323 N 
ATOM     11  C   UNL d   1      -8.247  -0.542   1.654  0.00  0.00     0.362 C 
ATOM     12  O   UNL d   1      -8.613  -0.921   0.523  0.00  0.00    -0.238 OA
ATOM     13  H   UNL d   1      -6.684  -0.122   2.912  0.00  0.00     0.165 HD
BRANCH  11  14
ATOM     14  O   UNL d   1      -9.113  -0.147   2.634  0.00  0.00    -0.294 OA
BRANCH  14  15
ATOM     15  C   UNL d   1     -10.556  -0.284   2.368  0.00  0.00     0.061 C 
ATOM     16  C   UNL d   1     -10.980   0.474   1.099  0.00  0.00     0.046 C 
ATOM     17  C   UNL d   1     -10.957  -1.767   2.283  0.00  0.00     0.046 C 
ATOM     18  C   UNL d   1     -11.352   0.334   3.540  0.00  0.00     0.046 C 
ENDBRANCH  14  15
ENDBRANCH  11  14
ENDBRANCH   9  10
BRANCH   9  19
ATOM     19  C   UNL d   1      -4.435  -0.575   1.375  0.00  0.00     0.073 C 
BRANCH  19  20
ATOM     20  C   UNL d   1      -3.240  -0.926   0.383  0.00  0.00    -0.056 C 
ATOM     21  C   UNL d   1      -3.431  -1.680  -0.819  0.00  0.00     0.007 C 
ATOM     22  C   UNL d   1      -2.432  -2.612  -1.260  0.00  0.00     0.001 C 
ATOM     23  C   UNL d   1      -1.230  -2.759  -0.560  0.00  0.00     0.000 C 
ATOM     24  C   UNL d   1      -0.982  -1.934   0.539  0.00  0.00     0.001 C 
ATOM     25  C   UNL d   1      -1.959  -1.020   1.000  0.00  0.00     0.007 C 
ENDBRANCH  19  20
ENDBRANCH   9  19
ENDBRANCH   5   9
BRANCH   1  26
ATOM     26  C   UNL d   1      -2.859  -7.213   1.111  0.00  0.00     0.222 C 
ATOM     27  N   UNL d   1      -3.817  -8.185   1.288  0.00  0.00    -0.348 N 
ATOM     28  H   UNL d   1      -4.730  -8.012   1.650  0.00  0.00     0.163 HD
ATOM     29  O   UNL d   1      -1.708  -7.478   0.790  0.00  0.00    -0.273 OA
BRANCH  27  30
ATOM     30  C   UNL d   1      -3.772  -9.573   1.008  0.00  0.00     0.172 C 
ATOM     31  C   UNL d   1      -4.206 -10.247   2.308  0.00  0.00     0.042 C 
BRANCH  30  32
ATOM     32  C   UNL d   1      -4.807  -9.830  -0.113  0.00  0.00     0.240 C 
ATOM     33  O   UNL d   1      -5.532  -8.969  -0.606  0.00  0.00    -0.271 OA
ATOM     34  N   UNL d   1      -4.854 -11.147  -0.478  0.00  0.00    -0.355 N 
ATOM     35  H   UNL d   1      -4.283 -11.793   0.041  0.00  0.00     0.162 HD
BRANCH  34  36
ATOM     36  C   UNL d   1      -5.705 -11.634  -1.533  0.00  0.00     0.161 C 
BRANCH  36  37
ATOM     37  C   UNL d   1      -5.523 -13.112  -1.790  0.00  0.00    -0.040 A 
ATOM     38  C   UNL d   1      -4.324 -13.786  -1.493  0.00  0.00     0.012 A 
ATOM     39  C   UNL d   1      -4.133 -15.110  -1.878  0.00  0.00     0.043 A 
ATOM     40  C   UNL d   1      -5.164 -15.793  -2.504  0.00  0.00     0.116 A 
ATOM     41  F   UNL d   1      -4.998 -17.083  -2.817  0.00  0.00    -0.206 F 
ATOM     42  C   UNL d   1      -6.364 -15.159  -2.799  0.00  0.00     0.043 A 
ATOM     43  C   UNL d   1      -6.541 -13.818  -2.453  0.00  0.00     0.012 A 
ENDBRANCH  36  37
ENDBRANCH  34  36
ENDBRANCH  30  32
ENDBRANCH  27  30
ENDBRANCH   1  26
TORSDOF 11
