REMARK  7 active torsions:
REMARK  status: ('A' for Active; 'I' for Inactive)
REMARK    1  A    between atoms: C_4  and  C_5 
REMARK    2  A    between atoms: C_5  and  C_6 
REMARK    3  A    between atoms: C_6  and  C_7 
REMARK    4  A    between atoms: C_7  and  N_8 
REMARK       I    between atoms: N_8  and  C_9 
REMARK    5  A    between atoms: C_9  and  C_11 
REMARK    6  A    between atoms: C_15  and  N_16 
REMARK    7  A    between atoms: N_16  and  C_17 
ROOT
ATOM      1  N   UNL d   1       2.945   0.053  -0.003  0.00  0.00    -0.191 NA
ATOM      2  C   UNL d   1       1.789   0.085  -0.002  0.00  0.00     0.105 C 
ATOM      3  C   UNL d   1       0.366   0.225   0.001  0.00  0.00     0.115 A 
ATOM      4  C   UNL d   1      -0.424   1.406   0.014  0.00  0.00     0.079 A 
ATOM      5  N   UNL d   1      -1.735   1.108   0.003  0.00  0.00    -0.176 NA
ATOM      6  N   UNL d   1      -1.762  -0.244  -0.010  0.00  0.00    -0.261 N 
ATOM      7  C   UNL d   1      -0.519  -0.818  -0.002  0.00  0.00     0.138 A 
ATOM      8  N   UNL d   1      -0.313  -2.147   0.003  0.00  0.00    -0.383 N 
ATOM      9  H   UNL d   1      -2.658  -0.718  -0.020  0.00  0.00     0.191 HD
ATOM     10  H   UNL d   1      -1.045  -2.849  -0.003  0.00  0.00     0.157 HD
ATOM     11  H   UNL d   1       0.632  -2.531   0.033  0.00  0.00     0.157 HD
ENDROOT
BRANCH   4  12
ATOM     12  C   UNL d   1       0.035   2.842   0.041  0.00  0.00     0.064 C 
BRANCH  12  13
ATOM     13  C   UNL d   1       1.563   2.950   0.064  0.00  0.00     0.026 C 
BRANCH  13  14
ATOM     14  C   UNL d   1       2.105   4.357   0.096  0.00  0.00     0.123 C 
BRANCH  14  15
ATOM     15  N   UNL d   1       3.561   4.374   0.132  0.00  0.00    -0.356 N 
ATOM     16  C   UNL d   1       4.254   5.576   0.205  0.00  0.00     0.258 C 
ATOM     17  O   UNL d   1       3.653   6.647   0.256  0.00  0.00    -0.267 OA
ATOM     18  H   UNL d   1       4.082   3.502   0.095  0.00  0.00     0.162 HD
BRANCH  16  19
ATOM     19  C   UNL d   1       5.715   5.486   0.220  0.00  0.00     0.076 A 
ATOM     20  C   UNL d   1       6.641   6.236   0.947  0.00  0.00     0.046 A 
ATOM     21  C   UNL d   1       7.991   5.859   0.597  0.00  0.00     0.045 A 
ATOM     22  S   UNL d   1       9.674   6.231   1.006  0.00  0.00    -0.049 SA
ATOM     23  C   UNL d   1       8.016   4.907  -0.376  0.00  0.00     0.118 A 
ATOM     24  C   UNL d   1      10.207   5.058  -0.193  0.00  0.00     0.173 A 
ATOM     25  N   UNL d   1       9.216   4.472  -0.821  0.00  0.00    -0.216 NA
ATOM     26  S   UNL d   1       6.451   4.400  -0.885  0.00  0.00    -0.064 SA
BRANCH  24  27
ATOM     27  N   UNL d   1      11.515   4.751  -0.432  0.00  0.00    -0.335 N 
ATOM     28  H   UNL d   1      12.266   5.161   0.107  0.00  0.00     0.168 HD
BRANCH  27  29
ATOM     29  C   UNL d   1      11.928   3.781  -1.381  0.00  0.00     0.034 A 
ATOM     30  C   UNL d   1      12.657   2.649  -0.986  0.00  0.00     0.029 A 
ATOM     31  C   UNL d   1      13.072   1.688  -1.924  0.00  0.00     0.002 A 
ATOM     32  C   UNL d   1      12.697   1.802  -3.260  0.00  0.00     0.000 A 
ATOM     33  C   UNL d   1      11.989   2.925  -3.674  0.00  0.00     0.002 A 
ATOM     34  C   UNL d   1      11.617   3.908  -2.744  0.00  0.00     0.029 A 
ENDBRANCH  27  29
ENDBRANCH  24  27
ENDBRANCH  16  19
ENDBRANCH  14  15
ENDBRANCH  13  14
ENDBRANCH  12  13
ENDBRANCH   4  12
TORSDOF 7
