REMARK  9 active torsions:
REMARK  status: ('A' for Active; 'I' for Inactive)
REMARK    1  A    between atoms: O_2  and  C_3 
REMARK    2  A    between atoms: C_6  and  C_7 
REMARK       I    between atoms: C_7  and  N_9 
REMARK    3  A    between atoms: N_9  and  C_10 
REMARK    4  A    between atoms: C_10  and  N_12 
REMARK    5  A    between atoms: N_12  and  C_13 
REMARK    6  A    between atoms: C_16  and  N_17 
REMARK    7  A    between atoms: N_20  and  C_21 
REMARK    8  A    between atoms: C_21  and  C_22 
REMARK    9  A    between atoms: C_33  and  O_34 
ROOT
ATOM      1  C   UNL d   1       5.879  -0.325   9.764  0.00  0.00     0.034 A 
ATOM      2  C   UNL d   1       6.062  -1.412  10.620  0.00  0.00     0.032 A 
ATOM      3  C   UNL d   1       6.645  -1.224  11.907  0.00  0.00     0.031 A 
ATOM      4  C   UNL d   1       7.077   0.031  12.383  0.00  0.00     0.030 A 
ATOM      5  C   UNL d   1       6.866   1.105  11.522  0.00  0.00     0.031 A 
ATOM      6  C   UNL d   1       6.261   0.928  10.259  0.00  0.00     0.032 A 
ENDROOT
BRANCH   1   7
ATOM      7  N   UNL d   1       5.313  -0.456   8.435  0.00  0.00    -0.333 N 
ATOM      8  H   UNL d   1       4.642  -1.207   8.315  0.00  0.00     0.168 HD
BRANCH   7   9
ATOM      9  C   UNL d   1       5.864   0.162   7.280  0.00  0.00     0.179 C 
ATOM     10  S   UNL d   1       7.357   0.966   7.314  0.00  0.00    -0.040 SA
BRANCH   9  11
ATOM     11  N   UNL d   1       5.095   0.018   6.095  0.00  0.00    -0.299 N 
ATOM     12  C   UNL d   1       5.431   0.586   4.833  0.00  0.00     0.260 C 
ATOM     13  O   UNL d   1       6.380   1.333   4.657  0.00  0.00    -0.267 OA
ATOM     14  H   UNL d   1       4.254  -0.545   6.104  0.00  0.00     0.171 HD
BRANCH  12  15
ATOM     15  C   UNL d   1       4.593   0.366   3.607  0.00  0.00     0.065 A 
ATOM     16  C   UNL d   1       5.011   1.054   2.438  0.00  0.00     0.022 A 
ATOM     17  C   UNL d   1       4.253   1.046   1.265  0.00  0.00     0.038 A 
ATOM     18  C   UNL d   1       3.091   0.293   1.209  0.00  0.00     0.070 A 
ATOM     19  C   UNL d   1       2.699  -0.436   2.336  0.00  0.00     0.074 A 
ATOM     20  C   UNL d   1       3.438  -0.411   3.539  0.00  0.00     0.086 A 
BRANCH  18  21
ATOM     21  O   UNL d   1       2.468   0.236  -0.006  0.00  0.00    -0.356 OA
ATOM     22  C   UNL d   1       1.047   0.137   0.019  0.00  0.00     0.210 C 
ENDBRANCH  18  21
BRANCH  20  23
ATOM     23  O   UNL d   1       3.097  -1.131   4.656  0.00  0.00    -0.355 OA
ATOM     24  C   UNL d   1       1.952  -1.968   4.526  0.00  0.00     0.210 C 
ENDBRANCH  20  23
ENDBRANCH  12  15
ENDBRANCH   9  11
ENDBRANCH   7   9
ENDBRANCH   1   7
BRANCH   4  25
ATOM     25  N   UNL d   1       7.649   0.150  13.640  0.00  0.00    -0.378 N 
ATOM     26  C   UNL d   1       7.323   1.211  14.598  0.00  0.00     0.150 C 
ATOM     27  C   UNL d   1       8.418   2.308  14.674  0.00  0.00     0.255 C 
ATOM     28  N   UNL d   1       9.815   1.704  14.946  0.00  0.00    -0.064 N 
ATOM     29  C   UNL d   1      10.049   0.519  14.008  0.00  0.00     0.255 C 
ATOM     30  H   UNL d   1       9.828   1.350  15.910  0.00  0.00     0.280 HD
ATOM     31  C   UNL d   1       8.917  -0.516  13.923  0.00  0.00     0.150 C 
BRANCH  28  32
ATOM     32  C   UNL d   1      10.940   2.765  14.854  0.00  0.00     0.275 C 
BRANCH  32  33
ATOM     33  C   UNL d   1      12.360   2.316  15.169  0.00  0.00    -0.011 C 
ATOM     34  C   UNL d   1      13.060   2.897  16.252  0.00  0.00     0.010 C 
ATOM     35  C   UNL d   1      14.404   2.571  16.501  0.00  0.00     0.001 C 
ATOM     36  C   UNL d   1      15.019   1.541  15.800  0.00  0.00     0.002 C 
ATOM     37  C   UNL d   1      14.346   0.938  14.754  0.00  0.00     0.024 C 
ATOM     38  C   UNL d   1      13.098   1.420  14.365  0.00  0.00     0.042 C 
ATOM     39 CL   UNL d   1      12.685   0.993  12.739  0.00  0.00    -0.084 Cl
ENDBRANCH  32  33
ENDBRANCH  28  32
ENDBRANCH   4  25
TORSDOF 9
