@<TRIPOS>MOLECULE
*****
 66 68 0 0 0
SMALL
GASTEIGER

@<TRIPOS>ATOM
      1 C           2.9883   -0.0338    0.2052 C.3     1  UNL1       -0.0397
      2 C           1.4963   -0.0530    0.2778 C.ar    1  UNL1       -0.0487
      3 C           0.9216   -1.2984    0.0799 C.ar    1  UNL1       -0.0585
      4 C          -0.4053   -1.3454   -0.1389 C.ar    1  UNL1       -0.0568
      5 C          -1.0737   -0.1511   -0.3660 C.ar    1  UNL1       -0.0290
      6 C          -2.3880   -0.3856   -0.9125 C.3     1  UNL1       -0.0379
      7 C          -0.6750    1.1174    0.0802 C.ar    1  UNL1        0.0409
      8 N          -1.6286    2.3208    0.0712 N.am    1  UNL1       -0.2506
      9 C          -3.2149    2.2023   -0.0978 C.2     1  UNL1        0.2617
     10 O          -3.8107    2.9893   -0.8422 O.2     1  UNL1       -0.2689
     11 C          -4.1488    1.1501    0.5403 C.ar    1  UNL1        0.1156
     12 S          -5.5178    0.6478   -0.4667 S.2     1  UNL1        0.0190
     13 N          -5.5381   -0.9455    0.0212 N.ar    1  UNL1       -0.2031
     14 C          -4.7056   -1.0886    1.0567 C.ar    1  UNL1        0.1554
     15 C          -4.3083   -2.4415    1.5355 C.2     1  UNL1        0.2624
     16 N          -5.1017   -3.4918    1.1217 N.am    1  UNL1       -0.3240
     17 O          -3.3326   -2.6547    2.2045 O.2     1  UNL1       -0.2687
     18 C          -3.9949    0.1347    1.4970 C.ar    1  UNL1        0.0765
     19 N          -2.9265    0.0568    2.3512 N.pl3   1  UNL1       -0.3551
     20 C          -0.8148    3.7283   -0.1408 C.3     1  UNL1        0.1323
     21 C           0.1168    3.8565   -1.4647 C.2     1  UNL1        0.2385
     22 O           0.0285    4.8057   -2.2496 O.2     1  UNL1       -0.2734
     23 N           1.1685    2.9781   -1.6502 N.am    1  UNL1       -0.3135
     24 C           2.0269    3.0006   -2.8054 C.3     1  UNL1        0.0119
     25 C           3.0240    1.8375   -2.7724 C.3     1  UNL1       -0.0350
     26 C           3.9567    1.8273   -3.9783 C.3     1  UNL1       -0.0453
     27 C           4.7639    3.1219   -3.9973 C.3     1  UNL1       -0.0626
     28 C           4.9068    0.6288   -3.9323 C.3     1  UNL1       -0.0626
     29 C          -1.5995    5.0610    0.0466 C.ar    1  UNL1       -0.0177
     30 C          -2.9435    4.9913    0.3338 C.ar    1  UNL1       -0.0536
     31 C          -3.8816    5.9686    0.0810 C.ar    1  UNL1       -0.0261
     32 C          -3.4066    7.2377   -0.0459 C.ar    1  UNL1        0.1234
     33 F          -4.2802    8.2509   -0.0508 F       1  UNL1       -0.2055
     34 C          -2.0276    7.4594   -0.0258 C.ar    1  UNL1       -0.0261
     35 C          -1.1142    6.3726   -0.0287 C.ar    1  UNL1       -0.0536
     36 C           0.6813    1.1166    0.4575 C.ar    1  UNL1       -0.0371
     37 H           3.3874   -1.0548    0.1693 H       1  UNL1        0.0278
     38 H           3.4093    0.5031    1.0471 H       1  UNL1        0.0278
     39 H           3.3144    0.4070   -0.7293 H       1  UNL1        0.0278
     40 H           1.4761   -2.2284    0.0494 H       1  UNL1        0.0620
     41 H          -0.9466   -2.2861   -0.1915 H       1  UNL1        0.0621
     42 H          -2.8477   -1.3533   -0.7483 H       1  UNL1        0.0278
     43 H          -2.7541    0.2348   -1.7216 H       1  UNL1        0.0278
     44 H          -2.6715    0.0639   -0.0259 H       1  UNL1        0.0278
     45 H          -5.8865   -3.3515    0.5069 H       1  UNL1        0.1453
     46 H          -4.9480   -4.3751    1.5859 H       1  UNL1        0.1453
     47 H          -2.5418   -0.8978    2.4653 H       1  UNL1        0.1424
     48 H          -2.1297    0.6654    2.1760 H       1  UNL1        0.1424
     49 H          -0.1303    3.7420    0.7226 H       1  UNL1        0.0651
     50 H           1.2205    2.1022   -1.1892 H       1  UNL1        0.1487
     51 H           2.5398    3.9623   -2.7736 H       1  UNL1        0.0462
     52 H           1.3996    2.9375   -3.6968 H       1  UNL1        0.0462
     53 H           2.4859    0.8795   -2.7159 H       1  UNL1        0.0283
     54 H           3.6387    1.9313   -1.8697 H       1  UNL1        0.0283
     55 H           3.3469    1.7531   -4.8861 H       1  UNL1        0.0296
     56 H           5.3666    3.2114   -3.0856 H       1  UNL1        0.0232
     57 H           4.1150    3.9994   -4.0521 H       1  UNL1        0.0232
     58 H           5.4220    3.1598   -4.8654 H       1  UNL1        0.0232
     59 H           5.5436    0.6556   -3.0406 H       1  UNL1        0.0232
     60 H           5.5596    0.6330   -4.8116 H       1  UNL1        0.0232
     61 H           4.3583   -0.3192   -3.9251 H       1  UNL1        0.0232
     62 H          -3.2961    4.1204    0.8370 H       1  UNL1        0.0622
     63 H          -4.9336    5.7082    0.0989 H       1  UNL1        0.0646
     64 H          -1.6798    8.4854   -0.0193 H       1  UNL1        0.0646
     65 H          -0.0466    6.5864   -0.0731 H       1  UNL1        0.0622
     66 H           1.1978    2.0284    0.7591 H       1  UNL1        0.0639
@<TRIPOS>BOND
     1     1     2    1
     2     2     3   ar
     3     3     4   ar
     4     4     5   ar
     5     5     6    1
     6     5     7   ar
     7     7     8    1
     8     8     9   am
     9     9    10    2
    10     9    11    1
    11    11    12   ar
    12    12    13   ar
    13    13    14   ar
    14    14    15    1
    15    15    16   am
    16    15    17    2
    17    14    18   ar
    18    11    18   ar
    19    18    19    1
    20     8    20    1
    21    20    21    1
    22    21    22    2
    23    21    23   am
    24    23    24    1
    25    24    25    1
    26    25    26    1
    27    26    27    1
    28    26    28    1
    29    20    29    1
    30    29    30   ar
    31    30    31   ar
    32    31    32   ar
    33    32    33    1
    34    32    34   ar
    35    34    35   ar
    36    29    35   ar
    37     7    36   ar
    38     2    36   ar
    39     1    37    1
    40     1    38    1
    41     1    39    1
    42     3    40    1
    43     4    41    1
    44     6    42    1
    45     6    43    1
    46     6    44    1
    47    16    45    1
    48    16    46    1
    49    19    47    1
    50    19    48    1
    51    20    49    1
    52    23    50    1
    53    24    51    1
    54    24    52    1
    55    25    53    1
    56    25    54    1
    57    26    55    1
    58    27    56    1
    59    27    57    1
    60    27    58    1
    61    28    59    1
    62    28    60    1
    63    28    61    1
    64    30    62    1
    65    31    63    1
    66    34    64    1
    67    35    65    1
    68    36    66    1
