REMARK  9 active torsions:
REMARK  status: ('A' for Active; 'I' for Inactive)
REMARK    1  A    between atoms: C_2  and  C_3 
REMARK    2  A    between atoms: C_3  and  C_4 
REMARK    3  A    between atoms: C_4  and  C_5 
REMARK       I    between atoms: C_5  and  N_7 
REMARK    4  A    between atoms: N_7  and  C_8 
REMARK    5  A    between atoms: C_11  and  N_12 
REMARK    6  A    between atoms: N_12  and  C_13 
REMARK    7  A    between atoms: C_13  and  N_15 
REMARK       I    between atoms: N_15  and  C_16 
REMARK    8  A    between atoms: C_16  and  C_18 
REMARK    9  A    between atoms: C_28  and  O_29 
ROOT
ATOM      1  N   UNL d   1       8.483  -8.330   1.819  0.00  0.00    -0.333 N 
ATOM      2  H   UNL d   1       9.285  -8.405   2.438  0.00  0.00     0.168 HD
ENDROOT
BRANCH   1   3
ATOM      3  C   UNL d   1       8.029  -6.947   1.599  0.00  0.00     0.037 A 
ATOM      4  C   UNL d   1       8.635  -5.822   2.169  0.00  0.00     0.032 A 
ATOM      5  C   UNL d   1       8.062  -4.514   1.997  0.00  0.00     0.035 A 
ATOM      6  C   UNL d   1       6.881  -4.291   1.250  0.00  0.00     0.068 A 
ATOM      7  C   UNL d   1       6.321  -5.386   0.617  0.00  0.00     0.097 A 
ATOM      8  C   UNL d   1       6.935  -6.633   0.795  0.00  0.00     0.068 A 
BRANCH   6   9
ATOM      9  N   UNL d   1       6.395  -2.973   1.066  0.00  0.00    -0.325 N 
ATOM     10  C   UNL d   1       5.088  -2.613   1.356  0.00  0.00     0.222 C 
ATOM     11  O   UNL d   1       4.368  -3.245   2.133  0.00  0.00    -0.273 OA
ATOM     12  H   UNL d   1       7.059  -2.262   0.792  0.00  0.00     0.169 HD
BRANCH  10  13
ATOM     13  C   UNL d   1       4.565  -1.407   0.570  0.00  0.00     0.103 C 
BRANCH  13  14
ATOM     14  C   UNL d   1       3.028  -1.425   0.436  0.00  0.00     0.009 C 
BRANCH  14  15
ATOM     15  C   UNL d   1       2.472  -0.070   0.001  0.00  0.00    -0.004 C 
ATOM     16  C   UNL d   1       0.950  -0.076  -0.013  0.00  0.00     0.005 C 
ENDBRANCH  14  15
ENDBRANCH  13  14
ENDBRANCH  10  13
ENDBRANCH   6   9
BRANCH   7  17
ATOM     17  O   UNL d   1       5.287  -5.533  -0.268  0.00  0.00    -0.354 OA
ATOM     18  C   UNL d   1       4.588  -4.428  -0.772  0.00  0.00     0.210 C 
ENDBRANCH   7  17
ENDBRANCH   1   3
BRANCH   1  19
ATOM     19  C   UNL d   1       7.839  -9.534   1.373  0.00  0.00     0.179 C 
ATOM     20  S   UNL d   1       6.414  -9.612   0.465  0.00  0.00    -0.040 SA
BRANCH  19  21
ATOM     21  N   UNL d   1       8.470 -10.754   1.745  0.00  0.00    -0.299 N 
ATOM     22  C   UNL d   1       8.012 -12.022   1.317  0.00  0.00     0.257 C 
ATOM     23  O   UNL d   1       7.052 -12.241   0.560  0.00  0.00    -0.267 OA
ATOM     24  H   UNL d   1       9.288 -10.728   2.338  0.00  0.00     0.171 HD
BRANCH  22  25
ATOM     25  C   UNL d   1       8.620 -13.300   1.715  0.00  0.00     0.034 A 
ATOM     26  C   UNL d   1       8.591 -14.322   0.701  0.00  0.00     0.019 A 
ATOM     27  C   UNL d   1       8.832 -15.682   0.937  0.00  0.00     0.036 A 
ATOM     28  C   UNL d   1       9.209 -15.989   2.257  0.00  0.00     0.096 A 
ATOM     29  N   UNL d   1       9.574 -17.201   2.697  0.00  0.00    -0.191 NA
ATOM     30  C   UNL d   1       9.243 -14.923   3.332  0.00  0.00     0.097 A 
ATOM     31  S   UNL d   1       9.942 -17.022   4.305  0.00  0.00     0.117 SA
ATOM     32  N   UNL d   1       9.597 -15.410   4.531  0.00  0.00    -0.191 NA
ATOM     33  C   UNL d   1       8.914 -13.570   3.055  0.00  0.00     0.052 A 
ENDBRANCH  22  25
ENDBRANCH  19  21
ENDBRANCH   1  19
TORSDOF 9
