REMARK  5 active torsions:
REMARK  status: ('A' for Active; 'I' for Inactive)
REMARK    1  A    between atoms: C_2  and  C_18 
REMARK    2  A    between atoms: N_3  and  N_4 
REMARK       I    between atoms: N_4  and  C_5 
REMARK    3  A    between atoms: C_5  and  C_7 
REMARK    4  A    between atoms: C_9  and  C_10 
REMARK    5  A    between atoms: C_21  and  N_22 
ROOT
ATOM      1  N   UNL d   1       2.542   2.236  -1.102  0.00  0.00    -0.241 N 
ATOM      2  C   UNL d   1       3.252   3.248  -1.747  0.00  0.00     0.289 C 
ATOM      3  O   UNL d   1       4.477   3.253  -1.903  0.00  0.00    -0.264 OA
ATOM      4  H   UNL d   1       1.534   2.264  -1.149  0.00  0.00     0.192 HD
ENDROOT
BRANCH   1   5
ATOM      5  N   UNL d   1       3.180   1.168  -0.511  0.00  0.00    -0.176 NA
ATOM      6  C   UNL d   1       2.505   0.177   0.011  0.00  0.00     0.061 C 
ATOM      7  C   UNL d   1       0.993   0.069   0.052  0.00  0.00     0.073 C 
BRANCH   6   8
ATOM      8  C   UNL d   1       3.277  -0.971   0.628  0.00  0.00    -0.010 A 
ATOM      9  C   UNL d   1       4.459  -0.708   1.327  0.00  0.00     0.015 A 
ATOM     10  C   UNL d   1       5.294  -1.761   1.743  0.00  0.00     0.024 A 
ATOM     11  C   UNL d   1       4.919  -3.096   1.573  0.00  0.00     0.005 A 
ATOM     12  C   UNL d   1       3.733  -3.356   0.883  0.00  0.00     0.024 A 
ATOM     13  C   UNL d   1       2.906  -2.308   0.431  0.00  0.00     0.015 A 
BRANCH  11  14
ATOM     14  N   UNL d   1       5.818  -4.126   1.868  0.00  0.00    -0.303 NA
ATOM     15  H   UNL d   1       6.510  -3.905   2.577  0.00  0.00     0.124 HD
ATOM     16  H   UNL d   1       5.410  -5.047   1.993  0.00  0.00     0.124 HD
ENDBRANCH  11  14
ENDBRANCH   6   8
ENDBRANCH   1   5
BRANCH   2  17
ATOM     17  C   UNL d   1       2.428   4.326  -2.253  0.00  0.00     0.121 A 
ATOM     18  C   UNL d   1       1.313   4.942  -1.716  0.00  0.00     0.071 A 
ATOM     19  C   UNL d   1       0.970   6.000  -2.598  0.00  0.00     0.089 A 
ATOM     20  N   UNL d   1       1.791   6.011  -3.658  0.00  0.00    -0.174 NA
ATOM     21  N   UNL d   1       2.689   5.036  -3.397  0.00  0.00    -0.272 N 
ATOM     22  H   UNL d   1       3.452   4.895  -4.056  0.00  0.00     0.189 HD
BRANCH  19  23
ATOM     23  C   UNL d   1      -0.084   6.994  -2.402  0.00  0.00    -0.006 A 
ATOM     24  C   UNL d   1      -1.092   7.181  -3.355  0.00  0.00     0.014 A 
ATOM     25  C   UNL d   1      -2.060   8.176  -3.173  0.00  0.00     0.001 A 
ATOM     26  C   UNL d   1      -2.064   8.948  -2.011  0.00  0.00     0.000 A 
ATOM     27  C   UNL d   1      -1.081   8.751  -1.044  0.00  0.00     0.001 A 
ATOM     28  C   UNL d   1      -0.092   7.782  -1.241  0.00  0.00     0.014 A 
ENDBRANCH  19  23
ENDBRANCH   2  17
TORSDOF 5
