REMARK  7 active torsions:
REMARK  status: ('A' for Active; 'I' for Inactive)
REMARK    1  A    between atoms: C_6  and  O_7 
REMARK    2  A    between atoms: O_7  and  C_8 
REMARK    3  A    between atoms: C_8  and  C_9 
REMARK    4  A    between atoms: C_9  and  C_10 
REMARK    5  A    between atoms: C_10  and  C_11 
REMARK       I    between atoms: C_11  and  N_13 
REMARK    6  A    between atoms: N_13  and  N_14 
REMARK       I    between atoms: N_14  and  C_15 
REMARK       I    between atoms: C_15  and  N_17 
REMARK    7  A    between atoms: N_17  and  C_18 
ROOT
ATOM      1  C   UNL d   1      -2.361   7.402   0.070  0.00  0.00     0.236 C 
ATOM      2  O   UNL d   1      -3.580   7.225   0.063  0.00  0.00    -0.272 OA
ATOM      3  N   UNL d   1      -1.817   8.679   0.090  0.00  0.00    -0.266 N 
ATOM      4  H   UNL d   1      -0.818   8.885   0.092  0.00  0.00     0.190 HD
ENDROOT
BRANCH   1   5
ATOM      5  C   UNL d   1      -1.358   6.232   0.058  0.00  0.00     0.106 C 
BRANCH   5   6
ATOM      6  C   UNL d   1      -2.064   4.856   0.040  0.00  0.00     0.036 C 
BRANCH   6   7
ATOM      7  C   UNL d   1      -1.095   3.666   0.028  0.00  0.00     0.176 C 
BRANCH   7   8
ATOM      8  O   UNL d   1      -1.832   2.429   0.007  0.00  0.00    -0.351 OA
BRANCH   8   9
ATOM      9  C   UNL d   1      -1.087   1.272   0.003  0.00  0.00     0.069 A 
ATOM     10  C   UNL d   1      -1.800   0.068  -0.005  0.00  0.00     0.037 A 
ATOM     11  C   UNL d   1      -1.128  -1.161  -0.001  0.00  0.00     0.003 A 
ATOM     12  C   UNL d   1       0.266  -1.197   0.004  0.00  0.00     0.007 A 
ATOM     13  C   UNL d   1       0.993  -0.005   0.002  0.00  0.00    -0.059 A 
ATOM     14  C   UNL d   1       2.493  -0.006  -0.013  0.00  0.00     0.048 C 
ATOM     15  C   UNL d   1       0.309   1.221   0.004  0.00  0.00     0.043 A 
ENDBRANCH   8   9
ENDBRANCH   7   8
ENDBRANCH   6   7
ENDBRANCH   5   6
ENDBRANCH   1   5
BRANCH   3  16
ATOM     16  N   UNL d   1      -2.688   9.822   0.092  0.00  0.00    -0.249 N 
ATOM     17  C   UNL d   1      -2.138  11.091   0.146  0.00  0.00     0.335 C 
ATOM     18  O   UNL d   1      -0.918  11.257   0.203  0.00  0.00    -0.246 OA
ATOM     19  N   UNL d   1      -3.047  12.134   0.096  0.00  0.00    -0.338 N 
ATOM     20  H   UNL d   1      -4.036  11.930   0.116  0.00  0.00     0.164 HD
ATOM     21  H   UNL d   1      -3.685   9.626   0.090  0.00  0.00     0.192 HD
BRANCH  19  22
ATOM     22  C   UNL d   1      -2.626  13.550   0.111  0.00  0.00     0.078 C 
ATOM     23  C   UNL d   1      -1.779  13.893  -1.118  0.00  0.00     0.032 C 
ATOM     24  C   UNL d   1      -3.807  14.532   0.159  0.00  0.00     0.032 C 
ENDBRANCH  19  22
ENDBRANCH   3  16
TORSDOF 7
