@<TRIPOS>MOLECULE
*****
 54 55 0 0 0
SMALL
GASTEIGER

@<TRIPOS>ATOM
      1 C           0.9843    0.0882    0.0664 C.3     1  UNL1       -0.0307
      2 C           2.5007    0.0765    0.0744 C.3     1  UNL1        0.0868
      3 O           2.9075   -0.8412   -0.9440 O.3     1  UNL1       -0.4915
      4 C           4.2612   -0.9589   -1.1052 C.ar    1  UNL1        0.1326
      5 C           5.1325   -1.1294   -0.0100 C.ar    1  UNL1       -0.0181
      6 C           6.5035   -1.3349   -0.1985 C.ar    1  UNL1       -0.0443
      7 C           7.0128   -1.3854   -1.4871 C.ar    1  UNL1        0.0188
      8 BR          8.8629   -1.6870   -1.7477 Br      1  UNL1       -0.0503
      9 C           6.1591   -1.2240   -2.5803 C.ar    1  UNL1       -0.0321
     10 C           4.7647   -1.0102   -2.4100 C.ar    1  UNL1        0.0797
     11 C           3.9418   -0.8301   -3.6614 C.2     1  UNL1        0.2531
     12 O           4.5886   -0.8824   -4.7134 O.2     1  UNL1       -0.2697
     13 N           2.5433   -0.6052   -3.6187 N.am    1  UNL1       -0.2626
     14 C           1.6746   -0.4132   -4.7198 C.2     1  UNL1        0.1533
     15 S           2.1507   -0.4089   -6.3412 S.2     1  UNL1       -0.0170
     16 N           0.3193   -0.2058   -4.4036 N.am    1  UNL1       -0.2454
     17 N          -0.6379    0.0006   -5.4856 N.am    1  UNL1       -0.2323
     18 C          -1.9871    0.2180   -5.2294 C.2     1  UNL1        0.2667
     19 O          -2.4174    0.2258   -4.0752 O.2     1  UNL1       -0.2705
     20 C          -2.8883    0.4329   -6.4857 C.3     1  UNL1        0.1666
     21 O          -4.2254    0.7613   -6.0854 O.3     1  UNL1       -0.4827
     22 C          -5.1960    0.8352   -7.0473 C.ar    1  UNL1        0.1212
     23 C          -6.2270    1.7537   -6.8196 C.ar    1  UNL1       -0.0197
     24 C          -7.3289    1.8349   -7.6837 C.ar    1  UNL1       -0.0549
     25 C          -7.3814    1.0537   -8.8457 C.ar    1  UNL1       -0.0446
     26 C          -8.4816    1.2840   -9.8777 C.3     1  UNL1       -0.0215
     27 C          -8.4488    2.7390  -10.3721 C.3     1  UNL1       -0.0587
     28 C          -8.3642    0.3614  -11.0988 C.3     1  UNL1       -0.0587
     29 C          -6.3619    0.1079   -9.0357 C.ar    1  UNL1       -0.0549
     30 C          -5.2839   -0.0035   -8.1499 C.ar    1  UNL1       -0.0197
     31 H           0.5956    0.7789    0.8181 H       1  UNL1        0.0262
     32 H           0.5963   -0.9159    0.2708 H       1  UNL1        0.0262
     33 H           0.6045    0.3792   -0.9186 H       1  UNL1        0.0262
     34 H           2.8432   -0.2367    1.0649 H       1  UNL1        0.0694
     35 H           2.8843    1.0775   -0.1549 H       1  UNL1        0.0694
     36 H           4.7653   -1.1397    1.0122 H       1  UNL1        0.0655
     37 H           7.1578   -1.4705    0.6610 H       1  UNL1        0.0630
     38 H           6.5871   -1.2695   -3.5825 H       1  UNL1        0.0637
     39 H           2.1403   -0.6090   -2.6880 H       1  UNL1        0.1569
     40 H          -0.0858   -0.1931   -3.4682 H       1  UNL1        0.1718
     41 H          -0.2402   -0.0186   -6.4249 H       1  UNL1        0.1729
     42 H          -2.8534   -0.4843   -7.0846 H       1  UNL1        0.0795
     43 H          -2.4951    1.2703   -7.0746 H       1  UNL1        0.0795
     44 H          -6.1734    2.4278   -5.9682 H       1  UNL1        0.0654
     45 H          -8.1355    2.5282   -7.4491 H       1  UNL1        0.0622
     46 H          -9.4535    1.0936   -9.4018 H       1  UNL1        0.0343
     47 H          -7.4798    2.9739  -10.8284 H       1  UNL1        0.0235
     48 H          -8.6101    3.4532   -9.5578 H       1  UNL1        0.0235
     49 H          -9.2277    2.9189  -11.1207 H       1  UNL1        0.0235
     50 H          -7.4048    0.5137  -11.6098 H       1  UNL1        0.0235
     51 H          -9.1567    0.5502  -11.8281 H       1  UNL1        0.0235
     52 H          -8.4296   -0.6915  -10.8023 H       1  UNL1        0.0235
     53 H          -6.3755   -0.5711   -9.8838 H       1  UNL1        0.0622
     54 H          -4.5497   -0.7736   -8.3507 H       1  UNL1        0.0654
@<TRIPOS>BOND
     1     1     2    1
     2     2     3    1
     3     3     4    1
     4     4     5   ar
     5     5     6   ar
     6     6     7   ar
     7     7     8    1
     8     7     9   ar
     9     9    10   ar
    10     4    10   ar
    11    10    11    1
    12    11    12    2
    13    11    13   am
    14    13    14    1
    15    14    15    2
    16    14    16    1
    17    16    17    1
    18    17    18   am
    19    18    19    2
    20    18    20    1
    21    20    21    1
    22    21    22    1
    23    22    23   ar
    24    23    24   ar
    25    24    25   ar
    26    25    26    1
    27    26    27    1
    28    26    28    1
    29    25    29   ar
    30    29    30   ar
    31    22    30   ar
    32     1    31    1
    33     1    32    1
    34     1    33    1
    35     2    34    1
    36     2    35    1
    37     5    36    1
    38     6    37    1
    39     9    38    1
    40    13    39    1
    41    16    40    1
    42    17    41    1
    43    20    42    1
    44    20    43    1
    45    23    44    1
    46    24    45    1
    47    26    46    1
    48    27    47    1
    49    27    48    1
    50    27    49    1
    51    28    50    1
    52    28    51    1
    53    28    52    1
    54    29    53    1
    55    30    54    1
