REMARK  5 active torsions:
REMARK  status: ('A' for Active; 'I' for Inactive)
REMARK    1  A    between atoms: C_10  and  O_11 
REMARK    2  A    between atoms: C_13  and  C_14 
REMARK    3  A    between atoms: C_17  and  O_18 
REMARK    4  A    between atoms: O_18  and  C_19 
REMARK    5  A    between atoms: C_19  and  C_21 
ROOT
ATOM      1  C   UNL d   1       0.864  -0.009   0.107  0.00  0.00     0.270 C 
ATOM      2  N   UNL d   1       2.369  -0.113   0.021  0.00  0.00    -0.070 N 
ATOM      3  C   UNL d   1       2.902   0.127  -1.387  0.00  0.00     0.239 C 
ATOM      4  C   UNL d   1       2.276  -0.872  -2.359  0.00  0.00     0.068 C 
ATOM      5  C   UNL d   1       2.321  -2.268  -1.823  0.00  0.00    -0.024 A 
ATOM      6  C   UNL d   1       2.605  -2.526  -0.486  0.00  0.00     0.018 A 
ATOM      7  S   UNL d   1       2.595  -4.195  -0.137  0.00  0.00    -0.074 SA
ATOM      8  C   UNL d   1       2.212  -4.576  -1.749  0.00  0.00     0.087 A 
ATOM      9  C   UNL d   1       2.058  -3.465  -2.551  0.00  0.00     0.057 A 
ATOM     10  C   UNL d   1       1.735  -3.696  -3.953  0.00  0.00     0.173 C 
ATOM     11  N   UNL d   1       1.833  -4.836  -4.524  0.00  0.00    -0.235 NA
ATOM     12  C   UNL d   1       2.370  -5.924  -3.702  0.00  0.00     0.243 C 
ATOM     13  N   UNL d   1       2.109  -5.812  -2.271  0.00  0.00    -0.357 N 
ATOM     14  C   UNL d   1       2.869  -1.468   0.545  0.00  0.00     0.281 C 
ATOM     15  H   UNL d   1       2.761   0.619   0.627  0.00  0.00     0.279 HD
ATOM     16  H   UNL d   1       2.162  -6.672  -1.735  0.00  0.00     0.162 HD
ENDROOT
BRANCH  12  17
ATOM     17  C   UNL d   1       3.870  -6.082  -3.989  0.00  0.00    -0.014 A 
ATOM     18  C   UNL d   1       4.825  -5.082  -3.703  0.00  0.00     0.014 A 
ATOM     19  C   UNL d   1       6.165  -5.179  -4.133  0.00  0.00     0.038 A 
ATOM     20  C   UNL d   1       6.593  -6.329  -4.800  0.00  0.00     0.079 A 
ATOM     21  C   UNL d   1       5.654  -7.322  -5.074  0.00  0.00     0.038 A 
ATOM     22  C   UNL d   1       4.317  -7.206  -4.679  0.00  0.00     0.014 A 
BRANCH  20  23
ATOM     23  O   UNL d   1       7.980  -6.459  -5.149  0.00  0.00    -0.275 OA
BRANCH  23  24
ATOM     24  C   UNL d   1       8.542  -7.613  -5.759  0.00  0.00     0.305 C 
ATOM     25  O   UNL d   1       7.895  -8.603  -6.121  0.00  0.00    -0.258 OA
BRANCH  24  26
ATOM     26  C   UNL d   1       9.982  -7.555  -5.930  0.00  0.00     0.080 A 
ATOM     27  C   UNL d   1      10.739  -8.082  -6.972  0.00  0.00     0.025 A 
ATOM     28  C   UNL d   1      12.143  -8.036  -6.713  0.00  0.00     0.009 A 
ATOM     29  C   UNL d   1      12.409  -7.505  -5.472  0.00  0.00     0.050 A 
ATOM     30  S   UNL d   1      10.986  -7.013  -4.657  0.00  0.00    -0.096 SA
ENDBRANCH  24  26
ENDBRANCH  23  24
ENDBRANCH  20  23
ENDBRANCH  12  17
BRANCH  10  31
ATOM     31  O   UNL d   1       1.328  -2.653  -4.704  0.00  0.00    -0.344 OA
ATOM     32  H   UNL d   1       1.164  -1.847  -4.213  0.00  0.00     0.219 HD
ENDBRANCH  10  31
TORSDOF 5
