REMARK  6 active torsions:
REMARK  status: ('A' for Active; 'I' for Inactive)
REMARK    1  A    between atoms: C_3  and  O_2 
REMARK    2  A    between atoms: C_3  and  C_26 
REMARK    3  A    between atoms: C_3  and  C_4 
REMARK       I    between atoms: C_4  and  N_6 
REMARK    4  A    between atoms: N_6  and  C_7 
REMARK    5  A    between atoms: N_11  and  C_12 
REMARK    6  A    between atoms: C_15  and  C_16 
ROOT
ATOM      1  C   UNL d   1       1.988   1.858  -1.681  0.00  0.00     0.043 A 
ATOM      2  C   UNL d   1       2.745   2.886  -2.312  0.00  0.00     0.066 A 
ATOM      3  C   UNL d   1       2.302   3.259  -3.613  0.00  0.00     0.111 A 
ATOM      4  N   UNL d   1       2.823   4.120  -4.513  0.00  0.00    -0.147 NA
ATOM      5  N   UNL d   1       1.885   4.135  -5.500  0.00  0.00    -0.150 N 
ATOM      6  N   UNL d   1       0.835   3.299  -5.357  0.00  0.00    -0.147 NA
ATOM      7  C   UNL d   1       1.105   2.672  -4.206  0.00  0.00     0.110 A 
ATOM      8  C   UNL d   1       0.379   1.648  -3.582  0.00  0.00     0.045 A 
ATOM      9  C   UNL d   1       0.833   1.260  -2.301  0.00  0.00    -0.033 A 
ATOM     10  C   UNL d   1      -0.010   0.227  -1.584  0.00  0.00     0.050 C 
ENDROOT
BRANCH   1  11
ATOM     11  N   UNL d   1       2.370   1.397  -0.383  0.00  0.00    -0.324 N 
ATOM     12  C   UNL d   1       2.659   0.043  -0.209  0.00  0.00     0.255 C 
ATOM     13  O   UNL d   1       2.747  -0.728  -1.178  0.00  0.00    -0.270 OA
ATOM     14  H   UNL d   1       2.847   2.048   0.231  0.00  0.00     0.169 HD
BRANCH  12  15
ATOM     15  C   UNL d   1       2.946  -0.473   1.248  0.00  0.00     0.246 C 
BRANCH  15  16
ATOM     16  C   UNL d   1       4.472  -0.479   1.385  0.00  0.00    -0.020 C 
ATOM     17  C   UNL d   1       5.173   0.740   1.393  0.00  0.00     0.012 C 
ATOM     18  C   UNL d   1       6.549   0.762   1.164  0.00  0.00     0.024 C 
ATOM     19  C   UNL d   1       7.253  -0.435   1.065  0.00  0.00     0.034 C 
ATOM     20 CL   UNL d   1       8.940  -0.409   0.735  0.00  0.00    -0.084 Cl
ATOM     21  C   UNL d   1       6.594  -1.652   1.206  0.00  0.00     0.024 C 
ATOM     22  C   UNL d   1       5.203  -1.675   1.311  0.00  0.00     0.012 C 
ENDBRANCH  15  16
BRANCH  15  23
ATOM     23  O   UNL d   1       2.432  -1.750   1.662  0.00  0.00    -0.377 OA
ATOM     24  C   UNL d   1       1.686  -2.474   0.688  0.00  0.00     0.203 C 
ENDBRANCH  15  23
ENDBRANCH  12  15
ENDBRANCH   1  11
BRANCH   5  25
ATOM     25  C   UNL d   1       1.991   4.935  -6.666  0.00  0.00     0.079 A 
ATOM     26  C   UNL d   1       0.886   5.674  -7.112  0.00  0.00     0.034 A 
ATOM     27  C   UNL d   1       0.923   6.319  -8.356  0.00  0.00     0.010 A 
ATOM     28  C   UNL d   1       2.079   6.282  -9.152  0.00  0.00    -0.055 A 
ATOM     29  C   UNL d   1       3.206   5.614  -8.636  0.00  0.00     0.010 A 
ATOM     30  C   UNL d   1       3.160   4.918  -7.422  0.00  0.00     0.034 A 
BRANCH  28  31
ATOM     31  C   UNL d   1       2.064   6.902 -10.548  0.00  0.00     0.010 C 
ATOM     32  C   UNL d   1       1.720   8.395 -10.508  0.00  0.00     0.015 C 
ATOM     33  C   UNL d   1       3.383   6.714 -11.310  0.00  0.00     0.015 C 
ENDBRANCH  28  31
ENDBRANCH   5  25
TORSDOF 6
