@<TRIPOS>MOLECULE
*****
 64 67 0 0 0
SMALL
GASTEIGER

@<TRIPOS>ATOM
      1 C           0.9596    0.0388    0.0981 C.3     1  UNL1        0.0788
      2 O           2.3669    0.0163    0.3593 O.3     1  UNL1       -0.4951
      3 C           3.0965   -0.9563   -0.2624 C.ar    1  UNL1        0.1203
      4 C           4.2047   -1.5109    0.3782 C.ar    1  UNL1       -0.0167
      5 C           5.0326   -2.4909   -0.2592 C.ar    1  UNL1       -0.0197
      6 C           4.8247   -2.8506   -1.5865 C.ar    1  UNL1        0.1000
      7 N           5.3843   -4.0024   -2.2416 N.pl3   1  UNL1       -0.2450
      8 C           4.9644   -4.6397   -3.4310 C.2     1  UNL1        0.3842
      9 N           3.9672   -4.3799   -4.2323 N.am    1  UNL1        0.0006
     10 C           2.8613   -3.7958   -3.6729 C.2     1  UNL1        0.3406
     11 O           2.3592   -4.1905   -2.6428 O.2     1  UNL1       -0.2484
     12 C           2.0341   -2.8979   -4.5358 C.ar    1  UNL1        0.0579
     13 C           1.9677   -1.5029   -4.6512 C.ar    1  UNL1       -0.0480
     14 C           0.8058   -0.9191   -5.1461 C.ar    1  UNL1       -0.0592
     15 C          -0.2198   -1.7348   -5.6253 C.ar    1  UNL1       -0.0406
     16 C          -0.1575   -3.1352   -5.5508 C.ar    1  UNL1        0.0300
     17 N          -1.1523   -3.9966   -5.9480 N.pl3   1  UNL1       -0.3360
     18 C          -2.3741   -3.5178   -6.5616 C.3     1  UNL1        0.0004
     19 C          -1.0693   -5.4443   -5.7384 C.3     1  UNL1        0.0004
     20 C           0.9908   -3.6605   -4.9939 C.ar    1  UNL1       -0.0270
     21 N           5.7301   -5.7419   -3.8458 N.pl3   1  UNL1       -0.2767
     22 C           5.2562   -6.5480   -5.0043 C.3     1  UNL1        0.0684
     23 C           6.1083   -7.7691   -5.3184 C.3     1  UNL1        0.0059
     24 C           5.7891   -8.5639   -6.5663 C.2     1  UNL1        0.0106
     25 C           6.5565   -9.6041   -6.8992 C.ar    1  UNL1        0.0510
     26 C           7.6920  -10.1486   -6.2477 C.ar    1  UNL1       -0.0482
     27 C           8.3820  -11.1082   -6.8689 C.ar    1  UNL1       -0.0608
     28 C           7.9140  -11.6787   -8.1215 C.ar    1  UNL1       -0.0555
     29 C           6.8169  -11.2471   -8.7818 C.ar    1  UNL1        0.0098
     30 C           6.0591  -10.1256   -8.1771 C.ar    1  UNL1        0.2086
     31 N           5.0191   -9.4876   -8.5639 N.2     1  UNL1       -0.2369
     32 C           4.7080   -8.3733   -7.6007 C.3     1  UNL1        0.1661
     33 C           3.9716   -1.9744   -2.2292 C.ar    1  UNL1       -0.0197
     34 C           2.9459   -1.2625   -1.5826 C.ar    1  UNL1       -0.0167
     35 H           0.5507    0.9526    0.5458 H       1  UNL1        0.0660
     36 H           0.4931   -0.8179    0.5902 H       1  UNL1        0.0660
     37 H           0.6794    0.0679   -0.9618 H       1  UNL1        0.0660
     38 H           4.4158   -1.1927    1.3941 H       1  UNL1        0.0655
     39 H           5.8616   -2.9060    0.3018 H       1  UNL1        0.0653
     40 H           5.9935   -4.5302   -1.6334 H       1  UNL1        0.2646
     41 H           2.7289   -0.8131   -4.3031 H       1  UNL1        0.0626
     42 H           0.6660    0.1619   -5.1265 H       1  UNL1        0.0618
     43 H          -1.0747   -1.2163   -6.0428 H       1  UNL1        0.0636
     44 H          -2.4412   -2.4360   -6.6768 H       1  UNL1        0.0428
     45 H          -3.2315   -3.8245   -5.9577 H       1  UNL1        0.0428
     46 H          -2.4562   -3.9445   -7.5636 H       1  UNL1        0.0428
     47 H          -0.1795   -5.8287   -5.2360 H       1  UNL1        0.0428
     48 H          -1.0800   -5.9530   -6.7044 H       1  UNL1        0.0428
     49 H          -1.8981   -5.7837   -5.1140 H       1  UNL1        0.0428
     50 H           1.1132   -4.7137   -4.7948 H       1  UNL1        0.0644
     51 H           6.3267   -6.2158   -3.1767 H       1  UNL1        0.2577
     52 H           5.2776   -5.9016   -5.8867 H       1  UNL1        0.0658
     53 H           4.2259   -6.9001   -4.8567 H       1  UNL1        0.0658
     54 H           6.0595   -8.4673   -4.4708 H       1  UNL1        0.0343
     55 H           7.1554   -7.4449   -5.3950 H       1  UNL1        0.0343
     56 H           7.9965   -9.7548   -5.2851 H       1  UNL1        0.0626
     57 H           9.3045  -11.4702   -6.4232 H       1  UNL1        0.0618
     58 H           8.5046  -12.5168   -8.4886 H       1  UNL1        0.0620
     59 H           6.5184  -11.7141   -9.7136 H       1  UNL1        0.0683
     60 H           4.5040   -9.7380   -9.4090 H       1  UNL1        0.4459
     61 H           3.7013   -8.5282   -7.2030 H       1  UNL1        0.1077
     62 H           4.7803   -7.4245   -8.1419 H       1  UNL1        0.1077
     63 H           4.0463   -1.9276   -3.3012 H       1  UNL1        0.0653
     64 H           2.0839   -0.9156   -2.1389 H       1  UNL1        0.0655
@<TRIPOS>UNITY_ATOM_ATTR
31 1
charge 1
@<TRIPOS>BOND
     1     1     2    1
     2     2     3    1
     3     3     4   ar
     4     4     5   ar
     5     5     6   ar
     6     6     7    1
     7     7     8    1
     8     8     9    2
     9     9    10    1
    10    10    11    2
    11    10    12    1
    12    12    13   ar
    13    13    14   ar
    14    14    15   ar
    15    15    16   ar
    16    16    17    1
    17    17    18    1
    18    17    19    1
    19    16    20   ar
    20    12    20   ar
    21     8    21    1
    22    21    22    1
    23    22    23    1
    24    23    24    1
    25    24    25    2
    26    25    26   ar
    27    26    27   ar
    28    27    28   ar
    29    28    29   ar
    30    29    30   ar
    31    25    30   ar
    32    30    31    2
    33    31    32    1
    34    24    32    1
    35     6    33   ar
    36    33    34   ar
    37     3    34   ar
    38     1    35    1
    39     1    36    1
    40     1    37    1
    41     4    38    1
    42     5    39    1
    43     7    40    1
    44    13    41    1
    45    14    42    1
    46    15    43    1
    47    18    44    1
    48    18    45    1
    49    18    46    1
    50    19    47    1
    51    19    48    1
    52    19    49    1
    53    20    50    1
    54    21    51    1
    55    22    52    1
    56    22    53    1
    57    23    54    1
    58    23    55    1
    59    26    56    1
    60    27    57    1
    61    28    58    1
    62    29    59    1
    63    31    60    1
    64    32    61    1
    65    32    62    1
    66    33    63    1
    67    34    64    1
