@<TRIPOS>MOLECULE
*****
 46 47 0 0 0
SMALL
GASTEIGER

@<TRIPOS>ATOM
      1 O           1.1542   -0.0026    0.0866 O.2     1  UNL1       -0.2743
      2 C           2.3860    0.0263    0.0142 C.2     1  UNL1        0.2295
      3 C           3.0923    0.4879   -1.2423 C.3     1  UNL1        0.0336
      4 C           2.1347    0.9126   -2.3816 C.3     1  UNL1        0.0326
      5 C           2.9490    1.4038   -3.5701 C.2     1  UNL1        0.2177
      6 O           4.1697    1.5436   -3.4615 O.2     1  UNL1       -0.2755
      7 N           2.2385    1.7305   -4.7250 N.am    1  UNL1       -0.2843
      8 C           2.9385    2.1473   -5.9004 C.ar    1  UNL1        0.0519
      9 C           2.5493    3.3216   -6.5692 C.ar    1  UNL1       -0.0390
     10 C           3.3076    3.8080   -7.6504 C.ar    1  UNL1       -0.0599
     11 C           4.4349    3.1164   -8.0918 C.ar    1  UNL1       -0.0603
     12 C           4.7881    1.9183   -7.4797 C.ar    1  UNL1       -0.0416
     13 C           4.0375    1.4239   -6.4088 C.ar    1  UNL1        0.0621
     14 CL          4.4268   -0.1832   -5.8791 Cl      1  UNL1       -0.0816
     15 N           3.1542   -0.3683    1.0904 N.am    1  UNL1       -0.2344
     16 N           4.5669   -0.3505    1.1700 N.am    1  UNL1       -0.2342
     17 C           5.1659   -0.8294    2.3321 C.2     1  UNL1        0.2322
     18 O           4.5011   -1.1939    3.3069 O.2     1  UNL1       -0.2740
     19 C           6.7061   -0.8277    2.3408 C.3     1  UNL1        0.0370
     20 C           7.2379    0.3837    3.1271 C.3     1  UNL1       -0.0419
     21 C           8.7637    0.3688    3.2750 C.3     1  UNL1       -0.0524
     22 C           9.2634   -0.9316    3.8955 C.3     1  UNL1       -0.0530
     23 C           8.7707   -2.1304    3.0941 C.3     1  UNL1       -0.0524
     24 C           7.2457   -2.1290    2.9653 C.3     1  UNL1       -0.0419
     25 H           3.7339   -0.3297   -1.5933 H       1  UNL1        0.0363
     26 H           3.7337    1.3351   -0.9709 H       1  UNL1        0.0363
     27 H           1.4809    1.7250   -2.0446 H       1  UNL1        0.0363
     28 H           1.5057    0.0683   -2.6866 H       1  UNL1        0.0363
     29 H           1.2610    1.9826   -4.6357 H       1  UNL1        0.1548
     30 H           1.7027    3.9161   -6.2339 H       1  UNL1        0.0636
     31 H           3.0371    4.7419   -8.1421 H       1  UNL1        0.0618
     32 H           5.0316    3.4946   -8.9193 H       1  UNL1        0.0618
     33 H           5.6443    1.3569   -7.8436 H       1  UNL1        0.0633
     34 H           2.6647   -0.6750    1.9340 H       1  UNL1        0.1728
     35 H           5.1052   -0.1014    0.3473 H       1  UNL1        0.1728
     36 H           7.0658   -0.7650    1.3057 H       1  UNL1        0.0395
     37 H           6.7902    0.3967    4.1298 H       1  UNL1        0.0272
     38 H           6.9309    1.3148    2.6380 H       1  UNL1        0.0272
     39 H           9.0866    1.2142    3.8938 H       1  UNL1        0.0265
     40 H           9.2291    0.4988    2.2903 H       1  UNL1        0.0265
     41 H           8.9134   -1.0081    4.9328 H       1  UNL1        0.0265
     42 H          10.3597   -0.9322    3.9317 H       1  UNL1        0.0265
     43 H           9.1032   -3.0561    3.5779 H       1  UNL1        0.0265
     44 H           9.2252   -2.1107    2.0960 H       1  UNL1        0.0265
     45 H           6.8118   -2.2755    3.9631 H       1  UNL1        0.0272
     46 H           6.9331   -2.9886    2.3614 H       1  UNL1        0.0272
@<TRIPOS>BOND
     1     1     2    2
     2     2     3    1
     3     3     4    1
     4     4     5    1
     5     5     6    2
     6     5     7   am
     7     7     8    1
     8     8     9   ar
     9     9    10   ar
    10    10    11   ar
    11    11    12   ar
    12    12    13   ar
    13     8    13   ar
    14    13    14    1
    15     2    15   am
    16    15    16    1
    17    16    17   am
    18    17    18    2
    19    17    19    1
    20    19    20    1
    21    20    21    1
    22    21    22    1
    23    22    23    1
    24    23    24    1
    25    19    24    1
    26     3    25    1
    27     3    26    1
    28     4    27    1
    29     4    28    1
    30     7    29    1
    31     9    30    1
    32    10    31    1
    33    11    32    1
    34    12    33    1
    35    15    34    1
    36    16    35    1
    37    19    36    1
    38    20    37    1
    39    20    38    1
    40    21    39    1
    41    21    40    1
    42    22    41    1
    43    22    42    1
    44    23    43    1
    45    23    44    1
    46    24    45    1
    47    24    46    1
