@<TRIPOS>MOLECULE
*****
 41 44 0 0 0
SMALL
GASTEIGER

@<TRIPOS>ATOM
      1 N           1.9418   -2.1670    3.3779 N.pl3   1  UNL1       -0.3575
      2 C           1.9289   -0.9752    2.6565 C.ar    1  UNL1        0.0324
      3 C           1.4579   -1.0673    1.3375 C.ar    1  UNL1       -0.0404
      4 C           1.2606    0.0687    0.5969 C.ar    1  UNL1       -0.0594
      5 C           1.4773    1.2913    1.1971 C.ar    1  UNL1       -0.0521
      6 C           2.1151    1.4802    2.4212 C.ar    1  UNL1        0.0051
      7 C           2.4870    2.7898    2.8624 C.ar    1  UNL1        0.0412
      8 N           2.3702    4.0110    2.0518 N.am    1  UNL1       -0.2847
      9 C           2.2681    4.1246    0.6363 C.2     1  UNL1        0.2209
     10 O           2.6236    3.3102   -0.1800 O.2     1  UNL1       -0.2751
     11 C           1.4274    5.2417    0.1037 C.3     1  UNL1        0.0432
     12 C           1.5928    6.7021    0.3872 C.3     1  UNL1       -0.0338
     13 C           1.6794    6.1934   -1.0393 C.3     1  UNL1       -0.0040
     14 C           2.8532    6.4990   -1.9529 C.ar    1  UNL1       -0.0435
     15 C           4.2077    6.2513   -1.7172 C.ar    1  UNL1       -0.0583
     16 C           5.1967    6.7028   -2.6172 C.ar    1  UNL1       -0.0615
     17 C           4.8542    7.3179   -3.8236 C.ar    1  UNL1       -0.0617
     18 C           3.5195    7.5259   -4.1205 C.ar    1  UNL1       -0.0615
     19 C           2.5506    7.1303   -3.1940 C.ar    1  UNL1       -0.0583
     20 C           2.9374    2.9040    4.1956 C.ar    1  UNL1       -0.0399
     21 C           3.0870    1.7673    5.0165 C.ar    1  UNL1       -0.0594
     22 C           2.7774    0.4897    4.5319 C.ar    1  UNL1       -0.0522
     23 C           2.2894    0.3044    3.2173 C.ar    1  UNL1        0.0045
     24 H           1.6949   -3.0248    2.8994 H       1  UNL1        0.1423
     25 H           2.3217   -2.2237    4.3069 H       1  UNL1        0.1423
     26 H           1.1816   -2.0177    0.8919 H       1  UNL1        0.0636
     27 H           0.8897    0.0533   -0.4213 H       1  UNL1        0.0618
     28 H           1.0682    2.1287    0.6619 H       1  UNL1        0.0624
     29 H           2.4665    4.8789    2.5599 H       1  UNL1        0.1548
     30 H           0.4255    4.8389   -0.0658 H       1  UNL1        0.0400
     31 H           2.4817    7.0460    0.8989 H       1  UNL1        0.0279
     32 H           0.6900    7.2332    0.6810 H       1  UNL1        0.0279
     33 H           0.7588    6.3119   -1.6187 H       1  UNL1        0.0356
     34 H           4.5179    5.6985   -0.8354 H       1  UNL1        0.0620
     35 H           6.2492    6.5795   -2.3728 H       1  UNL1        0.0618
     36 H           5.6214    7.6236   -4.5308 H       1  UNL1        0.0618
     37 H           3.2237    8.0035   -5.0523 H       1  UNL1        0.0618
     38 H           1.5100    7.3181   -3.4577 H       1  UNL1        0.0620
     39 H           3.1970    3.8668    4.6312 H       1  UNL1        0.0636
     40 H           3.4558    1.8665    6.0394 H       1  UNL1        0.0618
     41 H           2.9087   -0.3611    5.1997 H       1  UNL1        0.0624
@<TRIPOS>BOND
     1     1     2    1
     2     2     3   ar
     3     3     4   ar
     4     4     5   ar
     5     5     6   ar
     6     6     7   ar
     7     7     8    1
     8     8     9   am
     9     9    10    2
    10    11    12    1
    11    12    13    1
    12    11    13    1
    13    14    15   ar
    14    15    16   ar
    15    16    17   ar
    16    17    18   ar
    17    18    19   ar
    18    14    19   ar
    19     7    20   ar
    20    20    21   ar
    21    21    22   ar
    22    22    23   ar
    23     2    23   ar
    24     6    23   ar
    25    13    14    1
    26    11     9    1
    27     1    24    1
    28     1    25    1
    29     3    26    1
    30     4    27    1
    31     5    28    1
    32     8    29    1
    33    11    30    1
    34    12    31    1
    35    12    32    1
    36    13    33    1
    37    15    34    1
    38    16    35    1
    39    17    36    1
    40    18    37    1
    41    19    38    1
    42    20    39    1
    43    21    40    1
    44    22    41    1
