REMARK  9 active torsions:
REMARK  status: ('A' for Active; 'I' for Inactive)
REMARK    1  A    between atoms: O_2  and  C_3 
REMARK    2  A    between atoms: C_9  and  C_10 
REMARK       I    between atoms: C_10  and  N_12 
REMARK    3  A    between atoms: N_12  and  C_13 
REMARK    4  A    between atoms: C_13  and  N_15 
REMARK    5  A    between atoms: N_15  and  C_16 
REMARK    6  A    between atoms: C_19  and  C_20 
REMARK    7  A    between atoms: C_23  and  C_24 
REMARK    8  A    between atoms: C_24  and  O_25 
REMARK    9  A    between atoms: C_27  and  O_28 
ROOT
ATOM      1  N   UNL d   1       3.737   3.645   1.912  0.00  0.00    -0.333 N 
ATOM      2  H   UNL d   1       2.851   3.580   1.427  0.00  0.00     0.168 HD
ENDROOT
BRANCH   1   3
ATOM      3  C   UNL d   1       4.426   2.464   2.304  0.00  0.00     0.179 C 
ATOM      4  S   UNL d   1       5.568   2.441   3.560  0.00  0.00    -0.040 SA
BRANCH   3   5
ATOM      5  N   UNL d   1       4.054   1.294   1.601  0.00  0.00    -0.299 N 
ATOM      6  C   UNL d   1       4.627   0.018   1.783  0.00  0.00     0.260 C 
ATOM      7  O   UNL d   1       5.622  -0.201   2.487  0.00  0.00    -0.267 OA
ATOM      8  H   UNL d   1       3.295   1.342   0.931  0.00  0.00     0.171 HD
BRANCH   6   9
ATOM      9  C   UNL d   1       4.097  -1.204   1.111  0.00  0.00     0.067 A 
ATOM     10  C   UNL d   1       4.763  -2.424   1.405  0.00  0.00     0.043 A 
ATOM     11  C   UNL d   1       4.357  -3.626   0.836  0.00  0.00     0.035 A 
ATOM     12  C   UNL d   1       3.292  -3.637  -0.051  0.00  0.00     0.026 A 
ATOM     13 CL   UNL d   1       5.171  -5.092   1.220  0.00  0.00    -0.084 Cl
ATOM     14  C   UNL d   1       2.623  -2.443  -0.350  0.00  0.00     0.039 A 
ATOM     15  C   UNL d   1       3.002  -1.227   0.245  0.00  0.00     0.084 A 
BRANCH  15  16
ATOM     16  O   UNL d   1       2.384  -0.044  -0.060  0.00  0.00    -0.355 OA
ATOM     17  C   UNL d   1       0.959  -0.112  -0.027  0.00  0.00     0.210 C 
ENDBRANCH  15  16
ENDBRANCH   6   9
ENDBRANCH   3   5
ENDBRANCH   1   3
BRANCH   1  18
ATOM     18  C   UNL d   1       4.115   4.969   2.348  0.00  0.00     0.036 A 
ATOM     19  C   UNL d   1       3.209   5.965   2.718  0.00  0.00     0.030 A 
ATOM     20  C   UNL d   1       3.679   7.248   3.119  0.00  0.00     0.019 A 
ATOM     21  C   UNL d   1       5.056   7.539   3.199  0.00  0.00     0.031 A 
ATOM     22  C   UNL d   1       5.958   6.543   2.779  0.00  0.00     0.083 A 
ATOM     23  C   UNL d   1       5.468   5.307   2.345  0.00  0.00     0.067 A 
BRANCH  21  24
ATOM     24  C   UNL d   1       5.550   8.887   3.503  0.00  0.00     0.088 A 
ATOM     25  C   UNL d   1       6.377   9.701   2.759  0.00  0.00     0.041 A 
ATOM     26  C   UNL d   1       6.593  10.868   3.502  0.00  0.00     0.038 A 
ATOM     27  C   UNL d   1       5.906  10.723   4.689  0.00  0.00     0.077 A 
ATOM     28  O   UNL d   1       5.242   9.508   4.697  0.00  0.00    -0.312 OA
BRANCH  27  29
ATOM     29  C   UNL d   1       5.798  11.637   5.862  0.00  0.00     0.229 C 
BRANCH  29  30
ATOM     30  O   UNL d   1       6.556  12.821   5.571  0.00  0.00    -0.394 OA
ATOM     31  H   UNL d   1       7.474  12.537   5.420  0.00  0.00     0.209 HD
ENDBRANCH  29  30
ENDBRANCH  27  29
ENDBRANCH  21  24
BRANCH  22  32
ATOM     32  O   UNL d   1       7.304   6.837   2.756  0.00  0.00    -0.355 OA
ATOM     33  C   UNL d   1       8.186   5.794   2.340  0.00  0.00     0.210 C 
ENDBRANCH  22  32
ENDBRANCH   1  18
TORSDOF 9
