REMARK  12 active torsions:
REMARK  status: ('A' for Active; 'I' for Inactive)
REMARK    1  A    between atoms: C_2  and  C_3 
REMARK    2  A    between atoms: C_3  and  C_4 
REMARK    3  A    between atoms: C_4  and  O_5 
REMARK    4  A    between atoms: O_5  and  C_6 
REMARK    5  A    between atoms: C_6  and  C_8 
REMARK    6  A    between atoms: C_11  and  N_12 
REMARK    7  A    between atoms: N_12  and  N_13 
REMARK    8  A    between atoms: N_13  and  C_14 
REMARK    9  A    between atoms: C_18  and  C_19 
REMARK   10  A    between atoms: C_19  and  C_20 
REMARK   11  A    between atoms: N_28  and  C_29 
REMARK   12  A    between atoms: C_29  and  C_30 
ROOT
ATOM      1  C   UNL d   1       7.795   9.087  -5.862  0.00  0.00     0.720 C 
ATOM      2  N   UNL d   1       7.611  10.316  -5.443  0.00  0.00    -0.068 NA
ATOM      3  C   UNL d   1       7.637  11.368  -6.324  0.00  0.00     0.061 C 
ATOM      4  C   UNL d   1       7.523  12.737  -5.699  0.00  0.00     0.072 C 
ATOM      5  C   UNL d   1       7.819  11.253  -7.650  0.00  0.00     0.040 C 
ATOM      6  C   UNL d   1       7.996   9.876  -8.143  0.00  0.00     0.270 C 
ATOM      7  O   UNL d   1       8.208   9.629  -9.333  0.00  0.00    -0.267 OA
ATOM      8  N   UNL d   1       7.905   8.840  -7.231  0.00  0.00    -0.140 N 
ENDROOT
BRANCH   1   9
ATOM      9  N   UNL d   1       7.673   8.102  -4.874  0.00  0.00    -0.147 N 
ATOM     10  H   UNL d   1       6.904   8.291  -4.242  0.00  0.00     0.200 HD
BRANCH   9  11
ATOM     11  N   UNL d   1       8.492   7.023  -4.537  0.00  0.00    -0.191 NA
ATOM     12  H   UNL d   1       9.005   6.676  -5.350  0.00  0.00     0.153 HD
BRANCH  11  13
ATOM     13  C   UNL d   1       8.021   5.888  -3.772  0.00  0.00     0.028 C 
ATOM     14  C   UNL d   1       8.732   4.673  -3.795  0.00  0.00     0.026 C 
ATOM     15  C   UNL d   1       8.181   3.468  -3.266  0.00  0.00     0.019 C 
ATOM     16  C   UNL d   1       6.983   3.482  -2.547  0.00  0.00     0.039 C 
ATOM     17  C   UNL d   1       6.322   4.704  -2.424  0.00  0.00     0.019 C 
ATOM     18  C   UNL d   1       6.832   5.884  -3.027  0.00  0.00     0.026 C 
BRANCH  16  19
ATOM     19  C   UNL d   1       6.482   2.241  -1.889  0.00  0.00     0.293 C 
ATOM     20  O   UNL d   1       7.257   1.389  -1.432  0.00  0.00    -0.259 OA
BRANCH  19  21
ATOM     21  O   UNL d   1       5.126   2.180  -1.813  0.00  0.00    -0.318 OA
BRANCH  21  22
ATOM     22  C   UNL d   1       4.631   1.091  -1.000  0.00  0.00     0.179 C 
BRANCH  22  23
ATOM     23  C   UNL d   1       3.099   1.073  -0.983  0.00  0.00     0.026 C 
BRANCH  23  24
ATOM     24  C   UNL d   1       2.553  -0.046  -0.088  0.00  0.00    -0.002 C 
ATOM     25  C   UNL d   1       1.031  -0.063  -0.073  0.00  0.00     0.005 C 
ENDBRANCH  23  24
ENDBRANCH  22  23
ENDBRANCH  21  22
ENDBRANCH  19  21
ENDBRANCH  16  19
ENDBRANCH  11  13
ENDBRANCH   9  11
ENDBRANCH   1   9
BRANCH   8  26
ATOM     26  C   UNL d   1       7.778   7.588  -7.966  0.00  0.00     0.190 C 
BRANCH  26  27
ATOM     27  C   UNL d   1       7.355   6.369  -7.243  0.00  0.00    -0.033 A 
ATOM     28  C   UNL d   1       8.272   5.294  -7.230  0.00  0.00     0.016 A 
ATOM     29  C   UNL d   1       7.937   4.094  -6.626  0.00  0.00    -0.061 A 
ATOM     30  C   UNL d   1       8.949   2.983  -6.543  0.00  0.00     0.048 C 
ATOM     31  C   UNL d   1       6.696   4.026  -5.975  0.00  0.00     0.007 A 
ATOM     32  C   UNL d   1       5.829   5.130  -5.903  0.00  0.00     0.008 A 
ATOM     33  C   UNL d   1       6.118   6.310  -6.571  0.00  0.00    -0.054 A 
ATOM     34  C   UNL d   1       5.161   7.475  -6.445  0.00  0.00     0.049 C 
ENDBRANCH  26  27
ENDBRANCH   8  26
BRANCH   5  35
ATOM     35  C   UNL d   1       7.883  12.456  -8.566  0.00  0.00     0.084 C 
BRANCH  35  36
ATOM     36  C   UNL d   1       8.010  12.202 -10.044  0.00  0.00    -0.054 A 
ATOM     37  C   UNL d   1       9.194  12.521 -10.720  0.00  0.00     0.007 A 
ATOM     38  C   UNL d   1       9.330  12.198 -12.067  0.00  0.00     0.001 A 
ATOM     39  C   UNL d   1       8.336  11.462 -12.713  0.00  0.00     0.000 A 
ATOM     40  C   UNL d   1       7.165  11.121 -12.041  0.00  0.00     0.001 A 
ATOM     41  C   UNL d   1       6.977  11.541 -10.730  0.00  0.00     0.007 A 
ENDBRANCH  35  36
ENDBRANCH   5  35
TORSDOF 12
