REMARK  6 active torsions:
REMARK  status: ('A' for Active; 'I' for Inactive)
REMARK    1  A    between atoms: C_5  and  O_6 
REMARK    2  A    between atoms: C_7  and  C_8 
REMARK       I    between atoms: C_8  and  N_10 
REMARK    3  A    between atoms: N_10  and  C_11 
REMARK    4  A    between atoms: C_12  and  C_11 
REMARK    5  A    between atoms: C_12  and  C_14 
REMARK    6  A    between atoms: C_12  and  O_13 
ROOT
ATOM      1  C   UNL d   1       1.892  -7.619   2.783  0.00  0.00     0.254 C 
ATOM      2  O   UNL d   1       2.324  -6.640   3.386  0.00  0.00    -0.268 OA
ATOM      3  N   UNL d   1       1.132  -7.449   1.658  0.00  0.00    -0.354 N 
ATOM      4  H   UNL d   1       0.451  -8.178   1.587  0.00  0.00     0.162 HD
ENDROOT
BRANCH   3   5
ATOM      5  C   UNL d   1       0.733  -6.163   1.091  0.00  0.00     0.155 C 
BRANCH   5   6
ATOM      6  C   UNL d   1      -0.139  -6.286  -0.194  0.00  0.00     0.140 C 
BRANCH   6   7
ATOM      7  C   UNL d   1      -0.982  -7.585  -0.289  0.00  0.00     0.016 C 
ATOM      8  C   UNL d   1      -0.154  -8.868  -0.577  0.00  0.00     0.007 C 
ATOM      9  C   UNL d   1      -0.963 -10.149  -0.370  0.00  0.00     0.000 C 
ATOM     10  C   UNL d   1      -1.798 -10.162   0.911  0.00  0.00     0.000 C 
ATOM     11  C   UNL d   1      -2.711  -8.954   0.989  0.00  0.00     0.000 C 
ATOM     12  C   UNL d   1      -1.911  -7.675   0.945  0.00  0.00     0.007 C 
ENDBRANCH   6   7
BRANCH   6  13
ATOM     13  O   UNL d   1      -1.045  -5.168  -0.265  0.00  0.00    -0.394 OA
ATOM     14  H   UNL d   1      -1.600  -5.157   0.535  0.00  0.00     0.210 HD
ENDBRANCH   6  13
ENDBRANCH   5   6
ENDBRANCH   3   5
BRANCH   1  15
ATOM     15  C   UNL d   1       2.117  -9.072   3.215  0.00  0.00     0.065 A 
ATOM     16  C   UNL d   1       2.887  -9.344   4.346  0.00  0.00     0.081 A 
ATOM     17  C   UNL d   1       3.198 -10.660   4.714  0.00  0.00     0.038 A 
ATOM     18  C   UNL d   1       2.704 -11.745   3.988  0.00  0.00     0.009 A 
ATOM     19  C   UNL d   1       1.883 -11.526   2.889  0.00  0.00    -0.061 A 
ATOM     20  C   UNL d   1       1.283 -12.681   2.131  0.00  0.00     0.048 C 
ATOM     21  C   UNL d   1       1.619 -10.195   2.506  0.00  0.00     0.026 A 
BRANCH  16  22
ATOM     22  O   UNL d   1       3.350  -8.322   5.122  0.00  0.00    -0.360 OA
ATOM     23  H   UNL d   1       3.844  -8.665   5.879  0.00  0.00     0.217 HD
ENDBRANCH  16  22
ENDBRANCH   1  15
TORSDOF 6
