@<TRIPOS>MOLECULE
*****
 31 32 0 0 0
SMALL
GASTEIGER

@<TRIPOS>ATOM
      1 C           2.4874    1.1820   -0.0005 C.3     1  UNL1       -0.0396
      2 C           1.2450    0.3371    0.0042 C.ar    1  UNL1       -0.0470
      3 C           1.2976   -1.0592    0.0181 C.ar    1  UNL1       -0.0579
      4 C           0.1181   -1.8280    0.0008 C.ar    1  UNL1       -0.0458
      5 C          -1.1477   -1.2208   -0.0203 C.ar    1  UNL1        0.0795
      6 C          -2.4258   -2.0270   -0.0598 C.2     1  UNL1        0.2637
      7 O          -3.5084   -1.4349   -0.0773 O.2     1  UNL1       -0.2685
      8 N          -2.3475   -3.4176   -0.0815 N.am    1  UNL1       -0.2300
      9 N          -3.5351   -4.2029   -0.1601 N.am    1  UNL1       -0.2297
     10 C          -3.4436   -5.5943   -0.1085 C.2     1  UNL1        0.2668
     11 O          -2.3389   -6.1440   -0.0098 O.2     1  UNL1       -0.2681
     12 C          -4.7051   -6.3247   -0.2022 C.ar    1  UNL1        0.0767
     13 C          -5.7961   -6.0871   -1.0250 C.ar    1  UNL1       -0.0410
     14 C          -6.8223   -7.0751   -0.8887 C.ar    1  UNL1       -0.0355
     15 C          -6.4950   -7.9976    0.0693 C.ar    1  UNL1        0.0787
     16 CL         -7.4718   -9.3191    0.5777 Cl      1  UNL1       -0.0758
     17 S          -4.9633   -7.7419    0.7483 S.2     1  UNL1       -0.0721
     18 C          -1.1847    0.1894   -0.0122 C.ar    1  UNL1        0.1292
     19 O          -2.3421    0.9260   -0.0065 O.3     1  UNL1       -0.5060
     20 C          -0.0084    0.9536   -0.0068 C.ar    1  UNL1       -0.0165
     21 H           3.3980    0.5738    0.0034 H       1  UNL1        0.0278
     22 H           2.5103    1.8268    0.8847 H       1  UNL1        0.0278
     23 H           2.5111    1.8124   -0.8964 H       1  UNL1        0.0278
     24 H           2.2599   -1.5687    0.0398 H       1  UNL1        0.0620
     25 H           0.2356   -2.9053    0.0041 H       1  UNL1        0.0626
     26 H          -1.4831   -3.9532   -0.0686 H       1  UNL1        0.1731
     27 H          -4.4200   -3.7011   -0.1354 H       1  UNL1        0.1731
     28 H          -5.8402   -5.2717   -1.7350 H       1  UNL1        0.0631
     29 H          -7.7424   -7.1016   -1.4610 H       1  UNL1        0.0638
     30 H          -3.1022    0.3067   -0.0005 H       1  UNL1        0.2922
     31 H          -0.0750    2.0408   -0.0118 H       1  UNL1        0.0657
@<TRIPOS>BOND
     1     1     2    1
     2     2     3   ar
     3     3     4   ar
     4     4     5   ar
     5     5     6    1
     6     6     7    2
     7     6     8   am
     8     8     9    1
     9     9    10   am
    10    10    11    2
    11    10    12    1
    12    12    13   ar
    13    13    14   ar
    14    14    15   ar
    15    15    16    1
    16    15    17   ar
    17    12    17   ar
    18     5    18   ar
    19    18    19    1
    20    18    20   ar
    21     2    20   ar
    22     1    21    1
    23     1    22    1
    24     1    23    1
    25     3    24    1
    26     4    25    1
    27     8    26    1
    28     9    27    1
    29    13    28    1
    30    14    29    1
    31    19    30    1
    32    20    31    1
