@<TRIPOS>MOLECULE
*****
 60 62 0 0 0
SMALL
GASTEIGER

@<TRIPOS>ATOM
      1 C           3.1910   -5.8383    0.9807 C.3     1  UNL1       -0.0442
      2 C           3.0270   -4.7348    2.0556 C.3     1  UNL1        0.0262
      3 C           1.7608   -3.9238    1.6405 C.3     1  UNL1       -0.0442
      4 C           2.7575   -5.4238    3.3950 C.3     1  UNL1       -0.0442
      5 N           4.2438   -3.8839    2.2107 N.am    1  UNL1       -0.3087
      6 C           4.1479   -2.7322    3.0087 C.2     1  UNL1        0.2388
      7 O           3.2659   -2.6426    3.8747 O.2     1  UNL1       -0.2734
      8 C           4.9259   -1.4109    2.6380 C.3     1  UNL1        0.1349
      9 C           4.1150   -0.6309    1.5634 C.ar    1  UNL1        0.0648
     10 C           4.0915    0.7746    1.5171 C.ar    1  UNL1        0.1292
     11 O           4.7327    1.5676    2.4334 O.3     1  UNL1       -0.5062
     12 C           3.5852    1.4662    0.3915 C.ar    1  UNL1        0.0219
     13 C           3.0232    0.7672   -0.6776 C.ar    1  UNL1        0.1238
     14 O           2.8669    1.3224   -1.9248 O.3     1  UNL1       -0.5065
     15 C           2.9046   -0.6054   -0.6153 C.ar    1  UNL1        0.0219
     16 C           3.5011   -1.2760    0.4590 C.ar    1  UNL1        0.1292
     17 O           3.7842   -2.5946    0.2037 O.3     1  UNL1       -0.5062
     18 N           6.4234   -1.5323    2.5002 N.am    1  UNL1       -0.2744
     19 C           7.2428   -0.8028    1.5190 C.3     1  UNL1        0.0740
     20 C           6.6874   -0.4164    0.2195 C.ar    1  UNL1        0.1221
     21 C           6.1395   -1.1434   -0.8015 C.ar    1  UNL1       -0.0191
     22 C           5.6964   -0.2065   -1.7580 C.ar    1  UNL1       -0.0236
     23 C           6.0534    1.0354   -1.2809 C.ar    1  UNL1        0.0921
     24 O           6.6919    0.9140   -0.0925 O.2     1  UNL1       -0.4662
     25 C           7.1156   -1.9219    3.7187 C.2     1  UNL1        0.2475
     26 O           6.5153   -2.4303    4.6555 O.2     1  UNL1       -0.2700
     27 C           8.6479   -1.8687    3.8206 C.ar    1  UNL1        0.0356
     28 C           9.2944   -3.0873    4.1483 C.ar    1  UNL1        0.0271
     29 C          10.6953   -3.1523    4.1845 C.ar    1  UNL1        0.2738
     30 N          11.4034   -4.3941    4.5200 N.pl3   1  UNL1        0.0796
     31 O          10.7139   -5.4049    4.7800 O.2     1  UNL1        0.0414
     32 O          12.6362   -4.3896    4.5141 O.co2   1  UNL1       -0.5760
     33 C          11.4622   -2.0331    3.8738 C.ar    1  UNL1        0.0151
     34 C          10.8140   -0.8325    3.6050 C.ar    1  UNL1       -0.0624
     35 C           9.4136   -0.6695    3.6692 C.ar    1  UNL1       -0.0957
     36 O           8.9419    0.5150    3.6419 O.co2   1  UNL1       -0.8732
     37 H           2.2773   -6.4500    0.9307 H       1  UNL1        0.0250
     38 H           4.0231   -6.5143    1.1970 H       1  UNL1        0.0250
     39 H           3.3437   -5.4285   -0.0254 H       1  UNL1        0.0250
     40 H           0.8544   -4.5292    1.7226 H       1  UNL1        0.0250
     41 H           1.7763   -3.6010    0.5956 H       1  UNL1        0.0250
     42 H           1.6124   -3.0256    2.2443 H       1  UNL1        0.0250
     43 H           1.8492   -6.0280    3.3536 H       1  UNL1        0.0250
     44 H           2.6142   -4.7097    4.2067 H       1  UNL1        0.0250
     45 H           3.6074   -6.0539    3.6735 H       1  UNL1        0.0250
     46 H           4.8935   -3.8257    1.4315 H       1  UNL1        0.1493
     47 H           4.7879   -0.8340    3.5671 H       1  UNL1        0.0650
     48 H           5.3262    1.0437    3.0045 H       1  UNL1        0.2922
     49 H           3.8529    2.5148    0.2828 H       1  UNL1        0.0691
     50 H           3.5174    2.0406   -2.0209 H       1  UNL1        0.2921
     51 H           2.6619   -1.1539   -1.5232 H       1  UNL1        0.0691
     52 H           3.2575   -2.9090   -0.5473 H       1  UNL1        0.2922
     53 H           8.0738   -1.4744    1.2841 H       1  UNL1        0.0545
     54 H           7.5974    0.1254    1.9408 H       1  UNL1        0.0545
     55 H           5.9174   -2.1938   -0.7048 H       1  UNL1        0.0652
     56 H           5.0070   -0.3998   -2.5657 H       1  UNL1        0.0649
     57 H           5.7849    2.0477   -1.5507 H       1  UNL1        0.1029
     58 H           8.6927   -3.9603    4.3946 H       1  UNL1        0.0693
     59 H          12.5471   -2.0453    3.8802 H       1  UNL1        0.0685
     60 H          11.4222    0.0469    3.3841 H       1  UNL1        0.0614
@<TRIPOS>UNITY_ATOM_ATTR
30 1
charge 1
32 1
charge -1
36 1
charge -1
@<TRIPOS>BOND
     1     1     2    1
     2     2     3    1
     3     2     4    1
     4     2     5    1
     5     5     6   am
     6     6     7    2
     7     9    10   ar
     8    10    11    1
     9    10    12   ar
    10    12    13   ar
    11    13    14    1
    12    13    15   ar
    13    15    16   ar
    14     9    16   ar
    15    16    17    1
    16     8    18    1
    17    18    19    1
    18    19    20    1
    19    20    21   ar
    20    21    22   ar
    21    22    23   ar
    22    23    24   ar
    23    20    24   ar
    24    18    25   am
    25    25    26    2
    26    25    27    1
    27    27    28   ar
    28    28    29   ar
    29    29    30    1
    30    30    31    2
    31    30    32    1
    32    29    33   ar
    33    33    34   ar
    34    34    35   ar
    35    27    35   ar
    36    35    36    1
    37     8     9    1
    38     8     6    1
    39     1    37    1
    40     1    38    1
    41     1    39    1
    42     3    40    1
    43     3    41    1
    44     3    42    1
    45     4    43    1
    46     4    44    1
    47     4    45    1
    48     5    46    1
    49     8    47    1
    50    11    48    1
    51    12    49    1
    52    14    50    1
    53    15    51    1
    54    17    52    1
    55    19    53    1
    56    19    54    1
    57    21    55    1
    58    22    56    1
    59    23    57    1
    60    28    58    1
    61    33    59    1
    62    34    60    1
