@<TRIPOS>MOLECULE
*****
 69 71 0 0 0
SMALL
GASTEIGER

@<TRIPOS>ATOM
      1 C           0.9880   -0.0550    0.1159 C.3     1  UNL1       -0.0652
      2 C           2.4921   -0.0377    0.0755 C.3     1  UNL1       -0.0545
      3 C           2.8869    0.5937   -1.2447 C.3     1  UNL1       -0.0376
      4 C           4.3576    0.6037   -1.3362 C.3     1  UNL1        0.0116
      5 N           4.8212    1.0855   -2.6259 N.am    1  UNL1       -0.3135
      6 C           6.1590    1.2641   -2.6700 C.2     1  UNL1        0.2382
      7 O           6.6085    0.8294   -1.5938 O.2     1  UNL1       -0.2734
      8 C           7.0026    1.9488   -3.8701 C.3     1  UNL1        0.1308
      9 C           6.5109    3.4044   -4.0217 C.ar    1  UNL1        0.0232
     10 C           7.3886    4.5013   -3.8900 C.ar    1  UNL1       -0.0528
     11 C           6.9412    5.8105   -4.0290 C.ar    1  UNL1       -0.0612
     12 C           5.5886    6.0551   -4.2210 C.ar    1  UNL1       -0.0583
     13 C           4.6967    4.9934   -4.3520 C.ar    1  UNL1       -0.0198
     14 C           5.1686    3.6853   -4.3111 C.ar    1  UNL1        0.1223
     15 O           4.2952    2.6580   -4.5501 O.3     1  UNL1       -0.5064
     16 N           8.5549    1.8966   -3.9532 N.am    1  UNL1       -0.2829
     17 C           9.4370    1.4296   -2.8524 C.3     1  UNL1        0.0156
     18 C           8.7788    0.8225   -1.6998 C.3     1  UNL1       -0.0400
     19 C           9.3926    0.2325   -0.4841 C.3     1  UNL1       -0.0639
     20 C           9.1566    2.3936   -5.1526 C.2     1  UNL1        0.2574
     21 O           8.4624    2.7351   -6.1169 O.2     1  UNL1       -0.2716
     22 C          10.7593    2.4790   -5.2130 C.3     1  UNL1        0.1924
     23 O          11.2476    3.3690   -4.1875 O.3     1  UNL1       -0.3711
     24 C          11.3355    1.0641   -5.0720 C.ar    1  UNL1       -0.0027
     25 C          10.5965   -0.0363   -5.5678 C.ar    1  UNL1       -0.0550
     26 C          10.9889   -1.3337   -5.2795 C.ar    1  UNL1       -0.0614
     27 C          12.1897   -1.5502   -4.6120 C.ar    1  UNL1       -0.0617
     28 C          12.9750   -0.4738   -4.1920 C.ar    1  UNL1       -0.0614
     29 C          12.5501    0.8323   -4.4124 C.ar    1  UNL1       -0.0550
     30 C          11.2457    3.1551   -6.4885 C.ar    1  UNL1       -0.0027
     31 C          11.9737    2.4670   -7.4737 C.ar    1  UNL1       -0.0550
     32 C          12.4626    3.1342   -8.5871 C.ar    1  UNL1       -0.0614
     33 C          12.1657    4.4807   -8.7692 C.ar    1  UNL1       -0.0617
     34 C          11.4373    5.1797   -7.8096 C.ar    1  UNL1       -0.0614
     35 C          10.9955    4.5260   -6.6678 C.ar    1  UNL1       -0.0550
     36 H           0.6334   -0.5077    1.0405 H       1  UNL1        0.0230
     37 H           0.6046   -0.6253   -0.7365 H       1  UNL1        0.0230
     38 H           0.6060    0.9683    0.0425 H       1  UNL1        0.0230
     39 H           2.8954   -1.0562    0.1547 H       1  UNL1        0.0263
     40 H           2.9004    0.5309    0.9221 H       1  UNL1        0.0263
     41 H           2.5297    1.6261   -1.3156 H       1  UNL1        0.0280
     42 H           2.4975    0.0259   -2.0931 H       1  UNL1        0.0280
     43 H           4.7642   -0.4124   -1.1964 H       1  UNL1        0.0462
     44 H           4.7688    1.2232   -0.5153 H       1  UNL1        0.0462
     45 H           4.2372    1.6047   -3.2698 H       1  UNL1        0.1487
     46 H           6.6914    1.4087   -4.7793 H       1  UNL1        0.0649
     47 H           8.4533    4.3634   -3.7220 H       1  UNL1        0.0622
     48 H           7.6556    6.6278   -3.9796 H       1  UNL1        0.0618
     49 H           5.2325    7.0776   -4.2824 H       1  UNL1        0.0619
     50 H           3.6424    5.2004   -4.4957 H       1  UNL1        0.0654
     51 H           3.3966    3.0153   -4.6526 H       1  UNL1        0.2921
     52 H           9.9750    2.2796   -2.4545 H       1  UNL1        0.0465
     53 H          10.0955    0.6532   -3.2099 H       1  UNL1        0.0465
     54 H           8.2503   -0.0258   -2.1607 H       1  UNL1        0.0278
     55 H           8.2544    1.7020   -1.3005 H       1  UNL1        0.0278
     56 H           9.9756   -0.6464   -0.7441 H       1  UNL1        0.0230
     57 H           8.5576   -0.0825    0.1623 H       1  UNL1        0.0230
     58 H           9.9708    0.9836    0.0469 H       1  UNL1        0.0230
     59 H          11.3036    2.9011   -3.3493 H       1  UNL1        0.2116
     60 H           9.6704    0.1174   -6.1236 H       1  UNL1        0.0621
     61 H          10.3469   -2.1640   -5.5605 H       1  UNL1        0.0618
     62 H          12.5197   -2.5674   -4.4266 H       1  UNL1        0.0618
     63 H          13.9128   -0.6528   -3.6746 H       1  UNL1        0.0618
     64 H          13.1552    1.6660   -4.0616 H       1  UNL1        0.0621
     65 H          12.1791    1.4023   -7.3917 H       1  UNL1        0.0621
     66 H          13.0678    2.5934   -9.3077 H       1  UNL1        0.0618
     67 H          12.4974    4.9847   -9.6694 H       1  UNL1        0.0618
     68 H          11.2104    6.2320   -7.9428 H       1  UNL1        0.0618
     69 H          10.4450    5.0795   -5.9081 H       1  UNL1        0.0621
@<TRIPOS>BOND
     1     1     2    1
     2     2     3    1
     3     3     4    1
     4     4     5    1
     5     5     6   am
     6     6     7    2
     7     6     8    1
     8     8     9    1
     9     9    10   ar
    10    10    11   ar
    11    11    12   ar
    12    12    13   ar
    13    13    14   ar
    14     9    14   ar
    15    14    15    1
    16     8    16    1
    17    16    17    1
    18    17    18    1
    19    18    19    1
    20    16    20   am
    21    20    21    2
    22    20    22    1
    23    22    23    1
    24    22    24    1
    25    24    25   ar
    26    25    26   ar
    27    26    27   ar
    28    27    28   ar
    29    28    29   ar
    30    24    29   ar
    31    22    30    1
    32    30    31   ar
    33    31    32   ar
    34    32    33   ar
    35    33    34   ar
    36    34    35   ar
    37    30    35   ar
    38     1    36    1
    39     1    37    1
    40     1    38    1
    41     2    39    1
    42     2    40    1
    43     3    41    1
    44     3    42    1
    45     4    43    1
    46     4    44    1
    47     5    45    1
    48     8    46    1
    49    10    47    1
    50    11    48    1
    51    12    49    1
    52    13    50    1
    53    15    51    1
    54    17    52    1
    55    17    53    1
    56    18    54    1
    57    18    55    1
    58    19    56    1
    59    19    57    1
    60    19    58    1
    61    23    59    1
    62    25    60    1
    63    26    61    1
    64    27    62    1
    65    28    63    1
    66    29    64    1
    67    31    65    1
    68    32    66    1
    69    33    67    1
    70    34    68    1
    71    35    69    1
