@<TRIPOS>MOLECULE
*****
 45 48 0 0 0
SMALL
GASTEIGER

@<TRIPOS>ATOM
      1 C           1.0953   -0.0962   -0.0786 C.3     1  UNL1        0.0788
      2 O           2.5195   -0.1981   -0.1221 O.3     1  UNL1       -0.4951
      3 C           3.1086    0.5820   -1.0789 C.ar    1  UNL1        0.1202
      4 C           4.2212    0.0621   -1.7449 C.ar    1  UNL1       -0.0182
      5 C           4.9020    0.8307   -2.7046 C.ar    1  UNL1       -0.0371
      6 C           4.4260    2.0964   -3.0642 C.ar    1  UNL1        0.0315
      7 N           4.9885    2.8114   -4.1384 N.pl3   1  UNL1       -0.3145
      8 C           4.5954    4.0749   -4.6100 C.ar    1  UNL1        0.0314
      9 C           4.1212    4.2725   -5.9103 C.ar    1  UNL1       -0.0388
     10 C           3.6985    5.5521   -6.3433 C.ar    1  UNL1       -0.0387
     11 C           3.6633    6.6360   -5.4528 C.ar    1  UNL1        0.0338
     12 N           3.1087    7.8917   -5.8609 N.am    1  UNL1       -0.2815
     13 C           2.9802    8.9968   -5.0192 C.2     1  UNL1        0.2483
     14 O           3.3298    9.0493   -3.8470 O.2     1  UNL1       -0.2699
     15 C           2.4241   10.2752   -5.5432 C.ar    1  UNL1        0.0392
     16 C           3.1079   11.4189   -5.0859 C.ar    1  UNL1       -0.0476
     17 C           2.6109   12.7030   -5.2682 C.ar    1  UNL1       -0.0355
     18 C           1.4637   12.8044   -6.0350 C.ar    1  UNL1        0.0660
     19 N           0.8076   13.9144   -6.4896 N.ar    1  UNL1       -0.3444
     20 C          -0.2504   13.4934   -7.2378 C.ar    1  UNL1        0.0944
     21 N          -0.3376   12.1773   -7.2528 N.ar    1  UNL1       -0.2359
     22 C           0.7536   11.7173   -6.5347 C.ar    1  UNL1        0.0895
     23 C           1.2177   10.4044   -6.2582 C.ar    1  UNL1       -0.0221
     24 C           4.1539    6.4168   -4.1633 C.ar    1  UNL1       -0.0387
     25 C           4.6127    5.1674   -3.7509 C.ar    1  UNL1       -0.0388
     26 C           3.3390    2.6108   -2.3473 C.ar    1  UNL1       -0.0371
     27 C           2.6979    1.8770   -1.3566 C.ar    1  UNL1       -0.0182
     28 H           0.7417   -0.6758    0.7785 H       1  UNL1        0.0660
     29 H           0.6648   -0.5246   -0.9892 H       1  UNL1        0.0660
     30 H           0.7308    0.9254    0.0689 H       1  UNL1        0.0660
     31 H           4.5481   -0.9540   -1.5376 H       1  UNL1        0.0655
     32 H           5.7902    0.4180   -3.1763 H       1  UNL1        0.0637
     33 H           5.6964    2.3396   -4.6856 H       1  UNL1        0.1522
     34 H           4.0231    3.4202   -6.5802 H       1  UNL1        0.0637
     35 H           3.3872    5.6653   -7.3782 H       1  UNL1        0.0637
     36 H           2.7866    7.9668   -6.8162 H       1  UNL1        0.1551
     37 H           4.0422   11.3063   -4.5363 H       1  UNL1        0.0626
     38 H           3.1000   13.5720   -4.8473 H       1  UNL1        0.0639
     39 H           1.1164   14.8665   -6.3525 H       1  UNL1        0.1668
     40 H          -0.8931   14.2028   -7.7449 H       1  UNL1        0.1027
     41 H           0.6400    9.5398   -6.5657 H       1  UNL1        0.0647
     42 H           4.2001    7.1936   -3.4119 H       1  UNL1        0.0637
     43 H           4.9561    5.0502   -2.7255 H       1  UNL1        0.0637
     44 H           2.9469    3.5999   -2.5584 H       1  UNL1        0.0637
     45 H           1.8819    2.3557   -0.8302 H       1  UNL1        0.0655
@<TRIPOS>BOND
     1     1     2    1
     2     2     3    1
     3     3     4   ar
     4     4     5   ar
     5     5     6   ar
     6     6     7    1
     7     7     8    1
     8     8     9   ar
     9     9    10   ar
    10    10    11   ar
    11    11    12    1
    12    12    13   am
    13    13    14    2
    14    13    15    1
    15    15    16   ar
    16    16    17   ar
    17    17    18   ar
    18    18    19   ar
    19    19    20   ar
    20    20    21   ar
    21    21    22   ar
    22    18    22   ar
    23    22    23   ar
    24    15    23   ar
    25    11    24   ar
    26    24    25   ar
    27     8    25   ar
    28     6    26   ar
    29    26    27   ar
    30     3    27   ar
    31     1    28    1
    32     1    29    1
    33     1    30    1
    34     4    31    1
    35     5    32    1
    36     7    33    1
    37     9    34    1
    38    10    35    1
    39    12    36    1
    40    16    37    1
    41    17    38    1
    42    19    39    1
    43    20    40    1
    44    23    41    1
    45    24    42    1
    46    25    43    1
    47    26    44    1
    48    27    45    1
