@<TRIPOS>MOLECULE
*****
 43 43 0 0 0
SMALL
GASTEIGER

@<TRIPOS>ATOM
      1 C           1.0761   -0.0117    0.0833 C.3     1  UNL1       -0.0626
      2 C           2.6094    0.0073    0.0614 C.3     1  UNL1       -0.0453
      3 C           3.0852   -0.2063   -1.3773 C.3     1  UNL1       -0.0626
      4 C           3.1550    1.3292    0.6605 C.3     1  UNL1       -0.0350
      5 C           4.6934    1.3874    0.7012 C.3     1  UNL1        0.0133
      6 N           5.2480    2.6189    1.2633 N.am    1  UNL1       -0.2982
      7 C           6.6174    2.8174    1.3232 C.2     1  UNL1        0.3160
      8 O           7.4334    1.9721    0.9569 O.2     1  UNL1       -0.2513
      9 N           7.0000    4.0442    1.8412 N.am    1  UNL1       -0.2180
     10 N           8.3874    4.3391    2.0343 N.am    1  UNL1       -0.2297
     11 C           8.7597    5.5357    2.6324 C.2     1  UNL1        0.2530
     12 O           7.9549    6.4143    2.9384 O.2     1  UNL1       -0.2693
     13 C          10.2342    5.6944    2.8700 C.2     1  UNL1        0.0024
     14 C          10.7931    6.8682    3.2353 C.2     1  UNL1       -0.0432
     15 C          12.2566    7.1522    3.2090 C.ar    1  UNL1        0.0522
     16 C          12.8103    7.8117    4.3360 C.ar    1  UNL1       -0.0481
     17 C          14.1559    8.2222    4.3732 C.ar    1  UNL1       -0.0608
     18 C          15.0038    7.9314    3.3138 C.ar    1  UNL1       -0.0553
     19 C          14.4935    7.2864    2.1918 C.ar    1  UNL1        0.0162
     20 C          13.1295    6.9149    2.1183 C.ar    1  UNL1        0.2802
     21 N          12.7105    6.3019    0.8373 N.pl3   1  UNL1        0.0802
     22 O          13.6031    5.9238    0.0694 O.2     1  UNL1        0.0415
     23 O          11.5055    6.1966    0.5706 O.co2   1  UNL1       -0.5760
     24 H           0.6908   -0.9555   -0.3215 H       1  UNL1        0.0232
     25 H           0.6625    0.8021   -0.5222 H       1  UNL1        0.0232
     26 H           0.6924    0.0925    1.1030 H       1  UNL1        0.0232
     27 H           2.9638   -0.8330    0.6729 H       1  UNL1        0.0296
     28 H           2.7542    0.6159   -2.0207 H       1  UNL1        0.0232
     29 H           2.6902   -1.1413   -1.7888 H       1  UNL1        0.0232
     30 H           4.1746   -0.2700   -1.4363 H       1  UNL1        0.0232
     31 H           2.7590    1.4474    1.6776 H       1  UNL1        0.0283
     32 H           2.7680    2.1747    0.0779 H       1  UNL1        0.0283
     33 H           5.1019    1.2957   -0.3097 H       1  UNL1        0.0462
     34 H           5.0762    0.5445    1.2884 H       1  UNL1        0.0462
     35 H           4.6193    3.3595    1.5352 H       1  UNL1        0.1503
     36 H           6.3482    4.7557    2.1536 H       1  UNL1        0.1744
     37 H           9.0423    3.6368    1.6928 H       1  UNL1        0.1731
     38 H          10.8580    4.8485    2.6083 H       1  UNL1        0.0670
     39 H          10.1645    7.7247    3.4856 H       1  UNL1        0.0627
     40 H          12.2026    8.0192    5.2179 H       1  UNL1        0.0626
     41 H          14.5457    8.7753    5.2278 H       1  UNL1        0.0618
     42 H          16.0563    8.2071    3.3507 H       1  UNL1        0.0620
     43 H          15.1719    7.0933    1.3619 H       1  UNL1        0.0685
@<TRIPOS>UNITY_ATOM_ATTR
21 1
charge 1
23 1
charge -1
@<TRIPOS>BOND
     1     1     2    1
     2     2     3    1
     3     2     4    1
     4     4     5    1
     5     5     6    1
     6     6     7   am
     7     7     8    2
     8     7     9   am
     9     9    10    1
    10    10    11   am
    11    11    12    2
    12    11    13    1
    13    13    14    2
    14    14    15    1
    15    15    16   ar
    16    16    17   ar
    17    17    18   ar
    18    18    19   ar
    19    19    20   ar
    20    15    20   ar
    21    20    21    1
    22    21    22    2
    23    21    23    1
    24     1    24    1
    25     1    25    1
    26     1    26    1
    27     2    27    1
    28     3    28    1
    29     3    29    1
    30     3    30    1
    31     4    31    1
    32     4    32    1
    33     5    33    1
    34     5    34    1
    35     6    35    1
    36     9    36    1
    37    10    37    1
    38    13    38    1
    39    14    39    1
    40    16    40    1
    41    17    41    1
    42    18    42    1
    43    19    43    1
