REMARK  6 active torsions:
REMARK  status: ('A' for Active; 'I' for Inactive)
REMARK       I    between atoms: C_2  and  N_3 
REMARK    1  A    between atoms: C_2  and  C_17 
REMARK    2  A    between atoms: N_3  and  C_4 
REMARK    3  A    between atoms: C_5  and  C_4 
REMARK    4  A    between atoms: C_5  and  C_14 
REMARK    5  A    between atoms: C_5  and  N_6 
REMARK       I    between atoms: N_6  and  C_7 
REMARK    6  A    between atoms: C_7  and  C_9 
ROOT
ATOM      1  C   UNL d   1       3.242  -3.516   0.708  0.00  0.00     0.106 C 
ENDROOT
BRANCH   1   2
ATOM      2  C   UNL d   1       2.385  -4.744   0.969  0.00  0.00     0.010 A 
ATOM      3  C   UNL d   1       1.600  -5.233  -0.223  0.00  0.00     0.007 A 
ATOM      4  C   UNL d   1       2.560  -6.164   0.449  0.00  0.00     0.007 A 
ENDBRANCH   1   2
BRANCH   1   5
ATOM      5  N   UNL d   1       2.299  -2.381   0.488  0.00  0.00    -0.349 N 
ATOM      6  C   UNL d   1       2.017  -1.838  -0.763  0.00  0.00     0.272 C 
ATOM      7  O   UNL d   1       2.760  -2.023  -1.732  0.00  0.00    -0.266 OA
ATOM      8  H   UNL d   1       1.624  -2.206   1.219  0.00  0.00     0.163 HD
BRANCH   6   9
ATOM      9  C   UNL d   1       0.760  -1.036  -0.862  0.00  0.00     0.145 A 
ATOM     10  C   UNL d   1       0.189  -0.162   0.110  0.00  0.00     0.058 A 
ATOM     11  C   UNL d   1      -0.950   0.357  -0.462  0.00  0.00     0.112 A 
ATOM     12  N   UNL d   1      -1.032  -0.209  -1.698  0.00  0.00    -0.289 N 
ATOM     13  N   UNL d   1      -0.020  -1.052  -1.966  0.00  0.00    -0.170 NA
ATOM     14  H   UNL d   1      -1.746  -0.059  -2.407  0.00  0.00     0.188 HD
ENDBRANCH   6   9
ENDBRANCH   1   5
BRANCH   1  15
ATOM     15  C   UNL d   1       4.165  -3.235   1.923  0.00  0.00     0.148 C 
BRANCH  15  16
ATOM     16  N   UNL d   1       4.899  -4.386   2.450  0.00  0.00    -0.354 N 
ATOM     17  C   UNL d   1       5.633  -4.280   3.620  0.00  0.00     0.272 C 
ATOM     18  O   UNL d   1       5.730  -3.213   4.228  0.00  0.00    -0.266 OA
ATOM     19  H   UNL d   1       4.769  -5.315   2.062  0.00  0.00     0.162 HD
BRANCH  17  20
ATOM     20  C   UNL d   1       6.225  -5.523   4.159  0.00  0.00     0.145 A 
ATOM     21  C   UNL d   1       6.310  -5.850   5.542  0.00  0.00     0.058 A 
ATOM     22  C   UNL d   1       6.990  -7.039   5.610  0.00  0.00     0.112 A 
ATOM     23  N   UNL d   1       7.299  -7.357   4.322  0.00  0.00    -0.289 N 
ATOM     24  N   UNL d   1       6.786  -6.497   3.410  0.00  0.00    -0.170 NA
ATOM     25  H   UNL d   1       7.842  -8.152   3.998  0.00  0.00     0.188 HD
ENDBRANCH  17  20
ENDBRANCH  15  16
ENDBRANCH   1  15
TORSDOF 6
