REMARK  10 active torsions:
REMARK  status: ('A' for Active; 'I' for Inactive)
REMARK    1  A    between atoms: N_2  and  C_3 
REMARK    2  A    between atoms: N_2  and  C_20 
REMARK    3  A    between atoms: C_3  and  C_4 
REMARK    4  A    between atoms: C_4  and  O_5 
REMARK    5  A    between atoms: O_5  and  C_6 
REMARK    6  A    between atoms: C_9  and  C_10 
REMARK    7  A    between atoms: C_11  and  C_10 
REMARK    8  A    between atoms: C_23  and  O_24 
REMARK    9  A    between atoms: O_24  and  C_25 
REMARK   10  A    between atoms: C_25  and  C_26 
ROOT
ATOM      1  C   UNL d   1       1.819  -3.424  16.574  0.00  0.00     0.150 C 
ENDROOT
BRANCH   1   2
ATOM      2  N   UNL d   1       1.272  -4.122  17.754  0.00  0.00    -0.370 N 
ATOM      3  C   UNL d   1      -0.025  -4.806  17.688  0.00  0.00     0.151 C 
BRANCH   2   4
ATOM      4  C   UNL d   1       2.084  -4.378  18.843  0.00  0.00     0.102 A 
ATOM      5  C   UNL d   1       2.173  -5.635  19.458  0.00  0.00     0.051 A 
ATOM      6  C   UNL d   1       2.958  -5.825  20.594  0.00  0.00     0.042 A 
ATOM      7  C   UNL d   1       3.636  -4.752  21.147  0.00  0.00     0.084 A 
ATOM      8  C   UNL d   1       3.527  -3.515  20.517  0.00  0.00     0.126 A 
ATOM      9  N   UNL d   1       2.785  -3.376  19.404  0.00  0.00    -0.350 N 
ATOM     10  H   UNL d   1       2.691  -2.455  18.986  0.00  0.00     0.166 HD
BRANCH   7  11
ATOM     11  O   UNL d   1       4.405  -4.803  22.273  0.00  0.00    -0.345 OA
BRANCH  11  12
ATOM     12  C   UNL d   1       4.524  -6.082  22.925  0.00  0.00     0.214 C 
BRANCH  12  13
ATOM     13  C   UNL d   1       5.438  -5.954  24.115  0.00  0.00    -0.034 A 
ATOM     14  C   UNL d   1       5.296  -4.897  25.023  0.00  0.00     0.009 A 
ATOM     15  C   UNL d   1       6.235  -4.712  26.038  0.00  0.00     0.001 A 
ATOM     16  C   UNL d   1       7.254  -5.644  26.225  0.00  0.00     0.000 A 
ATOM     17  C   UNL d   1       7.361  -6.740  25.373  0.00  0.00     0.001 A 
ATOM     18  C   UNL d   1       6.458  -6.894  24.320  0.00  0.00     0.009 A 
ENDBRANCH  12  13
ENDBRANCH  11  12
ENDBRANCH   7  11
ENDBRANCH   2   4
ENDBRANCH   1   2
BRANCH   1  19
ATOM     19  C   UNL d   1       0.842  -3.350  15.394  0.00  0.00     0.195 C 
BRANCH  19  20
ATOM     20  O   UNL d   1       1.435  -2.645  14.321  0.00  0.00    -0.350 OA
BRANCH  20  21
ATOM     21  C   UNL d   1       0.584  -2.451  13.267  0.00  0.00     0.068 C 
ATOM     22  C   UNL d   1       1.190  -2.514  12.026  0.00  0.00     0.037 C 
ATOM     23  C   UNL d   1       0.479  -2.135  10.903  0.00  0.00     0.010 C 
ATOM     24  C   UNL d   1      -0.889  -1.858  10.964  0.00  0.00    -0.056 C 
ATOM     25  C   UNL d   1      -1.503  -1.802  12.218  0.00  0.00     0.010 C 
ATOM     26  C   UNL d   1      -0.762  -2.085  13.368  0.00  0.00     0.037 C 
BRANCH  24  27
ATOM     27  C   UNL d   1      -1.716  -1.677   9.719  0.00  0.00     0.063 C 
BRANCH  27  28
ATOM     28  C   UNL d   1      -0.970  -1.765   8.380  0.00  0.00     0.153 A 
ATOM     29  S   UNL d   1      -0.133  -3.360   7.989  0.00  0.00    -0.054 SA
ATOM     30  C   UNL d   1      -1.002  -3.586   6.508  0.00  0.00     0.287 A 
ATOM     31  O   UNL d   1      -0.783  -4.483   5.725  0.00  0.00    -0.260 OA
ATOM     32  N   UNL d   1      -1.946  -2.623   6.381  0.00  0.00    -0.287 N 
ATOM     33  C   UNL d   1      -2.003  -1.618   7.294  0.00  0.00     0.239 A 
ATOM     34  H   UNL d   1      -2.594  -2.656   5.613  0.00  0.00     0.172 HD
ATOM     35  O   UNL d   1      -2.830  -0.716   7.248  0.00  0.00    -0.272 OA
ENDBRANCH  27  28
ENDBRANCH  24  27
ENDBRANCH  20  21
ENDBRANCH  19  20
ENDBRANCH   1  19
TORSDOF 10
