@<TRIPOS>MOLECULE
*****
 47 47 0 0 0
SMALL
GASTEIGER

@<TRIPOS>ATOM
      1 C           6.2259    7.1670    0.4135 C.3     1  UNL1       -0.0653
      2 C           5.1434    6.0994    0.5630 C.3     1  UNL1       -0.0558
      3 C           5.5320    4.9416   -0.3222 C.3     1  UNL1       -0.0512
      4 C           4.6547    3.6934   -0.2980 C.3     1  UNL1       -0.0259
      5 C           5.2718    2.5293   -1.1404 C.3     1  UNL1        0.1008
      6 N           4.7984    1.2370   -0.5990 N.am    1  UNL1       -0.2883
      7 C           5.3622    0.0116   -0.5165 C.2     1  UNL1        0.2976
      8 N           6.5868   -0.2064   -1.0251 N.am    1  UNL1       -0.3133
      9 O           4.7551   -0.9078    0.0365 O.2     1  UNL1       -0.2531
     10 C           6.8195    2.6310   -1.0978 C.2     1  UNL1        0.2335
     11 O           7.5018    2.0081   -0.3006 O.2     1  UNL1       -0.2738
     12 N           7.4309    3.4966   -1.9804 N.am    1  UNL1       -0.3123
     13 C           8.8658    3.6471   -1.8369 C.3     1  UNL1        0.0271
     14 C           9.3490    4.9259   -2.4912 C.3     1  UNL1        0.0249
     15 N          10.7876    5.0568   -2.3984 N.pl3   1  UNL1       -0.3371
     16 C          11.4380    6.2545   -2.6414 C.ar    1  UNL1        0.1054
     17 C          12.5921    6.1690   -3.4495 C.ar    1  UNL1       -0.0342
     18 C          13.3407    7.2980   -3.7954 C.ar    1  UNL1       -0.0596
     19 C          12.9221    8.5566   -3.3874 C.ar    1  UNL1       -0.0552
     20 C          11.7940    8.6784   -2.5839 C.ar    1  UNL1        0.0175
     21 C          11.0712    7.5380   -2.1875 C.ar    1  UNL1        0.2937
     22 N           9.9955    7.7820   -1.2165 N.pl3   1  UNL1        0.0815
     23 O           9.4161    8.8784   -1.2764 O.2     1  UNL1        0.0415
     24 O           9.7400    6.9145   -0.3695 O.co2   1  UNL1       -0.5760
     25 H           5.9978    8.0389    1.0268 H       1  UNL1        0.0230
     26 H           6.3221    7.4863   -0.6315 H       1  UNL1        0.0230
     27 H           7.2030    6.7759    0.7233 H       1  UNL1        0.0230
     28 H           4.1702    6.4930    0.2620 H       1  UNL1        0.0263
     29 H           5.0900    5.7698    1.6051 H       1  UNL1        0.0263
     30 H           6.5370    4.6686    0.0163 H       1  UNL1        0.0266
     31 H           5.5746    5.3108   -1.3517 H       1  UNL1        0.0266
     32 H           3.6516    3.9387   -0.6729 H       1  UNL1        0.0288
     33 H           4.5170    3.3715    0.7426 H       1  UNL1        0.0288
     34 H           4.9138    2.6030   -2.1752 H       1  UNL1        0.0595
     35 H           3.8230    1.1892   -0.3325 H       1  UNL1        0.1510
     36 H           7.2337    0.5719   -1.0392 H       1  UNL1        0.1465
     37 H           7.0514   -0.9919   -0.5867 H       1  UNL1        0.1465
     38 H           6.9168    4.3105   -2.2866 H       1  UNL1        0.1488
     39 H           9.3271    2.7613   -2.2844 H       1  UNL1        0.0477
     40 H           9.1323    3.6554   -0.7700 H       1  UNL1        0.0477
     41 H           8.7980    5.7386   -2.0195 H       1  UNL1        0.0476
     42 H           9.0488    4.9544   -3.5420 H       1  UNL1        0.0476
     43 H          11.3225    4.3270   -1.9312 H       1  UNL1        0.1463
     44 H          12.9016    5.2044   -3.8537 H       1  UNL1        0.0638
     45 H          14.2456    7.1932   -4.3896 H       1  UNL1        0.0618
     46 H          13.4763    9.4440   -3.6799 H       1  UNL1        0.0620
     47 H          11.4967    9.6683   -2.2450 H       1  UNL1        0.0686
@<TRIPOS>UNITY_ATOM_ATTR
22 1
charge 1
24 1
charge -1
@<TRIPOS>BOND
     1     1     2    1
     2     2     3    1
     3     3     4    1
     4     6     7   am
     5     7     8   am
     6     7     9    2
     7     5    10    1
     8    10    11    2
     9    10    12   am
    10    12    13    1
    11    13    14    1
    12    14    15    1
    13    15    16    1
    14    16    17   ar
    15    17    18   ar
    16    18    19   ar
    17    19    20   ar
    18    20    21   ar
    19    16    21   ar
    20    21    22    1
    21    22    23    2
    22    22    24    1
    23     5     6    1
    24     5     4    1
    25     1    25    1
    26     1    26    1
    27     1    27    1
    28     2    28    1
    29     2    29    1
    30     3    30    1
    31     3    31    1
    32     4    32    1
    33     4    33    1
    34     5    34    1
    35     6    35    1
    36     8    36    1
    37     8    37    1
    38    12    38    1
    39    13    39    1
    40    13    40    1
    41    14    41    1
    42    14    42    1
    43    15    43    1
    44    17    44    1
    45    18    45    1
    46    19    46    1
    47    20    47    1
