REMARK  11 active torsions:
REMARK  status: ('A' for Active; 'I' for Inactive)
REMARK    1  A    between atoms: C_2  and  C_3 
REMARK    2  A    between atoms: C_2  and  N_11 
REMARK    3  A    between atoms: C_3  and  C_4 
REMARK    4  A    between atoms: C_4  and  C_5 
REMARK       I    between atoms: N_11  and  C_12 
REMARK       I    between atoms: C_12  and  N_14 
REMARK    5  A    between atoms: N_14  and  C_15 
REMARK    6  A    between atoms: C_15  and  C_16 
REMARK    7  A    between atoms: C_16  and  O_17 
REMARK    8  A    between atoms: C_16  and  C_18 
REMARK    9  A    between atoms: C_18  and  O_19 
REMARK   10  A    between atoms: O_19  and  C_20 
REMARK   11  A    between atoms: C_23  and  N_24 
ROOT
ATOM      1  N   UNL d   1       3.184   1.295   0.399  0.00  0.00    -0.339 N 
ATOM      2  C   UNL d   1       4.543   1.482   0.490  0.00  0.00     0.316 C 
ATOM      3  O   UNL d   1       5.368   0.593   0.270  0.00  0.00    -0.247 OA
ATOM      4  N   UNL d   1       4.933   2.757   0.809  0.00  0.00    -0.341 N 
ATOM      5  H   UNL d   1       2.566   2.060   0.623  0.00  0.00     0.164 HD
ATOM      6  H   UNL d   1       4.258   3.435   1.136  0.00  0.00     0.164 HD
ENDROOT
BRANCH   4   7
ATOM      7  C   UNL d   1       6.360   3.072   0.937  0.00  0.00     0.158 C 
BRANCH   7   8
ATOM      8  C   UNL d   1       6.648   4.504   1.428  0.00  0.00     0.160 C 
BRANCH   8   9
ATOM      9  O   UNL d   1       6.017   4.686   2.705  0.00  0.00    -0.392 OA
ATOM     10  H   UNL d   1       6.474   4.113   3.345  0.00  0.00     0.210 HD
ENDBRANCH   8   9
BRANCH   8  11
ATOM     11  C   UNL d   1       8.171   4.776   1.524  0.00  0.00     0.209 C 
BRANCH  11  12
ATOM     12  O   UNL d   1       8.393   6.100   2.040  0.00  0.00    -0.349 OA
BRANCH  12  13
ATOM     13  C   UNL d   1       9.690   6.540   2.079  0.00  0.00     0.069 A 
ATOM     14  C   UNL d   1      10.026   7.374   3.154  0.00  0.00     0.039 A 
ATOM     15  C   UNL d   1      11.285   7.985   3.221  0.00  0.00     0.039 A 
ATOM     16  C   UNL d   1      12.237   7.704   2.236  0.00  0.00     0.103 A 
ATOM     17  C   UNL d   1      11.908   6.880   1.153  0.00  0.00     0.039 A 
ATOM     18  C   UNL d   1      10.631   6.308   1.075  0.00  0.00     0.039 A 
BRANCH  16  19
ATOM     19  N   UNL d   1      13.605   8.227   2.366  0.00  0.00    -0.116 N 
ATOM     20  O   UNL d   1      13.863   8.931   3.352  0.00  0.00    -0.532 OA
ATOM     21  O   UNL d   1      14.427   7.910   1.494  0.00  0.00    -0.532 OA
ENDBRANCH  16  19
ENDBRANCH  12  13
ENDBRANCH  11  12
ENDBRANCH   8  11
ENDBRANCH   7   8
ENDBRANCH   4   7
BRANCH   1  22
ATOM     22  C   UNL d   1       2.599  -0.002  -0.002  0.00  0.00     0.082 C 
ATOM     23  C   UNL d   1       1.065   0.016   0.041  0.00  0.00     0.032 C 
BRANCH  22  24
ATOM     24  C   UNL d   1       3.042  -0.359  -1.421  0.00  0.00     0.029 C 
BRANCH  24  25
ATOM     25  C   UNL d   1       2.558  -1.720  -1.934  0.00  0.00     0.040 C 
BRANCH  25  26
ATOM     26  C   UNL d   1       3.072  -2.022  -3.322  0.00  0.00    -0.058 A 
ATOM     27  C   UNL d   1       3.034  -3.335  -3.803  0.00  0.00     0.007 A 
ATOM     28  C   UNL d   1       3.606  -3.638  -5.038  0.00  0.00     0.001 A 
ATOM     29  C   UNL d   1       4.136  -2.625  -5.838  0.00  0.00     0.000 A 
ATOM     30  C   UNL d   1       4.129  -1.311  -5.393  0.00  0.00     0.001 A 
ATOM     31  C   UNL d   1       3.601  -1.016  -4.146  0.00  0.00     0.007 A 
ENDBRANCH  25  26
ENDBRANCH  24  25
ENDBRANCH  22  24
ENDBRANCH   1  22
TORSDOF 11
