@<TRIPOS>MOLECULE
*****
 53 56 0 0 0
SMALL
GASTEIGER

@<TRIPOS>ATOM
      1 N          -2.3390    0.0187    0.0263 N.pl3   1  UNL1       -0.3273
      2 C          -0.9821    0.0130    0.0081 C.ar    1  UNL1        0.2173
      3 N          -0.3480    1.1773   -0.0045 N.ar    1  UNL1       -0.1941
      4 C           0.9650    1.0639   -0.0500 C.ar    1  UNL1        0.1805
      5 C           1.8488    2.2946    0.0038 C.3     1  UNL1        0.0295
      6 N           3.3743    1.9745    0.0212 N.4     1  UNL1        0.2429
      7 C           3.7601    1.1667    1.2926 C.3     1  UNL1       -0.0152
      8 C           5.2053    0.6612    1.2263 C.3     1  UNL1        0.0554
      9 N           5.4308   -0.0646   -0.0213 N.am    1  UNL1       -0.2849
     10 C           5.6512   -1.4494   -0.1415 C.2     1  UNL1        0.2822
     11 O           5.7755   -1.9466   -1.2697 O.2     1  UNL1       -0.2666
     12 C           5.6363   -2.2749    1.0580 C.ar    1  UNL1        0.1892
     13 C           4.6552   -2.4900    2.0127 C.ar    1  UNL1       -0.0113
     14 C           5.1693   -3.4190    2.9475 C.ar    1  UNL1       -0.0231
     15 C           6.4299   -3.7413    2.5066 C.ar    1  UNL1        0.0928
     16 O           6.7177   -3.0677    1.3575 O.2     1  UNL1       -0.4583
     17 C           5.2604    0.7762   -1.2136 C.3     1  UNL1        0.0554
     18 C           3.8196    1.3007   -1.3126 C.3     1  UNL1       -0.0152
     19 N           1.6223   -0.0960   -0.0905 N.ar    1  UNL1       -0.1937
     20 C           0.9140   -1.1931   -0.0173 C.ar    1  UNL1        0.2242
     21 N           1.6282   -2.3721    0.1259 N.pl3   1  UNL1       -0.2835
     22 C           1.0687   -3.6426    0.0142 C.ar    1  UNL1        0.0341
     23 C           1.3674   -4.6122    0.9684 C.ar    1  UNL1       -0.0404
     24 C           0.7943   -5.8763    0.8782 C.ar    1  UNL1       -0.0595
     25 C          -0.1010   -6.1631   -0.1524 C.ar    1  UNL1       -0.0500
     26 C          -0.3810   -5.2087   -1.1384 C.ar    1  UNL1        0.0566
     27 C          -1.2862   -5.5305   -2.2941 C.3     1  UNL1        0.4175
     28 F          -0.8239   -6.5807   -3.0233 F       1  UNL1       -0.1659
     29 F          -2.5456   -5.8573   -1.9012 F       1  UNL1       -0.1659
     30 F          -1.4243   -4.4977   -3.1741 F       1  UNL1       -0.1659
     31 C           0.2214   -3.9546   -1.0502 C.ar    1  UNL1       -0.0288
     32 N          -0.4017   -1.1730    0.0231 N.ar    1  UNL1       -0.1810
     33 H          -2.8323    0.8890   -0.0475 H       1  UNL1        0.1452
     34 H          -2.7997   -0.8770   -0.0238 H       1  UNL1        0.1452
     35 H           1.6441    2.8745    0.9127 H       1  UNL1        0.0898
     36 H           1.6657    2.9373   -0.8650 H       1  UNL1        0.0898
     37 H           3.8540    2.8800    0.0762 H       1  UNL1        0.2039
     38 H           3.1157    0.2963    1.3931 H       1  UNL1        0.0830
     39 H           3.5797    1.8104    2.1581 H       1  UNL1        0.0830
     40 H           5.4367    0.0467    2.0965 H       1  UNL1        0.0517
     41 H           5.8885    1.5152    1.2372 H       1  UNL1        0.0517
     42 H           3.6745   -2.0449    2.0273 H       1  UNL1        0.0657
     43 H           4.6777   -3.8171    3.8261 H       1  UNL1        0.0649
     44 H           7.1988   -4.4070    2.8816 H       1  UNL1        0.1029
     45 H           5.5301    0.2436   -2.1307 H       1  UNL1        0.0517
     46 H           5.9393    1.6295   -1.1134 H       1  UNL1        0.0517
     47 H           3.1597    0.4660   -1.5475 H       1  UNL1        0.0830
     48 H           3.7014    2.0501   -2.1033 H       1  UNL1        0.0830
     49 H           2.6110   -2.3160   -0.1004 H       1  UNL1        0.1550
     50 H           1.9972   -4.3686    1.8197 H       1  UNL1        0.0636
     51 H           1.0399   -6.6362    1.6147 H       1  UNL1        0.0618
     52 H          -0.5774   -7.1407   -0.1913 H       1  UNL1        0.0623
     53 H           0.0081   -3.2024   -1.8093 H       1  UNL1        0.0642
@<TRIPOS>UNITY_ATOM_ATTR
6 1
charge 1
@<TRIPOS>BOND
     1     1     2    1
     2     2     3   ar
     3     3     4   ar
     4     4     5    1
     5     5     6    1
     6     6     7    1
     7     7     8    1
     8     8     9    1
     9     9    10   am
    10    10    11    2
    11    10    12    1
    12    12    13   ar
    13    13    14   ar
    14    14    15   ar
    15    15    16   ar
    16    12    16   ar
    17     9    17    1
    18    17    18    1
    19     6    18    1
    20     4    19   ar
    21    19    20   ar
    22    20    21    1
    23    21    22    1
    24    22    23   ar
    25    23    24   ar
    26    24    25   ar
    27    25    26   ar
    28    26    27    1
    29    27    28    1
    30    27    29    1
    31    27    30    1
    32    26    31   ar
    33    22    31   ar
    34    20    32   ar
    35     2    32   ar
    36     1    33    1
    37     1    34    1
    38     5    35    1
    39     5    36    1
    40     6    37    1
    41     7    38    1
    42     7    39    1
    43     8    40    1
    44     8    41    1
    45    13    42    1
    46    14    43    1
    47    15    44    1
    48    17    45    1
    49    17    46    1
    50    18    47    1
    51    18    48    1
    52    21    49    1
    53    23    50    1
    54    24    51    1
    55    25    52    1
    56    31    53    1
