@<TRIPOS>MOLECULE
*****
 55 56 0 0 0
SMALL
GASTEIGER

@<TRIPOS>ATOM
      1 C           7.7625    2.5771   -8.3310 C.3     1  UNL1       -0.0495
      2 C           7.0993    1.3280   -8.8793 C.3     1  UNL1        0.0089
      3 N           7.3148    0.1585   -8.0437 N.am    1  UNL1       -0.3128
      4 C           6.7788   -1.0630   -8.4207 C.2     1  UNL1        0.2507
      5 O           6.1036   -1.1769   -9.4423 O.2     1  UNL1       -0.2721
      6 C           7.0732   -2.2354   -7.4709 C.3     1  UNL1        0.1651
      7 O           6.5178   -3.4173   -8.0412 O.3     1  UNL1       -0.4827
      8 C           6.5923   -4.5613   -7.3022 C.ar    1  UNL1        0.1230
      9 C           6.7710   -5.7274   -8.0481 C.ar    1  UNL1       -0.0198
     10 C           6.7716   -6.9527   -7.4152 C.ar    1  UNL1       -0.0566
     11 C           6.6832   -6.9929   -6.0323 C.ar    1  UNL1       -0.0406
     12 C           6.3644   -5.8722   -5.2602 C.ar    1  UNL1        0.0312
     13 N           5.8457   -5.9549   -3.9709 N.pl3   1  UNL1       -0.3330
     14 C           5.7251   -7.1892   -3.1668 C.3     1  UNL1        0.0949
     15 C           6.9910   -7.3886   -2.3092 C.3     1  UNL1       -0.0381
     16 C           5.4138   -8.4774   -3.9628 C.2     1  UNL1        0.2404
     17 O           6.1481   -9.4555   -3.7796 O.2     1  UNL1       -0.2733
     18 N           4.3335   -8.4588   -4.8531 N.am    1  UNL1       -0.2387
     19 C           4.2804   -9.4380   -5.8138 C.2     1  UNL1        0.3062
     20 O           5.0302  -10.4151   -5.7812 O.2     1  UNL1       -0.2524
     21 N           3.3260   -9.3335   -6.8033 N.am    1  UNL1       -0.2962
     22 C           3.1083  -10.4193   -7.7955 C.3     1  UNL1        0.0246
     23 C           4.3846  -11.0483   -8.3791 C.3     1  UNL1       -0.0345
     24 C           3.9895  -12.4133   -8.9108 C.3     1  UNL1       -0.0513
     25 C           2.7599  -12.8316   -8.1135 C.3     1  UNL1       -0.0513
     26 C           2.3499  -11.6353   -7.2456 C.3     1  UNL1       -0.0345
     27 C           6.3546   -4.6365   -5.9229 C.ar    1  UNL1        0.0009
     28 H           7.5745    3.4303   -8.9920 H       1  UNL1        0.0245
     29 H           8.8458    2.4436   -8.2487 H       1  UNL1        0.0245
     30 H           7.3753    2.8249   -7.3377 H       1  UNL1        0.0245
     31 H           7.4864    1.1075   -9.8808 H       1  UNL1        0.0459
     32 H           6.0188    1.4874   -8.9718 H       1  UNL1        0.0459
     33 H           7.8700    0.2407   -7.2023 H       1  UNL1        0.1488
     34 H           6.6237   -1.9984   -6.5019 H       1  UNL1        0.0795
     35 H           8.1576   -2.3578   -7.3722 H       1  UNL1        0.0795
     36 H           6.9295   -5.6882   -9.1211 H       1  UNL1        0.0654
     37 H           6.8354   -7.8886   -7.9650 H       1  UNL1        0.0619
     38 H           6.8518   -7.9725   -5.6071 H       1  UNL1        0.0636
     39 H           5.9731   -5.1135   -3.4104 H       1  UNL1        0.1468
     40 H           4.8835   -7.0538   -2.4776 H       1  UNL1        0.0591
     41 H           7.8935   -7.4694   -2.9277 H       1  UNL1        0.0252
     42 H           6.9242   -8.3118   -1.7183 H       1  UNL1        0.0252
     43 H           7.1439   -6.5641   -1.6055 H       1  UNL1        0.0252
     44 H           3.9418   -7.5519   -5.0684 H       1  UNL1        0.1591
     45 H           2.6512   -8.5807   -6.7862 H       1  UNL1        0.1505
     46 H           2.5188   -9.9889   -8.6184 H       1  UNL1        0.0499
     47 H           5.1430  -11.2691   -7.6330 H       1  UNL1        0.0283
     48 H           4.8710  -10.4064   -9.1171 H       1  UNL1        0.0283
     49 H           4.8094  -13.1286   -8.7643 H       1  UNL1        0.0266
     50 H           3.7798  -12.3724   -9.9831 H       1  UNL1        0.0266
     51 H           2.9769  -13.7011   -7.4809 H       1  UNL1        0.0266
     52 H           1.9596  -13.1330   -8.7987 H       1  UNL1        0.0266
     53 H           2.6240  -11.8277   -6.2031 H       1  UNL1        0.0283
     54 H           1.2625  -11.4947   -7.2695 H       1  UNL1        0.0283
     55 H           6.1058   -3.7423   -5.3619 H       1  UNL1        0.0673
@<TRIPOS>BOND
     1     1     2    1
     2     2     3    1
     3     3     4   am
     4     4     5    2
     5     4     6    1
     6     6     7    1
     7     7     8    1
     8     8     9   ar
     9     9    10   ar
    10    10    11   ar
    11    11    12   ar
    12    12    13    1
    13    14    16    1
    14    16    17    2
    15    16    18   am
    16    18    19   am
    17    19    20    2
    18    19    21   am
    19    21    22    1
    20    22    23    1
    21    23    24    1
    22    24    25    1
    23    25    26    1
    24    22    26    1
    25    12    27   ar
    26     8    27   ar
    27    14    15    1
    28    14    13    1
    29     1    28    1
    30     1    29    1
    31     1    30    1
    32     2    31    1
    33     2    32    1
    34     3    33    1
    35     6    34    1
    36     6    35    1
    37     9    36    1
    38    10    37    1
    39    11    38    1
    40    13    39    1
    41    14    40    1
    42    15    41    1
    43    15    42    1
    44    15    43    1
    45    18    44    1
    46    21    45    1
    47    22    46    1
    48    23    47    1
    49    23    48    1
    50    24    49    1
    51    24    50    1
    52    25    51    1
    53    25    52    1
    54    26    53    1
    55    26    54    1
    56    27    55    1
