REMARK  9 active torsions:
REMARK  status: ('A' for Active; 'I' for Inactive)
REMARK    1  A    between atoms: O_2  and  C_3 
REMARK    2  A    between atoms: C_3  and  C_4 
REMARK    3  A    between atoms: C_4  and  O_5 
REMARK    4  A    between atoms: O_5  and  C_6 
REMARK    5  A    between atoms: C_12  and  C_13 
REMARK       I    between atoms: C_13  and  N_15 
REMARK    6  A    between atoms: N_15  and  N_16 
REMARK       I    between atoms: N_16  and  C_17 
REMARK    7  A    between atoms: C_17  and  C_19 
REMARK    8  A    between atoms: C_22  and  N_23 
REMARK       I    between atoms: N_23  and  C_24 
REMARK    9  A    between atoms: C_24  and  C_26 
ROOT
ATOM      1  N   UNL d   1       3.686   5.540   1.800  0.00  0.00    -0.263 N 
ATOM      2  C   UNL d   1       2.346   5.189   1.909  0.00  0.00     0.270 C 
ATOM      3  O   UNL d   1       1.870   4.179   1.384  0.00  0.00    -0.266 OA
ATOM      4  H   UNL d   1       4.117   6.331   2.275  0.00  0.00     0.190 HD
ENDROOT
BRANCH   1   5
ATOM      5  N   UNL d   1       4.559   4.696   1.073  0.00  0.00    -0.263 N 
ATOM      6  C   UNL d   1       5.916   4.962   0.979  0.00  0.00     0.273 C 
ATOM      7  O   UNL d   1       6.426   5.939   1.535  0.00  0.00    -0.266 OA
ATOM      8  H   UNL d   1       4.130   3.914   0.578  0.00  0.00     0.190 HD
BRANCH   6   9
ATOM      9  C   UNL d   1       6.778   4.005   0.180  0.00  0.00     0.068 A 
ATOM     10  C   UNL d   1       8.163   4.271   0.092  0.00  0.00     0.039 A 
ATOM     11  C   UNL d   1       9.012   3.414  -0.620  0.00  0.00     0.012 A 
ATOM     12  C   UNL d   1       8.508   2.282  -1.250  0.00  0.00     0.022 A 
ATOM     13 BR   UNL d   1      10.863   3.788  -0.750  0.00  0.00    -0.051 Br
ATOM     14  C   UNL d   1       7.143   2.008  -1.176  0.00  0.00     0.039 A 
ATOM     15  C   UNL d   1       6.279   2.854  -0.461  0.00  0.00     0.084 A 
BRANCH  15  16
ATOM     16  O   UNL d   1       4.926   2.645  -0.477  0.00  0.00    -0.348 OA
BRANCH  16  17
ATOM     17  C   UNL d   1       4.501   1.306  -0.201  0.00  0.00     0.201 C 
BRANCH  17  18
ATOM     18  C   UNL d   1       2.977   1.308  -0.189  0.00  0.00     0.193 C 
BRANCH  18  19
ATOM     19  O   UNL d   1       2.484  -0.005   0.060  0.00  0.00    -0.394 OA
ATOM     20  C   UNL d   1       1.061  -0.003   0.075  0.00  0.00     0.201 C 
ENDBRANCH  18  19
ENDBRANCH  17  18
ENDBRANCH  16  17
ENDBRANCH  15  16
ENDBRANCH   6   9
ENDBRANCH   1   5
BRANCH   2  21
ATOM     21  C   UNL d   1       1.433   6.099   2.664  0.00  0.00     0.033 A 
ATOM     22  C   UNL d   1       0.335   5.593   3.385  0.00  0.00     0.019 A 
ATOM     23  C   UNL d   1      -0.649   6.456   3.929  0.00  0.00     0.030 A 
ATOM     24  C   UNL d   1      -0.516   7.845   3.811  0.00  0.00     0.034 A 
ATOM     25  C   UNL d   1       0.583   8.316   3.079  0.00  0.00     0.030 A 
ATOM     26  C   UNL d   1       1.549   7.473   2.521  0.00  0.00     0.019 A 
BRANCH  24  27
ATOM     27  N   UNL d   1      -1.450   8.728   4.441  0.00  0.00    -0.327 N 
ATOM     28  C   UNL d   1      -1.320  10.114   4.457  0.00  0.00     0.226 C 
ATOM     29  O   UNL d   1      -0.454  10.731   3.836  0.00  0.00    -0.273 OA
ATOM     30  H   UNL d   1      -2.199   8.303   4.976  0.00  0.00     0.169 HD
BRANCH  28  31
ATOM     31  C   UNL d   1      -2.340  10.932   5.261  0.00  0.00     0.078 C 
ATOM     32  C   UNL d   1      -2.497  10.453   6.706  0.00  0.00     0.014 C 
ATOM     33  C   UNL d   1      -3.353  11.407   7.542  0.00  0.00     0.001 C 
ATOM     34  C   UNL d   1      -2.817  12.834   7.515  0.00  0.00     0.000 C 
ATOM     35  C   UNL d   1      -2.709  13.340   6.085  0.00  0.00     0.001 C 
ATOM     36  C   UNL d   1      -1.854  12.407   5.247  0.00  0.00     0.014 C 
ENDBRANCH  28  31
ENDBRANCH  24  27
ENDBRANCH   2  21
TORSDOF 9
