REMARK  5 active torsions:
REMARK  status: ('A' for Active; 'I' for Inactive)
REMARK    1  A    between atoms: C_5  and  N_4 
REMARK    2  A    between atoms: C_17  and  N_19 
REMARK    3  A    between atoms: N_19  and  C_20 
REMARK    4  A    between atoms: C_20  and  C_21 
REMARK    5  A    between atoms: C_21  and  C_22 
ROOT
ATOM      1  C   UNL d   1       5.641  -6.448   1.344  0.00  0.00     0.073 C 
ATOM      2  C   UNL d   1       5.179  -5.071   0.990  0.00  0.00     0.069 C 
ATOM      3  N   UNL d   1       6.004  -4.088   0.760  0.00  0.00    -0.171 NA
ATOM      4  N   UNL d   1       5.221  -3.000   0.339  0.00  0.00    -0.200 N 
ATOM      5  C   UNL d   1       3.880  -3.318   0.175  0.00  0.00     0.280 C 
ATOM      6  O   UNL d   1       2.971  -2.666  -0.328  0.00  0.00    -0.265 OA
ATOM      7  C   UNL d   1       3.771  -4.658   0.820  0.00  0.00     0.081 C 
ATOM      8  C   UNL d   1       2.629  -5.210   1.283  0.00  0.00     0.019 C 
ATOM      9  C   UNL d   1       2.613  -6.470   2.142  0.00  0.00     0.069 C 
ENDROOT
BRANCH   8  10
ATOM     10  N   UNL d   1       1.366  -4.647   1.075  0.00  0.00    -0.392 N 
ATOM     11  H   UNL d   1       1.345  -3.726   0.626  0.00  0.00     0.159 HD
BRANCH  10  12
ATOM     12  C   UNL d   1       0.168  -5.150   1.697  0.00  0.00     0.124 C 
BRANCH  12  13
ATOM     13  C   UNL d   1      -1.074  -4.312   1.462  0.00  0.00     0.057 C 
BRANCH  13  14
ATOM     14  C   UNL d   1      -2.294  -4.922   2.104  0.00  0.00    -0.044 A 
ATOM     15  C   UNL d   1      -2.403  -5.599   3.259  0.00  0.00    -0.005 A 
ATOM     16  C   UNL d   1      -1.499  -5.983   4.295  0.00  0.00     0.014 A 
ATOM     17  C   UNL d   1      -3.837  -5.950   3.365  0.00  0.00     0.039 A 
ATOM     18  C   UNL d   1      -1.946  -6.672   5.350  0.00  0.00     0.001 A 
ATOM     19  C   UNL d   1      -3.345  -7.010   5.488  0.00  0.00     0.002 A 
ATOM     20  C   UNL d   1      -4.279  -6.683   4.573  0.00  0.00     0.030 A 
ATOM     21  N   UNL d   1      -4.510  -5.538   2.357  0.00  0.00    -0.381 N 
ATOM     22  C   UNL d   1      -3.624  -4.831   1.396  0.00  0.00     0.108 A 
ATOM     23  H   UNL d   1      -5.517  -5.662   2.267  0.00  0.00     0.160 HD
ATOM     24  C   UNL d   1      -3.611  -5.549   0.054  0.00  0.00     0.037 C 
ENDBRANCH  13  14
ENDBRANCH  12  13
ENDBRANCH  10  12
ENDBRANCH   8  10
BRANCH   4  25
ATOM     25  C   UNL d   1       5.780  -1.664   0.149  0.00  0.00     0.280 C 
ATOM     26  N   UNL d   1       6.829  -1.750  -0.849  0.00  0.00    -0.357 N 
ATOM     27  C   UNL d   1       8.103  -1.621  -0.309  0.00  0.00     0.047 A 
ATOM     28  H   UNL d   1       6.634  -1.657  -1.830  0.00  0.00     0.162 HD
ATOM     29  C   UNL d   1       9.267  -1.965  -0.981  0.00  0.00     0.030 A 
ATOM     30  C   UNL d   1       8.170  -1.278   1.047  0.00  0.00     0.030 A 
ATOM     31  C   UNL d   1      10.493  -1.919  -0.307  0.00  0.00     0.002 A 
ATOM     32  C   UNL d   1      10.553  -1.520   1.034  0.00  0.00     0.002 A 
ATOM     33  C   UNL d   1       9.382  -1.194   1.722  0.00  0.00     0.021 A 
ATOM     34  S   UNL d   1       6.542  -1.035   1.704  0.00  0.00    -0.079 SA
ENDBRANCH   4  25
TORSDOF 5
