REMARK  14 active torsions:
REMARK  status: ('A' for Active; 'I' for Inactive)
REMARK    1  A    between atoms: C_2  and  O_3 
REMARK    2  A    between atoms: O_3  and  C_4 
REMARK    3  A    between atoms: C_6  and  C_7 
REMARK    4  A    between atoms: C_7  and  O_9 
REMARK    5  A    between atoms: O_9  and  C_10 
REMARK    6  A    between atoms: C_10  and  C_11 
REMARK       I    between atoms: C_11  and  N_13 
REMARK    7  A    between atoms: N_13  and  C_14 
REMARK    8  A    between atoms: C_17  and  N_18 
REMARK    9  A    between atoms: N_18  and  C_19 
REMARK   10  A    between atoms: N_18  and  C_25 
REMARK   11  A    between atoms: C_31  and  O_32 
REMARK   12  A    between atoms: O_32  and  C_33 
REMARK   13  A    between atoms: C_35  and  O_36 
REMARK   14  A    between atoms: O_36  and  C_37 
ROOT
ATOM      1  C   UNL d   1       9.922   6.050  -0.761  0.00  0.00     0.246 C 
ATOM      2  O   UNL d   1      10.450   5.042  -1.233  0.00  0.00    -0.271 OA
ATOM      3  N   UNL d   1      10.598   7.265  -0.602  0.00  0.00    -0.325 N 
ATOM      4  H   UNL d   1      10.201   8.009  -0.042  0.00  0.00     0.169 HD
ENDROOT
BRANCH   1   5
ATOM      5  C   UNL d   1       8.463   6.005  -0.266  0.00  0.00     0.282 C 
BRANCH   5   6
ATOM      6  O   UNL d   1       7.937   4.659  -0.425  0.00  0.00    -0.308 OA
BRANCH   6   7
ATOM      7  C   UNL d   1       6.654   4.447  -0.006  0.00  0.00     0.293 C 
ATOM      8  O   UNL d   1       5.946   5.300   0.474  0.00  0.00    -0.259 OA
BRANCH   7   9
ATOM      9  C   UNL d   1       6.179   3.029  -0.274  0.00  0.00     0.045 A 
ATOM     10  C   UNL d   1       4.826   2.696   0.002  0.00  0.00     0.057 A 
ATOM     11  C   UNL d   1       4.231   1.479  -0.429  0.00  0.00     0.105 A 
ATOM     12  C   UNL d   1       5.058   0.565  -1.138  0.00  0.00     0.135 A 
ATOM     13  C   UNL d   1       6.444   0.853  -1.331  0.00  0.00     0.105 A 
ATOM     14  C   UNL d   1       6.993   2.070  -0.885  0.00  0.00     0.057 A 
BRANCH  11  15
ATOM     15  O   UNL d   1       2.838   1.480  -0.319  0.00  0.00    -0.349 OA
BRANCH  15  16
ATOM     16  C   UNL d   1       2.163   0.401   0.334  0.00  0.00     0.171 C 
ATOM     17  C   UNL d   1       0.659   0.304   0.169  0.00  0.00     0.034 C 
ENDBRANCH  15  16
ENDBRANCH  11  15
BRANCH  12  18
ATOM     18  O   UNL d   1       4.701  -0.580  -1.807  0.00  0.00    -0.346 OA
BRANCH  18  19
ATOM     19  C   UNL d   1       3.491  -1.161  -1.536  0.00  0.00     0.171 C 
ATOM     20  C   UNL d   1       3.054  -2.495  -2.057  0.00  0.00     0.034 C 
ENDBRANCH  18  19
ENDBRANCH  12  18
BRANCH  13  21
ATOM     21  O   UNL d   1       7.348   0.038  -2.015  0.00  0.00    -0.349 OA
BRANCH  21  22
ATOM     22  C   UNL d   1       6.833  -1.179  -2.575  0.00  0.00     0.171 C 
ATOM     23  C   UNL d   1       7.859  -1.983  -3.320  0.00  0.00     0.034 C 
ENDBRANCH  21  22
ENDBRANCH  13  21
ENDBRANCH   7   9
ENDBRANCH   6   7
ENDBRANCH   5   6
ENDBRANCH   1   5
BRANCH   3  24
ATOM     24  C   UNL d   1      11.927   7.451  -1.064  0.00  0.00     0.034 A 
ATOM     25  C   UNL d   1      12.837   8.237  -0.363  0.00  0.00     0.032 A 
ATOM     26  C   UNL d   1      14.123   8.464  -0.891  0.00  0.00     0.032 A 
ATOM     27  C   UNL d   1      14.585   7.843  -2.070  0.00  0.00     0.035 A 
ATOM     28  C   UNL d   1      13.648   7.038  -2.729  0.00  0.00     0.032 A 
ATOM     29  C   UNL d   1      12.340   6.878  -2.260  0.00  0.00     0.032 A 
BRANCH  27  30
ATOM     30  N   UNL d   1      15.908   8.077  -2.547  0.00  0.00    -0.343 N 
BRANCH  30  31
ATOM     31  C   UNL d   1      16.934   8.667  -1.762  0.00  0.00     0.035 C 
ATOM     32  C   UNL d   1      17.716   9.715  -2.268  0.00  0.00     0.029 C 
ATOM     33  C   UNL d   1      18.832  10.182  -1.574  0.00  0.00     0.002 C 
ATOM     34  C   UNL d   1      19.084   9.728  -0.284  0.00  0.00     0.000 C 
ATOM     35  C   UNL d   1      18.264   8.754   0.280  0.00  0.00     0.002 C 
ATOM     36  C   UNL d   1      17.219   8.206  -0.466  0.00  0.00     0.029 C 
ENDBRANCH  30  31
BRANCH  30  37
ATOM     37  C   UNL d   1      16.367   7.338  -3.781  0.00  0.00     0.082 C 
ATOM     38  C   UNL d   1      15.647   7.881  -5.026  0.00  0.00     0.032 C 
ATOM     39  C   UNL d   1      17.880   7.405  -4.082  0.00  0.00     0.032 C 
ENDBRANCH  30  37
ENDBRANCH  27  30
ENDBRANCH   3  24
TORSDOF 14
