REMARK  10 active torsions:
REMARK  status: ('A' for Active; 'I' for Inactive)
REMARK    1  A    between atoms: C_2  and  O_3 
REMARK    2  A    between atoms: O_3  and  C_4 
REMARK    3  A    between atoms: C_8  and  C_9 
REMARK    4  A    between atoms: N_10  and  N_11 
REMARK       I    between atoms: N_11  and  C_12 
REMARK    5  A    between atoms: C_12  and  C_14 
REMARK    6  A    between atoms: C_16  and  C_17 
REMARK    7  A    between atoms: C_21  and  O_22 
REMARK    8  A    between atoms: O_22  and  C_23 
REMARK    9  A    between atoms: C_23  and  C_24 
REMARK   10  A    between atoms: C_33  and  O_34 
ROOT
ATOM      1  C   UNL d   1       2.860   7.912  -1.397  0.00  0.00     0.148 A 
ATOM      2  C   UNL d   1       3.920   8.845  -1.230  0.00  0.00     0.071 A 
ATOM      3  C   UNL d   1       3.502  10.027  -1.811  0.00  0.00     0.063 A 
ATOM      4  N   UNL d   1       2.252   9.754  -2.300  0.00  0.00    -0.277 N 
ATOM      5  N   UNL d   1       1.843   8.493  -2.067  0.00  0.00    -0.169 NA
ATOM      6  H   UNL d   1       1.636  10.376  -2.817  0.00  0.00     0.189 HD
ENDROOT
BRANCH   1   7
ATOM      7  C   UNL d   1       2.838   6.491  -0.979  0.00  0.00     0.292 C 
ATOM      8  N   UNL d   1       3.343   6.229   0.306  0.00  0.00    -0.242 N 
ATOM      9  H   UNL d   1       3.605   6.987   0.925  0.00  0.00     0.192 HD
ATOM     10  O   UNL d   1       2.414   5.598  -1.723  0.00  0.00    -0.264 OA
BRANCH   8  11
ATOM     11  N   UNL d   1       3.363   4.935   0.762  0.00  0.00    -0.183 NA
ATOM     12  C   UNL d   1       3.760   4.671   1.970  0.00  0.00     0.153 C 
BRANCH  12  13
ATOM     13  C   UNL d   1       3.775   3.254   2.459  0.00  0.00     0.019 A 
ATOM     14  C   UNL d   1       4.236   2.965   3.752  0.00  0.00     0.016 A 
ATOM     15  C   UNL d   1       4.255   1.642   4.212  0.00  0.00     0.004 A 
ATOM     16  C   UNL d   1       3.840   0.605   3.374  0.00  0.00     0.040 A 
ATOM     17  C   UNL d   1       3.391   0.871   2.072  0.00  0.00     0.102 A 
ATOM     18  C   UNL d   1       3.330   2.204   1.633  0.00  0.00     0.110 A 
BRANCH  17  19
ATOM     19  O   UNL d   1       3.069  -0.264   1.373  0.00  0.00    -0.349 OA
BRANCH  19  20
ATOM     20  C   UNL d   1       2.581  -0.151   0.037  0.00  0.00     0.171 C 
ATOM     21  C   UNL d   1       1.065  -0.068   0.047  0.00  0.00     0.034 C 
ENDBRANCH  19  20
ENDBRANCH  17  19
BRANCH  18  22
ATOM     22  O   UNL d   1       2.804   2.486   0.400  0.00  0.00    -0.357 OA
ATOM     23  H   UNL d   1       2.908   3.440   0.188  0.00  0.00     0.217 HD
ENDBRANCH  18  22
ENDBRANCH  12  13
ENDBRANCH   8  11
ENDBRANCH   1   7
BRANCH   3  24
ATOM     24  C   UNL d   1       4.188  11.305  -1.952  0.00  0.00    -0.005 A 
ATOM     25  C   UNL d   1       5.426  11.367  -2.603  0.00  0.00     0.014 A 
ATOM     26  C   UNL d   1       6.136  12.567  -2.668  0.00  0.00     0.004 A 
ATOM     27  C   UNL d   1       5.612  13.722  -2.092  0.00  0.00     0.037 A 
ATOM     28  C   UNL d   1       4.368  13.680  -1.464  0.00  0.00     0.070 A 
ATOM     29  C   UNL d   1       3.663  12.472  -1.388  0.00  0.00     0.050 A 
BRANCH  28  30
ATOM     30  O   UNL d   1       3.736  14.743  -0.888  0.00  0.00    -0.347 OA
BRANCH  30  31
ATOM     31  C   UNL d   1       4.405  16.002  -0.949  0.00  0.00     0.214 C 
BRANCH  31  32
ATOM     32  C   UNL d   1       3.602  17.052  -0.223  0.00  0.00    -0.034 A 
ATOM     33  C   UNL d   1       3.870  18.408  -0.456  0.00  0.00     0.009 A 
ATOM     34  C   UNL d   1       3.292  19.386   0.351  0.00  0.00     0.001 A 
ATOM     35  C   UNL d   1       2.378  19.025   1.340  0.00  0.00     0.000 A 
ATOM     36  C   UNL d   1       2.066  17.684   1.547  0.00  0.00     0.001 A 
ATOM     37  C   UNL d   1       2.684  16.702   0.778  0.00  0.00     0.009 A 
ENDBRANCH  31  32
ENDBRANCH  30  31
ENDBRANCH  28  30
ENDBRANCH   3  24
TORSDOF 10
