@<TRIPOS>MOLECULE
*****
 49 52 0 0 0
SMALL
GASTEIGER

@<TRIPOS>ATOM
      1 C           2.4726   -0.0019   -0.0129 C.3     1  UNL1       -0.0397
      2 C           0.9714    0.0028    0.0030 C.ar    1  UNL1       -0.0504
      3 C           0.2414   -1.1870    0.0057 C.ar    1  UNL1       -0.0581
      4 C          -1.1593   -1.1521    0.0004 C.ar    1  UNL1       -0.0494
      5 C          -1.8605    0.0715   -0.0101 C.ar    1  UNL1        0.0371
      6 C          -3.3603    0.0346   -0.0459 C.2     1  UNL1        0.2497
      7 O          -3.8848   -1.0795   -0.0878 O.2     1  UNL1       -0.2698
      8 N          -4.0633    1.2378   -0.0998 N.am    1  UNL1       -0.2607
      9 C          -5.4467    1.2546   -0.1430 C.ar    1  UNL1        0.1651
     10 N          -6.2132    2.0973   -0.8344 N.ar    1  UNL1       -0.2285
     11 C          -7.5328    1.7826   -0.5641 C.ar    1  UNL1        0.0655
     12 C          -7.7098    0.8021    0.3674 C.ar    1  UNL1        0.0150
     13 S          -6.2792    0.2067    0.9584 S.2     1  UNL1       -0.0567
     14 C          -9.1072    0.4741    0.6697 C.3     1  UNL1       -0.0185
     15 C          -9.8254    1.1298   -0.5460 C.3     1  UNL1       -0.0318
     16 C          -8.8673    2.2847   -1.0556 C.3     1  UNL1        0.0791
     17 C          -9.0514    2.5307   -2.5399 C.2     1  UNL1        0.2276
     18 O         -10.1101    2.9830   -2.9698 O.2     1  UNL1       -0.2747
     19 N          -8.0004    2.1286   -3.3068 N.am    1  UNL1       -0.2641
     20 C          -8.0239    2.2188   -4.6564 C.ar    1  UNL1        0.1646
     21 N          -8.4103    3.1599   -5.4865 N.ar    1  UNL1       -0.2291
     22 C          -8.1229    2.7606   -6.8070 C.ar    1  UNL1        0.0593
     23 C          -8.3598    3.7555   -7.9348 C.3     1  UNL1        0.0666
     24 C          -8.0508    3.3575   -9.3831 C.2     1  UNL1        0.2163
     25 N          -7.5781    2.1345   -9.7182 N.am    1  UNL1       -0.3290
     26 O          -8.2276    4.1520  -10.3211 O.2     1  UNL1       -0.2756
     27 C          -7.6517    1.4614   -6.8344 C.ar    1  UNL1        0.0007
     28 S          -7.3722    0.8029   -5.3003 S.2     1  UNL1       -0.0602
     29 C          -1.1230    1.2569    0.0049 C.ar    1  UNL1       -0.0494
     30 C           0.2782    1.2194    0.0069 C.ar    1  UNL1       -0.0581
     31 H           2.8760   -1.0198    0.0004 H       1  UNL1        0.0278
     32 H           2.8620    0.5247    0.8646 H       1  UNL1        0.0278
     33 H           2.8395    0.4923   -0.9186 H       1  UNL1        0.0278
     34 H           0.7524   -2.1487    0.0061 H       1  UNL1        0.0620
     35 H          -1.6999   -2.0991   -0.0014 H       1  UNL1        0.0625
     36 H          -3.6136    2.1045   -0.3470 H       1  UNL1        0.1571
     37 H          -9.4098    0.9599    1.6022 H       1  UNL1        0.0319
     38 H          -9.2822   -0.6023    0.7324 H       1  UNL1        0.0319
     39 H         -10.8124    1.5070   -0.2602 H       1  UNL1        0.0279
     40 H          -9.9845    0.3681   -1.3245 H       1  UNL1        0.0279
     41 H          -9.1215    3.2186   -0.5462 H       1  UNL1        0.0459
     42 H          -7.3810    1.4126   -2.9491 H       1  UNL1        0.1567
     43 H          -7.7640    4.6608   -7.7338 H       1  UNL1        0.0422
     44 H          -9.4104    4.0806   -7.9143 H       1  UNL1        0.0422
     45 H          -7.3106    1.4157   -9.0880 H       1  UNL1        0.1449
     46 H          -7.3841    1.9159  -10.6836 H       1  UNL1        0.1449
     47 H          -7.3773    0.7704   -7.5934 H       1  UNL1        0.0712
     48 H          -1.5988    2.2292    0.0130 H       1  UNL1        0.0625
     49 H           0.8320    2.1562    0.0071 H       1  UNL1        0.0620
@<TRIPOS>BOND
     1     1     2    1
     2     2     3   ar
     3     3     4   ar
     4     4     5   ar
     5     5     6    1
     6     6     7    2
     7     6     8   am
     8     8     9    1
     9     9    10   ar
    10    10    11   ar
    11    11    12   ar
    12    12    13   ar
    13     9    13   ar
    14    12    14    1
    15    14    15    1
    16    15    16    1
    17    11    16    1
    18    17    18    2
    19    17    19   am
    20    19    20    1
    21    20    21   ar
    22    21    22   ar
    23    22    23    1
    24    23    24    1
    25    24    25   am
    26    24    26    2
    27    22    27   ar
    28    27    28   ar
    29    20    28   ar
    30     5    29   ar
    31    29    30   ar
    32     2    30   ar
    33    16    17    1
    34     1    31    1
    35     1    32    1
    36     1    33    1
    37     3    34    1
    38     4    35    1
    39     8    36    1
    40    14    37    1
    41    14    38    1
    42    15    39    1
    43    15    40    1
    44    16    41    1
    45    19    42    1
    46    23    43    1
    47    23    44    1
    48    25    45    1
    49    25    46    1
    50    27    47    1
    51    29    48    1
    52    30    49    1
