REMARK  8 active torsions:
REMARK  status: ('A' for Active; 'I' for Inactive)
REMARK    1  A    between atoms: C_3  and  C_4 
REMARK       I    between atoms: C_4  and  N_6 
REMARK    2  A    between atoms: N_6  and  C_7 
REMARK    3  A    between atoms: C_14  and  C_15 
REMARK    4  A    between atoms: C_18  and  O_19 
REMARK    5  A    between atoms: C_24  and  C_25 
REMARK    6  A    between atoms: C_25  and  C_26 
REMARK    7  A    between atoms: C_26  and  C_27 
REMARK    8  A    between atoms: C_27  and  O_28 
ROOT
ATOM      1  C   UNL d   1       0.940   0.423  -0.130  0.00  0.00     0.070 C 
ATOM      2  C   UNL d   1       2.395   0.079  -0.072  0.00  0.00     0.037 C 
ATOM      3  C   UNL d   1       2.957  -1.157   0.021  0.00  0.00     0.062 C 
ATOM      4  C   UNL d   1       4.526  -1.267   0.025  0.00  0.00     0.202 C 
ATOM      5  N   UNL d   1       5.168   0.047   0.249  0.00  0.00    -0.083 N 
ATOM      6  N   UNL d   1       6.474   0.251   0.545  0.00  0.00    -0.140 NA
ATOM      7  C   UNL d   1       6.543   1.595   0.519  0.00  0.00     0.166 A 
ATOM      8  N   UNL d   1       5.349   2.229   0.253  0.00  0.00    -0.046 NA
ATOM      9  C   UNL d   1       4.513   1.234   0.106  0.00  0.00     0.726 A 
ATOM     10  N   UNL d   1       3.195   1.219  -0.139  0.00  0.00    -0.192 N 
ATOM     11  H   UNL d   1       2.731   2.110  -0.295  0.00  0.00     0.184 HD
ENDROOT
BRANCH   3  12
ATOM     12  C   UNL d   1       2.295  -2.528   0.071  0.00  0.00     0.256 C 
ATOM     13  O   UNL d   1       3.017  -3.507  -0.013  0.00  0.00    -0.267 OA
ATOM     14  N   UNL d   1       0.919  -2.632   0.163  0.00  0.00    -0.323 N 
ATOM     15  H   UNL d   1       0.286  -1.889   0.039  0.00  0.00     0.169 HD
BRANCH  14  16
ATOM     16  C   UNL d   1       0.161  -3.799   0.291  0.00  0.00     0.041 A 
ATOM     17  C   UNL d   1      -1.011  -3.875  -0.490  0.00  0.00     0.030 A 
ATOM     18  C   UNL d   1      -1.848  -4.978  -0.385  0.00  0.00     0.002 A 
ATOM     19  C   UNL d   1      -1.538  -5.969   0.540  0.00  0.00     0.001 A 
ATOM     20  C   UNL d   1      -0.427  -5.835   1.383  0.00  0.00     0.009 A 
ATOM     21  C   UNL d   1       0.430  -4.737   1.283  0.00  0.00    -0.035 A 
ATOM     22  C   UNL d   1       1.499  -4.510   2.315  0.00  0.00     0.050 C 
ENDBRANCH  14  16
ENDBRANCH   3  12
BRANCH   4  23
ATOM     23  C   UNL d   1       5.064  -1.840  -1.290  0.00  0.00    -0.028 A 
ATOM     24  C   UNL d   1       4.763  -1.214  -2.514  0.00  0.00     0.012 A 
ATOM     25  C   UNL d   1       5.292  -1.690  -3.713  0.00  0.00     0.037 A 
ATOM     26  C   UNL d   1       6.119  -2.805  -3.697  0.00  0.00     0.065 A 
ATOM     27  C   UNL d   1       6.401  -3.465  -2.506  0.00  0.00     0.037 A 
ATOM     28  C   UNL d   1       5.876  -2.987  -1.303  0.00  0.00     0.012 A 
BRANCH  26  29
ATOM     29  O   UNL d   1       6.686  -3.289  -4.838  0.00  0.00    -0.361 OA
ATOM     30  H   UNL d   1       6.443  -2.709  -5.577  0.00  0.00     0.217 HD
ENDBRANCH  26  29
ENDBRANCH   4  23
BRANCH   7  31
ATOM     31  C   UNL d   1       7.793   2.378   0.782  0.00  0.00     0.085 C 
BRANCH  31  32
ATOM     32  C   UNL d   1       9.026   1.504   1.005  0.00  0.00     0.034 C 
BRANCH  32  33
ATOM     33  C   UNL d   1      10.281   2.319   1.280  0.00  0.00     0.164 C 
BRANCH  33  34
ATOM     34  O   UNL d   1      11.390   1.448   1.470  0.00  0.00    -0.401 OA
ATOM     35  H   UNL d   1      11.173   0.849   2.206  0.00  0.00     0.209 HD
ENDBRANCH  33  34
ENDBRANCH  32  33
ENDBRANCH  31  32
ENDBRANCH   7  31
TORSDOF 8
