@<TRIPOS>MOLECULE
*****
 56 58 0 0 0
SMALL
GASTEIGER

@<TRIPOS>ATOM
      1 C           0.9397   -0.4343   -0.1180 C.3     1  UNL1        0.0820
      2 O           2.3727   -0.5564   -0.1955 O.3     1  UNL1       -0.4644
      3 C           2.9654   -1.0495    0.9375 C.2     1  UNL1        0.3407
      4 O           2.3850   -1.5754    1.8580 O.2     1  UNL1       -0.2449
      5 C           4.4439   -0.8229    0.9862 C.ar    1  UNL1        0.0801
      6 C           5.2605   -1.8550    1.4529 C.ar    1  UNL1       -0.0460
      7 C           6.6430   -1.6745    1.6453 C.ar    1  UNL1       -0.0609
      8 C           7.2570   -0.4741    1.3132 C.ar    1  UNL1       -0.0600
      9 C           6.4588    0.5695    0.8634 C.ar    1  UNL1       -0.0397
     10 C           5.0458    0.4020    0.7401 C.ar    1  UNL1        0.0467
     11 N           4.3287    1.5245    0.3072 N.am    1  UNL1       -0.2961
     12 C           3.0507    1.9840    0.6721 C.2     1  UNL1        0.1375
     13 S           2.4511    1.8961    2.2414 S.2     1  UNL1       -0.0183
     14 N           2.4243    2.7438   -0.3708 N.am    1  UNL1       -0.3058
     15 C           3.1330    3.9594   -0.7000 C.3     1  UNL1        0.0373
     16 C           4.6461    4.0871   -0.5799 C.3     1  UNL1        0.0599
     17 O           5.0947    5.3754   -0.9377 O.3     1  UNL1       -0.3935
     18 C           0.8894    2.7745   -0.5170 C.3     1  UNL1        0.0439
     19 C           0.0665    3.9692   -1.0103 C.ar    1  UNL1        0.0317
     20 C          -0.9399    3.9580   -1.9593 C.ar    1  UNL1       -0.0426
     21 C          -1.3986    5.2833   -2.3729 C.ar    1  UNL1        0.0039
     22 C          -0.5904    6.4277   -2.7918 C.ar    1  UNL1       -0.0410
     23 C           0.9033    6.3744   -2.8180 C.3     1  UNL1       -0.0391
     24 C          -1.0583    7.7669   -2.6885 C.ar    1  UNL1       -0.0552
     25 C          -2.3971    7.9813   -2.5566 C.ar    1  UNL1       -0.0482
     26 C          -2.9283    9.2591   -3.1302 C.3     1  UNL1       -0.0396
     27 C          -3.0466    6.8705   -2.0341 C.ar    1  UNL1       -0.0327
     28 C          -2.2299    5.8025   -1.4754 C.ar    1  UNL1        0.0753
     29 N          -1.4203    5.8413   -0.3306 N.ar    1  UNL1       -0.2127
     30 C          -0.2132    5.0666   -0.2231 C.ar    1  UNL1        0.2176
     31 O           0.9112    5.8095    0.1122 O.3     1  UNL1       -0.4922
     32 H           0.5893    0.0409   -1.0382 H       1  UNL1        0.0661
     33 H           0.6214    0.1998    0.7182 H       1  UNL1        0.0661
     34 H           0.4451   -1.4005   -0.0481 H       1  UNL1        0.0661
     35 H           4.8083   -2.8119    1.6884 H       1  UNL1        0.0626
     36 H           7.2367   -2.4771    2.0735 H       1  UNL1        0.0618
     37 H           8.3352   -0.3509    1.4193 H       1  UNL1        0.0618
     38 H           6.9548    1.5224    0.6606 H       1  UNL1        0.0636
     39 H           5.0144    2.2295    0.1659 H       1  UNL1        0.1538
     40 H           2.8042    4.6357    0.0780 H       1  UNL1        0.0487
     41 H           2.8390    4.2554   -1.7056 H       1  UNL1        0.0487
     42 H           5.1510    3.3613   -1.2277 H       1  UNL1        0.0573
     43 H           4.9253    3.9685    0.4767 H       1  UNL1        0.0573
     44 H           5.0947    5.4058   -1.9067 H       1  UNL1        0.2095
     45 H           0.4329    2.4460    0.4193 H       1  UNL1        0.0515
     46 H           0.7041    1.9869   -1.2541 H       1  UNL1        0.0515
     47 H          -1.7402    3.2415   -1.6382 H       1  UNL1        0.0629
     48 H           1.2365    5.3475   -2.7320 H       1  UNL1        0.0278
     49 H           1.2545    6.9781   -1.9678 H       1  UNL1        0.0278
     50 H           1.3377    6.8083   -3.7095 H       1  UNL1        0.0278
     51 H          -0.3782    8.6124   -2.5989 H       1  UNL1        0.0623
     52 H          -2.1008    9.9761   -3.2697 H       1  UNL1        0.0278
     53 H          -3.6567    9.7537   -2.4867 H       1  UNL1        0.0278
     54 H          -3.3454    9.1025   -4.1322 H       1  UNL1        0.0278
     55 H          -4.1125    6.7582   -2.2563 H       1  UNL1        0.0642
     56 H           1.5352    5.6932   -0.6310 H       1  UNL1        0.2937
@<TRIPOS>BOND
     1     1     2    1
     2     2     3    1
     3     3     4    2
     4     3     5    1
     5     5     6   ar
     6     6     7   ar
     7     7     8   ar
     8     8     9   ar
     9     9    10   ar
    10     5    10   ar
    11    10    11    1
    12    11    12    1
    13    12    13    2
    14    12    14    1
    15    14    15    1
    16    15    16    1
    17    16    17    1
    18    14    18    1
    19    18    19    1
    20    19    20   ar
    21    20    21   ar
    22    21    22   ar
    23    22    23    1
    24    22    24   ar
    25    24    25   ar
    26    25    26    1
    27    25    27   ar
    28    27    28   ar
    29    21    28   ar
    30    28    29   ar
    31    29    30   ar
    32    19    30   ar
    33    30    31    1
    34     1    32    1
    35     1    33    1
    36     1    34    1
    37     6    35    1
    38     7    36    1
    39     8    37    1
    40     9    38    1
    41    11    39    1
    42    15    40    1
    43    15    41    1
    44    16    42    1
    45    16    43    1
    46    17    44    1
    47    18    45    1
    48    18    46    1
    49    20    47    1
    50    23    48    1
    51    23    49    1
    52    23    50    1
    53    24    51    1
    54    26    52    1
    55    26    53    1
    56    26    54    1
    57    27    55    1
    58    31    56    1
