@<TRIPOS>MOLECULE
*****
 53 54 0 0 0
SMALL
GASTEIGER

@<TRIPOS>ATOM
      1 C           0.8825    0.0554   -0.0555 C.3     1  UNL1       -0.0587
      2 C           2.4177   -0.0157   -0.0453 C.3     1  UNL1       -0.0215
      3 C           2.9082    0.7268    1.2100 C.3     1  UNL1       -0.0587
      4 C           2.9600   -1.4433   -0.0689 C.ar    1  UNL1       -0.0448
      5 C           2.1465   -2.5460   -0.3373 C.ar    1  UNL1       -0.0576
      6 C           2.6443   -3.8431   -0.1888 C.ar    1  UNL1       -0.0494
      7 C           4.0001   -4.0919    0.1176 C.ar    1  UNL1        0.0371
      8 C           4.4534   -5.5206    0.1091 C.2     1  UNL1        0.2495
      9 O           3.5586   -6.3409   -0.1258 O.2     1  UNL1       -0.2698
     10 N           5.8039   -5.8778    0.3186 N.am    1  UNL1       -0.2627
     11 C           6.3371   -7.1863    0.2761 C.2     1  UNL1        0.1533
     12 S           5.4548   -8.5924   -0.0382 S.2     1  UNL1       -0.0170
     13 N           7.7165   -7.2831    0.5243 N.am    1  UNL1       -0.2455
     14 N           8.3422   -8.5911    0.5165 N.am    1  UNL1       -0.2351
     15 C           9.6938   -8.7394    0.7715 C.2     1  UNL1        0.2292
     16 O          10.4165   -7.7709    1.0012 O.2     1  UNL1       -0.2743
     17 C          10.2165  -10.1853    0.7462 C.3     1  UNL1        0.0285
     18 C          11.7234  -10.2530    1.0681 C.3     1  UNL1       -0.0103
     19 C          12.2594  -11.6868    1.0492 C.3     1  UNL1        0.0901
     20 O          13.6646  -11.7017    1.3250 O.3     1  UNL1       -0.4905
     21 C          14.3220  -12.9060    1.2120 C.ar    1  UNL1        0.1388
     22 C          15.3208  -13.1124    2.1864 C.ar    1  UNL1       -0.0171
     23 C          16.1714  -14.2267    2.1314 C.ar    1  UNL1       -0.0398
     24 C          15.9880  -15.1804    1.1389 C.ar    1  UNL1        0.0426
     25 CL         16.9441  -16.6089    1.1113 Cl      1  UNL1       -0.0835
     26 C          15.0115  -14.9972    0.1706 C.ar    1  UNL1       -0.0215
     27 C          14.1910  -13.8625    0.1888 C.ar    1  UNL1        0.0839
     28 CL         13.1178  -13.7691   -1.1628 Cl      1  UNL1       -0.0797
     29 C           4.8267   -2.9968    0.3434 C.ar    1  UNL1       -0.0494
     30 C           4.3119   -1.6943    0.2322 C.ar    1  UNL1       -0.0576
     31 H           0.5296    1.0902   -0.0093 H       1  UNL1        0.0235
     32 H           0.4640   -0.4805    0.8057 H       1  UNL1        0.0235
     33 H           0.4646   -0.3862   -0.9664 H       1  UNL1        0.0235
     34 H           2.7904    0.5069   -0.9367 H       1  UNL1        0.0343
     35 H           2.5806    0.2073    2.1186 H       1  UNL1        0.0235
     36 H           2.5243    1.7508    1.2419 H       1  UNL1        0.0235
     37 H           3.9991    0.8007    1.2507 H       1  UNL1        0.0235
     38 H           1.1095   -2.4362   -0.6488 H       1  UNL1        0.0621
     39 H           1.9414   -4.6680   -0.3172 H       1  UNL1        0.0625
     40 H           6.4560   -5.1271    0.4883 H       1  UNL1        0.1569
     41 H           8.3514   -6.5109    0.7225 H       1  UNL1        0.1718
     42 H           7.7181   -9.3745    0.3193 H       1  UNL1        0.1728
     43 H          10.0322  -10.6181   -0.2468 H       1  UNL1        0.0360
     44 H           9.6631  -10.7896    1.4756 H       1  UNL1        0.0360
     45 H          11.9352   -9.7917    2.0384 H       1  UNL1        0.0302
     46 H          12.2798   -9.6635    0.3266 H       1  UNL1        0.0302
     47 H          12.0422  -12.0382    0.0496 H       1  UNL1        0.0696
     48 H          11.7429  -12.3135    1.7831 H       1  UNL1        0.0696
     49 H          15.4458  -12.4038    3.0047 H       1  UNL1        0.0655
     50 H          16.9734  -14.3443    2.8571 H       1  UNL1        0.0633
     51 H          14.8957  -15.7291   -0.6249 H       1  UNL1        0.0648
     52 H           5.8665   -3.1039    0.6201 H       1  UNL1        0.0625
     53 H           4.9926   -0.8629    0.4009 H       1  UNL1        0.0621
@<TRIPOS>BOND
     1     1     2    1
     2     2     3    1
     3     2     4    1
     4     4     5   ar
     5     5     6   ar
     6     6     7   ar
     7     7     8    1
     8     8     9    2
     9     8    10   am
    10    10    11    1
    11    11    12    2
    12    11    13    1
    13    13    14    1
    14    14    15   am
    15    15    16    2
    16    15    17    1
    17    17    18    1
    18    18    19    1
    19    19    20    1
    20    20    21    1
    21    21    22   ar
    22    22    23   ar
    23    23    24   ar
    24    24    25    1
    25    24    26   ar
    26    26    27   ar
    27    21    27   ar
    28    27    28    1
    29     7    29   ar
    30    29    30   ar
    31     4    30   ar
    32     1    31    1
    33     1    32    1
    34     1    33    1
    35     2    34    1
    36     3    35    1
    37     3    36    1
    38     3    37    1
    39     5    38    1
    40     6    39    1
    41    10    40    1
    42    13    41    1
    43    14    42    1
    44    17    43    1
    45    17    44    1
    46    18    45    1
    47    18    46    1
    48    19    47    1
    49    19    48    1
    50    22    49    1
    51    23    50    1
    52    26    51    1
    53    29    52    1
    54    30    53    1
