@<TRIPOS>MOLECULE
*****
 40 41 0 0 0
SMALL
GASTEIGER

@<TRIPOS>ATOM
      1 C           2.4843    0.0059   -0.0132 C.3     1  UNL1       -0.0397
      2 C           0.9828    0.0206    0.0016 C.ar    1  UNL1       -0.0497
      3 C           0.2581   -1.1736    0.0035 C.ar    1  UNL1       -0.0588
      4 C          -1.1344   -1.1373   -0.0009 C.ar    1  UNL1       -0.0608
      5 C          -1.8095    0.0952   -0.0049 C.ar    1  UNL1       -0.0496
      6 C          -1.1033    1.3149    0.0040 C.ar    1  UNL1        0.0384
      7 C          -1.8681    2.6254    0.0144 C.2     1  UNL1        0.2602
      8 O          -3.1013    2.6202    0.0089 O.2     1  UNL1       -0.2687
      9 N          -1.1409    3.8130    0.0336 N.am    1  UNL1       -0.2292
     10 N          -1.7958    5.0809    0.0445 N.am    1  UNL1       -0.2179
     11 C          -1.0100    6.2246    0.0967 C.2     1  UNL1        0.3164
     12 O           0.2183    6.1613    0.1476 O.2     1  UNL1       -0.2513
     13 N          -1.7132    7.4076    0.0531 N.am    1  UNL1       -0.2917
     14 C          -1.0791    8.7496    0.0567 C.3     1  UNL1        0.0471
     15 C          -0.1722    8.9130   -1.1742 C.3     1  UNL1       -0.0424
     16 C          -2.0612    9.9361    0.1083 C.ar    1  UNL1       -0.0246
     17 C          -1.5842   11.2652    0.1290 C.ar    1  UNL1       -0.0387
     18 C          -2.4862   12.3268    0.1177 C.ar    1  UNL1        0.0279
     19 N          -3.8233   12.1712    0.1139 N.ar    1  UNL1       -0.2632
     20 C          -4.2726   10.9026    0.1189 C.ar    1  UNL1        0.0279
     21 C          -3.4510    9.7812    0.1128 C.ar    1  UNL1       -0.0387
     22 C           0.2984    1.2540    0.0044 C.ar    1  UNL1       -0.0467
     23 H           2.8808   -1.0148    0.0004 H       1  UNL1        0.0278
     24 H           2.8736    0.5296    0.8656 H       1  UNL1        0.0278
     25 H           2.8516    0.4972   -0.9198 H       1  UNL1        0.0278
     26 H           0.7717   -2.1345    0.0050 H       1  UNL1        0.0620
     27 H          -1.6919   -2.0730   -0.0025 H       1  UNL1        0.0618
     28 H          -2.8984    0.0863   -0.0150 H       1  UNL1        0.0625
     29 H          -0.1267    3.8699    0.0397 H       1  UNL1        0.1732
     30 H          -2.8112    5.0645    0.0421 H       1  UNL1        0.1744
     31 H          -2.7138    7.3332    0.0619 H       1  UNL1        0.1509
     32 H          -0.4605    8.7982    0.9638 H       1  UNL1        0.0546
     33 H          -0.7646    8.8841   -2.0952 H       1  UNL1        0.0251
     34 H           0.5787    8.1219   -1.2370 H       1  UNL1        0.0251
     35 H           0.3798    9.8593   -1.1612 H       1  UNL1        0.0251
     36 H          -0.5227   11.4982    0.1355 H       1  UNL1        0.0636
     37 H          -2.1470   13.3602    0.1057 H       1  UNL1        0.0829
     38 H          -5.3533   10.7916    0.1236 H       1  UNL1        0.0829
     39 H          -3.9357    8.8168    0.1015 H       1  UNL1        0.0636
     40 H           0.8995    2.1557    0.0044 H       1  UNL1        0.0628
@<TRIPOS>BOND
     1     1     2    1
     2     2     3   ar
     3     3     4   ar
     4     4     5   ar
     5     5     6   ar
     6     6     7    1
     7     7     8    2
     8     7     9   am
     9     9    10    1
    10    10    11   am
    11    11    12    2
    12    11    13   am
    13    13    14    1
    14    14    15    1
    15    14    16    1
    16    16    17   ar
    17    17    18   ar
    18    18    19   ar
    19    19    20   ar
    20    20    21   ar
    21    16    21   ar
    22     6    22   ar
    23     2    22   ar
    24     1    23    1
    25     1    24    1
    26     1    25    1
    27     3    26    1
    28     4    27    1
    29     5    28    1
    30     9    29    1
    31    10    30    1
    32    13    31    1
    33    14    32    1
    34    15    33    1
    35    15    34    1
    36    15    35    1
    37    17    36    1
    38    18    37    1
    39    20    38    1
    40    21    39    1
    41    22    40    1
