REMARK  7 active torsions:
REMARK  status: ('A' for Active; 'I' for Inactive)
REMARK    1  A    between atoms: C_3  and  N_4 
REMARK       I    between atoms: N_4  and  C_5 
REMARK    2  A    between atoms: C_5  and  C_7 
REMARK    3  A    between atoms: C_7  and  S_8 
REMARK    4  A    between atoms: S_8  and  C_9 
REMARK    5  A    between atoms: C_13  and  C_14 
REMARK    6  A    between atoms: C_14  and  C_15 
REMARK    7  A    between atoms: N_24  and  C_25 
ROOT
ATOM      1  N   UNL d   1       2.802  -2.556  -0.121  0.00  0.00    -0.326 N 
ATOM      2  C   UNL d   1       3.585  -3.692   0.046  0.00  0.00     0.231 C 
ATOM      3  O   UNL d   1       4.726  -3.614   0.522  0.00  0.00    -0.272 OA
ATOM      4  H   UNL d   1       1.800  -2.675  -0.209  0.00  0.00     0.168 HD
ENDROOT
BRANCH   2   5
ATOM      5  C   UNL d   1       2.965  -5.070  -0.297  0.00  0.00     0.185 C 
BRANCH   5   6
ATOM      6  S   UNL d   1       4.326  -6.263  -0.525  0.00  0.00    -0.083 SA
BRANCH   6   7
ATOM      7  C   UNL d   1       3.731  -7.877  -0.538  0.00  0.00     0.167 A 
ATOM      8  N   UNL d   1       4.520  -8.914  -0.398  0.00  0.00    -0.228 NA
ATOM      9  C   UNL d   1       3.741 -10.023  -0.605  0.00  0.00     0.056 A 
ATOM     10  C   UNL d   1       4.366 -11.367  -0.519  0.00  0.00     0.072 C 
ATOM     11  C   UNL d   1       2.425  -9.650  -0.859  0.00  0.00     0.040 A 
ATOM     12  N   UNL d   1       2.451  -8.264  -0.807  0.00  0.00    -0.337 N 
ATOM     13  H   UNL d   1       1.675  -7.642  -0.969  0.00  0.00     0.168 HD
BRANCH  11  14
ATOM     14  C   UNL d   1       1.170 -10.438  -1.134  0.00  0.00     0.097 C 
BRANCH  14  15
ATOM     15  C   UNL d   1       1.335 -11.942  -1.032  0.00  0.00    -0.052 A 
ATOM     16  C   UNL d   1       1.216 -12.783  -2.147  0.00  0.00     0.007 A 
ATOM     17  C   UNL d   1       1.451 -14.157  -2.018  0.00  0.00     0.001 A 
ATOM     18  C   UNL d   1       1.933 -14.681  -0.819  0.00  0.00     0.000 A 
ATOM     19  C   UNL d   1       2.073 -13.853   0.288  0.00  0.00     0.001 A 
ATOM     20  C   UNL d   1       1.698 -12.512   0.199  0.00  0.00     0.007 A 
ENDBRANCH  14  15
ENDBRANCH  11  14
ENDBRANCH   6   7
ENDBRANCH   5   6
ENDBRANCH   2   5
BRANCH   1  21
ATOM     21  C   UNL d   1       3.279  -1.240  -0.059  0.00  0.00     0.060 A 
ATOM     22  C   UNL d   1       2.531  -0.115  -0.035  0.00  0.00     0.047 A 
ATOM     23  C   UNL d   1       1.038  -0.001   0.045  0.00  0.00     0.072 C 
ATOM     24  N   UNL d   1       3.354   1.015  -0.141  0.00  0.00    -0.300 N 
ATOM     25  N   UNL d   1       4.711   0.684  -0.123  0.00  0.00    -0.282 N 
ATOM     26  H   UNL d   1       3.066   1.845   0.381  0.00  0.00     0.187 HD
ATOM     27  C   UNL d   1       4.782  -0.840  -0.038  0.00  0.00     0.156 A 
ATOM     28  C   UNL d   1       5.606  -1.495  -1.133  0.00  0.00     0.041 C 
BRANCH  25  29
ATOM     29  C   UNL d   1       5.678   1.464  -0.803  0.00  0.00     0.051 A 
ATOM     30  C   UNL d   1       6.263   2.577  -0.173  0.00  0.00     0.031 A 
ATOM     31  C   UNL d   1       7.226   3.382  -0.821  0.00  0.00     0.002 A 
ATOM     32  C   UNL d   1       7.688   3.056  -2.092  0.00  0.00     0.000 A 
ATOM     33  C   UNL d   1       7.139   1.962  -2.738  0.00  0.00     0.002 A 
ATOM     34  C   UNL d   1       6.124   1.216  -2.115  0.00  0.00     0.031 A 
ENDBRANCH  25  29
ENDBRANCH   1  21
TORSDOF 7
