@<TRIPOS>MOLECULE
*****
 48 49 0 0 0
SMALL
GASTEIGER

@<TRIPOS>ATOM
      1 C          11.3580   -6.9696    1.3391 C.3     1  UNL1       -0.0440
      2 C          11.0231   -5.8602    2.2955 C.2     1  UNL1       -0.0793
      3 C          12.0902   -4.8529    2.6151 C.3     1  UNL1       -0.0440
      4 C           9.8165   -5.7666    2.8889 C.2     1  UNL1       -0.0809
      5 C           9.4546   -4.7433    3.8902 C.3     1  UNL1       -0.0052
      6 C           9.0688   -3.3333    3.4367 C.3     1  UNL1        0.0479
      7 C           9.5779   -2.1348    4.1742 C.2     1  UNL1        0.2173
      8 O          10.3145   -2.2535    5.1531 O.2     1  UNL1       -0.2755
      9 N           9.1623   -0.9107    3.6968 N.am    1  UNL1       -0.3123
     10 C           9.5192    0.3089    4.4097 C.3     1  UNL1        0.0418
     11 C           9.2798    1.6267    3.6218 C.3     1  UNL1        0.0956
     12 O           8.7272    1.3603    2.3314 O.3     1  UNL1       -0.3856
     13 C          10.5274    2.4861    3.4794 C.ar    1  UNL1       -0.0172
     14 C          11.8077    1.9108    3.4155 C.ar    1  UNL1       -0.0497
     15 C          12.9543    2.6966    3.4889 C.ar    1  UNL1        0.0159
     16 C          12.8336    4.0862    3.4593 C.ar    1  UNL1        0.2732
     17 N          14.0460    4.9035    3.3474 N.pl3   1  UNL1        0.0796
     18 O          15.1372    4.3150    3.3284 O.2     1  UNL1        0.0414
     19 O          13.9072    6.1302    3.2469 O.co2   1  UNL1       -0.5760
     20 C          11.5700    4.6902    3.4517 C.ar    1  UNL1        0.0159
     21 C          10.4221    3.8882    3.4686 C.ar    1  UNL1       -0.0497
     22 C           8.0348   -4.2606    4.0684 C.3     1  UNL1       -0.0163
     23 C           6.9392   -4.8148    3.1935 C.3     1  UNL1       -0.0585
     24 C           7.5872   -3.9875    5.4844 C.3     1  UNL1       -0.0585
     25 H          12.3760   -6.8713    0.9472 H       1  UNL1        0.0274
     26 H          10.6770   -6.9620    0.4819 H       1  UNL1        0.0274
     27 H          11.2937   -7.9457    1.8326 H       1  UNL1        0.0274
     28 H          13.0122   -5.0317    2.0580 H       1  UNL1        0.0274
     29 H          12.3343   -4.8847    3.6829 H       1  UNL1        0.0274
     30 H          11.7431   -3.8454    2.3629 H       1  UNL1        0.0274
     31 H           9.0779   -6.5395    2.6746 H       1  UNL1        0.0575
     32 H          10.0515   -4.8388    4.7951 H       1  UNL1        0.0356
     33 H           9.0008   -3.1716    2.3648 H       1  UNL1        0.0405
     34 H           8.4690   -0.8498    2.9588 H       1  UNL1        0.1488
     35 H          10.5599    0.2006    4.7274 H       1  UNL1        0.0491
     36 H           8.9625    0.3398    5.3533 H       1  UNL1        0.0491
     37 H           8.5291    2.2067    4.1757 H       1  UNL1        0.0659
     38 H           9.4359    0.9486    1.8084 H       1  UNL1        0.2103
     39 H          11.9404    0.8332    3.3378 H       1  UNL1        0.0623
     40 H          13.9230    2.2070    3.5643 H       1  UNL1        0.0685
     41 H          11.4639    5.7733    3.4418 H       1  UNL1        0.0685
     42 H           9.4423    4.3656    3.4744 H       1  UNL1        0.0623
     43 H           7.2732   -5.0154    2.1704 H       1  UNL1        0.0235
     44 H           6.1076   -4.1065    3.1353 H       1  UNL1        0.0235
     45 H           6.5624   -5.7537    3.6145 H       1  UNL1        0.0235
     46 H           8.3972   -3.6131    6.1180 H       1  UNL1        0.0235
     47 H           7.2149   -4.9048    5.9506 H       1  UNL1        0.0235
     48 H           6.7875   -3.2410    5.4853 H       1  UNL1        0.0235
@<TRIPOS>UNITY_ATOM_ATTR
17 1
charge 1
19 1
charge -1
@<TRIPOS>BOND
     1     1     2    1
     2     2     3    1
     3     2     4    2
     4     4     5    1
     5     5     6    1
     6     6     7    1
     7     7     8    2
     8     7     9   am
     9     9    10    1
    10    11    13    1
    11    13    14   ar
    12    14    15   ar
    13    15    16   ar
    14    16    17    1
    15    17    18    2
    16    17    19    1
    17    16    20   ar
    18    20    21   ar
    19    13    21   ar
    20     6    22    1
    21     5    22    1
    22    22    23    1
    23    22    24    1
    24    11    12    1
    25    11    10    1
    26     1    25    1
    27     1    26    1
    28     1    27    1
    29     3    28    1
    30     3    29    1
    31     3    30    1
    32     4    31    1
    33     5    32    1
    34     6    33    1
    35     9    34    1
    36    10    35    1
    37    10    36    1
    38    11    37    1
    39    12    38    1
    40    14    39    1
    41    15    40    1
    42    20    41    1
    43    21    42    1
    44    23    43    1
    45    23    44    1
    46    23    45    1
    47    24    46    1
    48    24    47    1
    49    24    48    1
