@<TRIPOS>MOLECULE
*****
 42 44 0 0 0
SMALL
GASTEIGER

@<TRIPOS>ATOM
      1 C           1.1024   -0.0508   -0.1525 C.3     1  UNL1       -0.0190
      2 C           2.6274    0.0199    0.0264 C.3     1  UNL1        0.1741
      3 O           3.0718    0.5834    1.2901 O.3     1  UNL1       -0.4797
      4 C           2.6972    1.8751    1.6061 C.ar    1  UNL1        0.1253
      5 C           1.3516    2.2863    1.6317 C.ar    1  UNL1       -0.0162
      6 C           0.9668    3.6007    1.8965 C.ar    1  UNL1       -0.0127
      7 C           1.9448    4.4687    2.2925 C.ar    1  UNL1        0.1665
      8 C           3.2565    4.0687    2.4025 C.ar    1  UNL1        0.1697
      9 C           3.6672    2.7807    2.0644 C.ar    1  UNL1        0.0256
     10 O           4.0402    5.0787    2.8795 O.3     1  UNL1       -0.4525
     11 C           3.0833    6.1628    2.9603 C.3     1  UNL1        0.2332
     12 O           1.7358    5.7562    2.6656 O.3     1  UNL1       -0.4526
     13 C           3.1426   -1.4583   -0.1640 C.2     1  UNL1        0.2695
     14 O           2.3806   -2.4253   -0.3230 O.2     1  UNL1       -0.2702
     15 N           4.5078   -1.6375   -0.2103 N.am    1  UNL1       -0.2321
     16 N           5.0869   -2.9495   -0.3804 N.am    1  UNL1       -0.2455
     17 C           6.4702   -3.0677   -0.5616 C.2     1  UNL1        0.1511
     18 S           7.4158   -1.6774   -0.7584 S.2     1  UNL1       -0.0171
     19 N           6.9473   -4.3948   -0.5794 N.am    1  UNL1       -0.2946
     20 C           8.3451   -4.7513   -0.5797 C.ar    1  UNL1        0.0512
     21 C           8.8506   -5.6339   -1.5562 C.ar    1  UNL1       -0.0380
     22 C          10.2357   -5.8981   -1.6415 C.ar    1  UNL1       -0.0459
     23 C          11.1167   -5.3012   -0.7416 C.ar    1  UNL1        0.0194
     24 BR         12.9785   -5.6228   -0.8378 Br      1  UNL1       -0.0502
     25 C          10.6285   -4.4880    0.2707 C.ar    1  UNL1       -0.0276
     26 C           9.2538   -4.2525    0.3782 C.ar    1  UNL1        0.0631
     27 CL          8.7357   -3.4902    1.8487 Cl      1  UNL1       -0.0816
     28 H           0.6606    0.9339   -0.3202 H       1  UNL1        0.0270
     29 H           0.6379   -0.5096    0.7296 H       1  UNL1        0.0270
     30 H           0.8086   -0.6234   -1.0360 H       1  UNL1        0.0270
     31 H           3.0515    0.6220   -0.7893 H       1  UNL1        0.0829
     32 H           0.5406    1.5841    1.5065 H       1  UNL1        0.0655
     33 H          -0.0715    3.9032    1.8315 H       1  UNL1        0.0656
     34 H           4.7073    2.4944    2.1780 H       1  UNL1        0.0692
     35 H           3.3672    6.9375    2.2386 H       1  UNL1        0.1166
     36 H           3.1047    6.5964    3.9672 H       1  UNL1        0.1166
     37 H           5.1675   -0.8717   -0.0809 H       1  UNL1        0.1729
     38 H           4.4188   -3.7179   -0.4460 H       1  UNL1        0.1718
     39 H           6.3073   -5.1069   -0.9131 H       1  UNL1        0.1539
     40 H           8.2036   -6.0915   -2.3018 H       1  UNL1        0.0637
     41 H          10.6247   -6.5541   -2.4203 H       1  UNL1        0.0629
     42 H          11.3067   -4.0509    0.9983 H       1  UNL1        0.0644
@<TRIPOS>BOND
     1     1     2    1
     2     2     3    1
     3     3     4    1
     4     4     5   ar
     5     5     6   ar
     6     6     7   ar
     7     7     8   ar
     8     8     9   ar
     9     4     9   ar
    10     8    10    1
    11    10    11    1
    12    11    12    1
    13     7    12    1
    14     2    13    1
    15    13    14    2
    16    13    15   am
    17    15    16    1
    18    16    17    1
    19    17    18    2
    20    17    19    1
    21    19    20    1
    22    20    21   ar
    23    21    22   ar
    24    22    23   ar
    25    23    24    1
    26    23    25   ar
    27    25    26   ar
    28    20    26   ar
    29    26    27    1
    30     1    28    1
    31     1    29    1
    32     1    30    1
    33     2    31    1
    34     5    32    1
    35     6    33    1
    36     9    34    1
    37    11    35    1
    38    11    36    1
    39    15    37    1
    40    16    38    1
    41    19    39    1
    42    21    40    1
    43    22    41    1
    44    25    42    1
