REMARK  7 active torsions:
REMARK  status: ('A' for Active; 'I' for Inactive)
REMARK    1  A    between atoms: C_3  and  C_4 
REMARK    2  A    between atoms: C_4  and  O_5 
REMARK    3  A    between atoms: C_7  and  N_8 
REMARK    4  A    between atoms: C_11  and  N_12 
REMARK    5  A    between atoms: N_12  and  C_13 
REMARK    6  A    between atoms: N_16  and  C_17 
REMARK    7  A    between atoms: C_22  and  N_23 
ROOT
ATOM      1  C   UNL d   1       2.767   0.157   0.097  0.00  0.00     0.051 C 
ATOM      2  C   UNL d   1       1.304   0.263   0.334  0.00  0.00    -0.021 C 
ATOM      3  C   UNL d   1       0.640  -1.065   0.633  0.00  0.00    -0.037 C 
ATOM      4  C   UNL d   1      -0.938  -1.017   0.865  0.00  0.00     0.090 C 
ATOM      5  C   UNL d   1      -2.236   0.305   0.590  0.00  0.00     0.118 C 
ATOM      6  C   UNL d   1      -1.510   1.901   0.092  0.00  0.00     0.092 C 
ATOM      7  C   UNL d   1       0.454   1.794   0.020  0.00  0.00     0.137 C 
ENDROOT
BRANCH   6   8
ATOM      8  N   UNL d   1      -2.299   3.012  -0.089  0.00  0.00    -0.381 N 
ATOM      9  H   UNL d   1      -3.297   2.951   0.116  0.00  0.00     0.160 HD
BRANCH   8  10
ATOM     10  C   UNL d   1      -1.151   3.766   0.056  0.00  0.00     0.085 C 
ATOM     11  C   UNL d   1      -0.612   3.303  -1.579  0.00  0.00     0.052 C 
ATOM     12  C   UNL d   1      -1.129   1.765  -2.026  0.00  0.00     0.237 C 
ATOM     13  N   UNL d   1      -0.748   0.413  -0.672  0.00  0.00    -0.067 N 
ATOM     14  C   UNL d   1      -0.633   1.067   1.488  0.00  0.00     0.237 C 
ATOM     15  H   UNL d   1       0.137   0.163  -1.134  0.00  0.00     0.280 HD
ATOM     16  C   UNL d   1      -0.534   2.997   1.630  0.00  0.00     0.052 C 
BRANCH  13  17
ATOM     17  C   UNL d   1      -1.692  -1.018  -1.324  0.00  0.00     0.188 A 
ATOM     18  C   UNL d   1      -2.668  -2.102  -0.110  0.00  0.00     0.035 A 
ATOM     19  C   UNL d   1      -3.116  -1.387  -1.339  0.00  0.00     0.035 A 
ENDBRANCH  13  17
ENDBRANCH   8  10
ENDBRANCH   6   8
BRANCH   5  20
ATOM     20  N   UNL d   1      -3.738   0.315   0.625  0.00  0.00    -0.117 N 
ATOM     21  O   UNL d   1      -4.404  -0.650   1.017  0.00  0.00    -0.532 OA
ATOM     22  O   UNL d   1      -4.244   1.311   0.100  0.00  0.00    -0.532 OA
ENDBRANCH   5  20
BRANCH   7  23
ATOM     23  N   UNL d   1       1.561   2.901  -0.010  0.00  0.00    -0.113 N 
ATOM     24  O   UNL d   1       1.255   4.086   0.084  0.00  0.00    -0.532 OA
ATOM     25  O   UNL d   1       2.729   2.550  -0.115  0.00  0.00    -0.532 OA
ENDBRANCH   7  23
BRANCH   3  26
ATOM     26  C   UNL d   1       1.149  -2.539   0.140  0.00  0.00     0.200 C 
BRANCH  26  27
ATOM     27  O   UNL d   1       2.519  -2.661  -0.105  0.00  0.00    -0.397 OA
ATOM     28  H   UNL d   1       2.690  -2.156  -0.919  0.00  0.00     0.209 HD
ENDBRANCH  26  27
ENDBRANCH   3  26
TORSDOF 7
