@<TRIPOS>MOLECULE
*****
 55 57 0 0 0
SMALL
GASTEIGER

@<TRIPOS>ATOM
      1 C           1.1710   -0.0007    0.0134 C.3     1  UNL1        0.0804
      2 O           2.6029   -0.0203   -0.0448 O.3     1  UNL1       -0.4796
      3 C           3.1609    1.0624   -0.6957 C.ar    1  UNL1        0.2188
      4 C           2.7215    2.3373   -0.4500 C.ar    1  UNL1        0.0182
      5 C           3.3464    3.3182   -1.1726 C.ar    1  UNL1        0.0363
      6 N           4.3568    3.0969   -2.0374 N.ar    1  UNL1       -0.2215
      7 C           4.7732    1.8244   -2.1848 C.ar    1  UNL1        0.2349
      8 N           5.8385    1.5569   -3.0532 N.pl3   1  UNL1       -0.2312
      9 N           6.4894    2.5801   -3.7772 N.am    1  UNL1       -0.2180
     10 C           7.5248    2.2269   -4.6412 C.2     1  UNL1        0.3162
     11 O           7.9131    1.0659   -4.7950 O.2     1  UNL1       -0.2513
     12 N           8.0792    3.2837   -5.3155 N.am    1  UNL1       -0.2941
     13 C           9.2007    3.1683   -6.2908 C.3     1  UNL1        0.0384
     14 C           9.6644    4.4759   -6.9295 C.ar    1  UNL1       -0.0285
     15 C          10.7773    4.6475   -7.7556 C.ar    1  UNL1       -0.0570
     16 C          11.1429    5.9423   -8.1954 C.ar    1  UNL1       -0.0597
     17 C          10.3760    7.0749   -7.8546 C.ar    1  UNL1       -0.0405
     18 C           9.2496    6.9079   -7.0591 C.ar    1  UNL1        0.0337
     19 N           8.4409    7.9818   -6.6066 N.am    1  UNL1       -0.2853
     20 C           7.3850    7.8476   -5.6975 C.2     1  UNL1        0.2203
     21 O           6.9677    6.7933   -5.2084 O.2     1  UNL1       -0.2752
     22 C           6.6385    9.0964   -5.2767 C.3     1  UNL1        0.0359
     23 C           6.4394    9.0229   -3.7455 C.3     1  UNL1       -0.0419
     24 C           5.6919   10.2318   -3.2057 C.3     1  UNL1       -0.0524
     25 C           6.3662   11.5272   -3.6357 C.3     1  UNL1       -0.0530
     26 C           6.5083   11.5952   -5.1517 C.3     1  UNL1       -0.0524
     27 C           7.2869   10.4057   -5.6895 C.3     1  UNL1       -0.0419
     28 C           8.9236    5.6176   -6.6798 C.ar    1  UNL1       -0.0358
     29 N           4.1948    0.7892   -1.5298 N.ar    1  UNL1       -0.1783
     30 H           0.8300   -0.8701    0.5870 H       1  UNL1        0.0660
     31 H           0.7450   -0.0694   -0.9928 H       1  UNL1        0.0660
     32 H           0.7698    0.8770    0.5324 H       1  UNL1        0.0660
     33 H           1.9476    2.5765    0.2633 H       1  UNL1        0.0686
     34 H           3.0341    4.3526   -1.0691 H       1  UNL1        0.0832
     35 H           6.1534    0.6006   -3.1639 H       1  UNL1        0.1731
     36 H           6.1232    3.5211   -3.6508 H       1  UNL1        0.1744
     37 H           7.7613    4.1870   -4.9970 H       1  UNL1        0.1506
     38 H           8.8809    2.4808   -7.0795 H       1  UNL1        0.0512
     39 H          10.0464    2.7269   -5.7530 H       1  UNL1        0.0512
     40 H          11.3683    3.7939   -8.0814 H       1  UNL1        0.0621
     41 H          12.0443    6.0701   -8.7955 H       1  UNL1        0.0618
     42 H          10.6736    8.0509   -8.2291 H       1  UNL1        0.0636
     43 H           8.7312    8.9014   -6.9078 H       1  UNL1        0.1548
     44 H           5.6507    9.0225   -5.7542 H       1  UNL1        0.0394
     45 H           7.4184    8.9436   -3.2527 H       1  UNL1        0.0272
     46 H           5.8862    8.1165   -3.4640 H       1  UNL1        0.0272
     47 H           5.6440   10.1781   -2.1124 H       1  UNL1        0.0265
     48 H           4.6591   10.2114   -3.5743 H       1  UNL1        0.0265
     49 H           7.3576   11.5942   -3.1705 H       1  UNL1        0.0265
     50 H           5.7811   12.3814   -3.2820 H       1  UNL1        0.0265
     51 H           7.0185   12.5184   -5.4407 H       1  UNL1        0.0265
     52 H           5.5123   11.6116   -5.6116 H       1  UNL1        0.0265
     53 H           8.3196   10.4408   -5.3214 H       1  UNL1        0.0272
     54 H           7.3257   10.4705   -6.7831 H       1  UNL1        0.0272
     55 H           8.0010    5.4660   -6.1744 H       1  UNL1        0.0639
@<TRIPOS>BOND
     1     1     2    1
     2     2     3    1
     3     3     4   ar
     4     4     5   ar
     5     5     6   ar
     6     6     7   ar
     7     7     8    1
     8     8     9    1
     9     9    10   am
    10    10    11    2
    11    10    12   am
    12    12    13    1
    13    13    14    1
    14    14    15   ar
    15    15    16   ar
    16    16    17   ar
    17    17    18   ar
    18    18    19    1
    19    19    20   am
    20    20    21    2
    21    20    22    1
    22    22    23    1
    23    23    24    1
    24    24    25    1
    25    25    26    1
    26    26    27    1
    27    22    27    1
    28    18    28   ar
    29    14    28   ar
    30     7    29   ar
    31     3    29   ar
    32     1    30    1
    33     1    31    1
    34     1    32    1
    35     4    33    1
    36     5    34    1
    37     8    35    1
    38     9    36    1
    39    12    37    1
    40    13    38    1
    41    13    39    1
    42    15    40    1
    43    16    41    1
    44    17    42    1
    45    19    43    1
    46    22    44    1
    47    23    45    1
    48    23    46    1
    49    24    47    1
    50    24    48    1
    51    25    49    1
    52    25    50    1
    53    26    51    1
    54    26    52    1
    55    27    53    1
    56    27    54    1
    57    28    55    1
