REMARK  7 active torsions:
REMARK  status: ('A' for Active; 'I' for Inactive)
REMARK    1  A    between atoms: C_2  and  N_16 
REMARK    2  A    between atoms: C_3  and  C_4 
REMARK       I    between atoms: C_4  and  N_6 
REMARK    3  A    between atoms: N_6  and  C_7 
REMARK    4  A    between atoms: C_11  and  N_12 
REMARK    5  A    between atoms: N_16  and  N_17 
REMARK       I    between atoms: N_17  and  C_18 
REMARK    6  A    between atoms: C_18  and  C_20 
REMARK    7  A    between atoms: C_26  and  O_27 
ROOT
ATOM      1  C   UNL d   1       1.023  -0.193  -0.050  0.00  0.00     0.070 C 
ATOM      2  C   UNL d   1       2.537   0.012  -0.099  0.00  0.00     0.027 C 
ATOM      3  C   UNL d   1       3.101   1.221  -0.355  0.00  0.00     0.100 C 
ENDROOT
BRANCH   2   4
ATOM      4  N   UNL d   1       3.270  -1.155   0.153  0.00  0.00    -0.302 N 
ATOM      5  H   UNL d   1       2.753  -2.025   0.327  0.00  0.00     0.186 HD
BRANCH   4   6
ATOM      6  N   UNL d   1       4.662  -1.293   0.080  0.00  0.00    -0.266 N 
ATOM      7  C   UNL d   1       5.276  -2.506   0.356  0.00  0.00     0.272 C 
ATOM      8  O   UNL d   1       4.677  -3.570   0.534  0.00  0.00    -0.266 OA
ATOM      9  H   UNL d   1       5.222  -0.450   0.111  0.00  0.00     0.190 HD
BRANCH   7  10
ATOM     10  C   UNL d   1       6.776  -2.476   0.414  0.00  0.00     0.067 A 
ATOM     11  C   UNL d   1       7.503  -3.540  -0.145  0.00  0.00     0.020 A 
ATOM     12  C   UNL d   1       8.892  -3.609   0.005  0.00  0.00     0.002 A 
ATOM     13  C   UNL d   1       9.574  -2.596   0.679  0.00  0.00     0.009 A 
ATOM     14  C   UNL d   1       8.873  -1.516   1.237  0.00  0.00    -0.028 A 
ATOM     15  C   UNL d   1       9.634  -0.494   2.032  0.00  0.00     0.051 C 
ATOM     16  C   UNL d   1       7.474  -1.456   1.082  0.00  0.00     0.087 A 
BRANCH  16  17
ATOM     17  O   UNL d   1       6.760  -0.397   1.583  0.00  0.00    -0.359 OA
ATOM     18  H   UNL d   1       7.346   0.185   2.093  0.00  0.00     0.217 HD
ENDBRANCH  16  17
ENDBRANCH   7  10
ENDBRANCH   4   6
ENDBRANCH   2   4
BRANCH   3  19
ATOM     19  C   UNL d   1       2.349   2.486  -0.617  0.00  0.00     0.247 C 
ATOM     20  O   UNL d   1       1.119   2.518  -0.663  0.00  0.00    -0.268 OA
ATOM     21  N   UNL d   1       3.097   3.618  -0.877  0.00  0.00    -0.324 N 
ATOM     22  H   UNL d   1       4.083   3.544  -1.094  0.00  0.00     0.169 HD
BRANCH  21  23
ATOM     23  C   UNL d   1       2.448   4.864  -1.086  0.00  0.00     0.037 A 
ATOM     24  C   UNL d   1       2.903   5.748  -2.065  0.00  0.00     0.029 A 
ATOM     25  C   UNL d   1       2.279   6.993  -2.233  0.00  0.00     0.005 A 
ATOM     26  C   UNL d   1       1.179   7.350  -1.448  0.00  0.00     0.036 A 
ATOM     27  C   UNL d   1       0.723   6.463  -0.469  0.00  0.00     0.105 A 
ATOM     28  C   UNL d   1       1.349   5.228  -0.292  0.00  0.00     0.065 A 
BRANCH  27  29
ATOM     29  N   UNL d   1      -0.372   6.850   0.429  0.00  0.00    -0.116 N 
ATOM     30  O   UNL d   1      -0.882   7.967   0.265  0.00  0.00    -0.532 OA
ATOM     31  O   UNL d   1      -0.703   6.053   1.319  0.00  0.00    -0.532 OA
ENDBRANCH  27  29
ENDBRANCH  21  23
ENDBRANCH   3  19
TORSDOF 7
