@<TRIPOS>MOLECULE
*****
 52 53 0 0 0
SMALL
GASTEIGER

@<TRIPOS>ATOM
      1 C           1.8792    1.4823   -0.0150 C.3     1  UNL1       -0.0395
      2 C           0.6015    0.6914    0.0017 C.ar    1  UNL1       -0.0474
      3 C          -0.5987    1.3906    0.0244 C.ar    1  UNL1       -0.0568
      4 C          -1.8148    0.7165    0.0221 C.ar    1  UNL1       -0.0402
      5 C          -1.9017   -0.6755   -0.0197 C.ar    1  UNL1        0.0336
      6 N          -3.1701   -1.3457   -0.0651 N.am    1  UNL1       -0.2855
      7 C          -4.4058   -0.6934   -0.0859 C.2     1  UNL1        0.2177
      8 O          -4.5629    0.5282   -0.0588 O.2     1  UNL1       -0.2755
      9 C          -5.6547   -1.5619   -0.1486 C.3     1  UNL1        0.0326
     10 C          -6.9205   -0.6575   -0.1519 C.3     1  UNL1        0.0336
     11 C          -8.2228   -1.4412   -0.2117 C.2     1  UNL1        0.2295
     12 O          -8.2514   -2.6730   -0.2544 O.2     1  UNL1       -0.2743
     13 N          -9.3812   -0.6782   -0.2151 N.am    1  UNL1       -0.2344
     14 N         -10.6400   -1.3299   -0.2700 N.am    1  UNL1       -0.2344
     15 C         -11.7995   -0.5698   -0.2791 C.2     1  UNL1        0.2294
     16 O         -11.7800    0.6629   -0.2332 O.2     1  UNL1       -0.2743
     17 C         -13.0841   -1.3759   -0.3495 C.3     1  UNL1        0.0294
     18 C         -14.3569   -0.5054   -0.3713 C.3     1  UNL1       -0.0194
     19 C         -15.6603   -1.2871   -0.4058 C.ar    1  UNL1       -0.0469
     20 C         -16.8911   -0.6121   -0.3414 C.ar    1  UNL1       -0.0586
     21 C         -18.0887   -1.3288   -0.2248 C.ar    1  UNL1       -0.0615
     22 C         -18.0797   -2.7222   -0.2549 C.ar    1  UNL1       -0.0617
     23 C         -16.8740   -3.4012   -0.3688 C.ar    1  UNL1       -0.0615
     24 C         -15.6797   -2.6889   -0.4400 C.ar    1  UNL1       -0.0586
     25 C          -0.6902   -1.3920   -0.0200 C.ar    1  UNL1       -0.0373
     26 C           0.5642   -0.7176   -0.0022 C.ar    1  UNL1       -0.0458
     27 C           1.8568   -1.4929    0.0199 C.3     1  UNL1       -0.0394
     28 H           1.6779    2.5607   -0.0264 H       1  UNL1        0.0278
     29 H           2.4577    1.2537   -0.9148 H       1  UNL1        0.0278
     30 H           2.4728    1.2709    0.8783 H       1  UNL1        0.0278
     31 H          -0.6190    2.4775    0.0427 H       1  UNL1        0.0621
     32 H          -2.6846    1.3560    0.0513 H       1  UNL1        0.0636
     33 H          -3.1481   -2.3588   -0.1048 H       1  UNL1        0.1548
     34 H          -5.6727   -2.2285    0.7198 H       1  UNL1        0.0363
     35 H          -5.6252   -2.1675   -1.0605 H       1  UNL1        0.0363
     36 H          -6.8844    0.0243   -1.0129 H       1  UNL1        0.0363
     37 H          -6.9300   -0.0342    0.7530 H       1  UNL1        0.0363
     38 H          -9.4051    0.3418   -0.1821 H       1  UNL1        0.1728
     39 H         -10.6208   -2.3493   -0.3048 H       1  UNL1        0.1728
     40 H         -13.1139   -2.0431    0.5223 H       1  UNL1        0.0362
     41 H         -13.0504   -1.9939   -1.2555 H       1  UNL1        0.0362
     42 H         -14.3268    0.1761   -1.2310 H       1  UNL1        0.0318
     43 H         -14.3706    0.1182    0.5335 H       1  UNL1        0.0318
     44 H         -16.9317    0.4760   -0.3622 H       1  UNL1        0.0620
     45 H         -19.0311   -0.8025   -0.0929 H       1  UNL1        0.0618
     46 H         -19.0087   -3.2812   -0.1906 H       1  UNL1        0.0618
     47 H         -16.8478   -4.4870   -0.3805 H       1  UNL1        0.0618
     48 H         -14.7637   -3.2656   -0.5083 H       1  UNL1        0.0620
     49 H          -0.6911   -2.4801   -0.0322 H       1  UNL1        0.0639
     50 H           1.6853   -2.5726    0.0262 H       1  UNL1        0.0278
     51 H           2.4313   -1.2428    0.9196 H       1  UNL1        0.0278
     52 H           2.4611   -1.2539   -0.8624 H       1  UNL1        0.0278
@<TRIPOS>BOND
     1     1     2    1
     2     2     3   ar
     3     3     4   ar
     4     4     5   ar
     5     5     6    1
     6     6     7   am
     7     7     8    2
     8     7     9    1
     9     9    10    1
    10    10    11    1
    11    11    12    2
    12    11    13   am
    13    13    14    1
    14    14    15   am
    15    15    16    2
    16    15    17    1
    17    17    18    1
    18    18    19    1
    19    19    20   ar
    20    20    21   ar
    21    21    22   ar
    22    22    23   ar
    23    23    24   ar
    24    19    24   ar
    25     5    25   ar
    26    25    26   ar
    27     2    26   ar
    28    26    27    1
    29     1    28    1
    30     1    29    1
    31     1    30    1
    32     3    31    1
    33     4    32    1
    34     6    33    1
    35     9    34    1
    36     9    35    1
    37    10    36    1
    38    10    37    1
    39    13    38    1
    40    14    39    1
    41    17    40    1
    42    17    41    1
    43    18    42    1
    44    18    43    1
    45    20    44    1
    46    21    45    1
    47    22    46    1
    48    23    47    1
    49    24    48    1
    50    25    49    1
    51    27    50    1
    52    27    51    1
    53    27    52    1
