REMARK  4 active torsions:
REMARK  status: ('A' for Active; 'I' for Inactive)
REMARK       I    between atoms: N_2  and  C_3 
REMARK       I    between atoms: C_3  and  N_5 
REMARK    1  A    between atoms: N_5  and  N_6 
REMARK    2  A    between atoms: N_6  and  C_7 
REMARK    3  A    between atoms: C_10  and  O_11 
REMARK    4  A    between atoms: O_11  and  C_12 
ROOT
ATOM      1  C   UNL d   1       6.793   2.273  -0.687  0.00  0.00     0.048 A 
ATOM      2  C   UNL d   1       7.558   3.371  -0.255  0.00  0.00     0.034 A 
ATOM      3  C   UNL d   1       8.956   3.417  -0.423  0.00  0.00     0.039 A 
ATOM      4  C   UNL d   1       9.637   2.339  -0.989  0.00  0.00     0.078 A 
ATOM      5  C   UNL d   1       8.886   1.261  -1.455  0.00  0.00     0.039 A 
ATOM      6  C   UNL d   1       7.484   1.230  -1.308  0.00  0.00     0.034 A 
ENDROOT
BRANCH   1   7
ATOM      7  N   UNL d   1       5.398   2.292  -0.450  0.00  0.00    -0.297 N 
ATOM      8  H   UNL d   1       4.910   3.060  -0.928  0.00  0.00     0.187 HD
BRANCH   7   9
ATOM      9  N   UNL d   1       4.670   1.068  -0.525  0.00  0.00    -0.251 N 
ATOM     10  C   UNL d   1       3.281   1.192  -0.439  0.00  0.00     0.334 C 
ATOM     11  N   UNL d   1       2.627   0.026  -0.105  0.00  0.00    -0.346 N 
ATOM     12  O   UNL d   1       2.683   2.243  -0.685  0.00  0.00    -0.246 OA
ATOM     13  C   UNL d   1       1.177  -0.035  -0.049  0.00  0.00     0.151 C 
ATOM     14  H   UNL d   1       3.150  -0.790   0.172  0.00  0.00     0.163 HD
ATOM     15  H   UNL d   1       5.119   0.302  -0.039  0.00  0.00     0.191 HD
ENDBRANCH   7   9
ENDBRANCH   1   7
BRANCH   4  16
ATOM     16  O   UNL d   1      11.002   2.444  -1.015  0.00  0.00    -0.255 OA
BRANCH  16  17
ATOM     17  C   UNL d   1      11.733   1.314  -1.476  0.00  0.00     0.530 C 
ATOM     18  F   UNL d   1      11.439   0.206  -0.760  0.00  0.00    -0.144 F 
ATOM     19  F   UNL d   1      11.483   1.083  -2.783  0.00  0.00    -0.144 F 
ATOM     20  F   UNL d   1      13.058   1.553  -1.341  0.00  0.00    -0.144 F 
ENDBRANCH  16  17
ENDBRANCH   4  16
TORSDOF 4
