@<TRIPOS>MOLECULE
*****
 54 57 0 0 0
SMALL
GASTEIGER

@<TRIPOS>ATOM
      1 C           1.1015   -0.5079    0.2809 C.3     1  UNL1        0.0790
      2 O           2.4711   -0.1560    0.0322 O.3     1  UNL1       -0.4914
      3 C           2.9590    0.1417   -1.2293 C.ar    1  UNL1        0.1633
      4 C           4.1589   -0.5686   -1.5629 C.ar    1  UNL1        0.0057
      5 C           4.9596   -0.2426   -2.6979 C.ar    1  UNL1        0.0514
      6 N           6.2787   -0.8036   -2.8413 N.am    1  UNL1       -0.2802
      7 C           7.3099   -0.1614   -3.5658 C.2     1  UNL1        0.2549
      8 O           7.2272    1.0114   -3.9157 O.2     1  UNL1       -0.2693
      9 C           8.5197   -0.9367   -3.8322 C.ar    1  UNL1        0.0742
     10 C           8.7734   -2.2945   -3.8392 C.ar    1  UNL1       -0.0425
     11 C          10.1547   -2.5855   -4.0829 C.ar    1  UNL1       -0.0540
     12 C          10.8940   -1.4506   -4.3248 C.ar    1  UNL1       -0.0236
     13 S           9.9267   -0.0510   -4.3057 S.2     1  UNL1       -0.0921
     14 C           4.4430    0.6772   -3.6239 C.ar    1  UNL1        0.0838
     15 C           4.9475    0.6898   -5.0425 C.2     1  UNL1        0.3415
     16 O           5.3963   -0.2946   -5.5960 O.2     1  UNL1       -0.2449
     17 O           4.8902    1.9155   -5.6189 O.3     1  UNL1       -0.4531
     18 C           5.5456    1.9970   -6.9103 C.3     1  UNL1        0.1550
     19 C           4.8104    3.0605   -7.6795 C.2     1  UNL1        0.2032
     20 O           3.7593    3.4966   -7.2035 O.2     1  UNL1       -0.2885
     21 C           5.2807    3.5791   -9.0026 C.2     1  UNL1        0.0758
     22 C           4.5808    4.5720   -9.5703 C.ar    1  UNL1        0.0583
     23 C           3.4482    5.3188   -9.1430 C.ar    1  UNL1       -0.0477
     24 C           2.8450    6.1581   -9.9820 C.ar    1  UNL1       -0.0608
     25 C           3.4143    6.4500  -11.2765 C.ar    1  UNL1       -0.0555
     26 C           4.5167    5.8376  -11.7595 C.ar    1  UNL1        0.0098
     27 C           5.1717    4.8134  -10.8980 C.ar    1  UNL1        0.2090
     28 N           6.1946    4.0687  -11.0932 N.2     1  UNL1       -0.2364
     29 C           6.4118    3.1648   -9.8995 C.3     1  UNL1        0.1730
     30 C           3.3283    1.4397   -3.2670 C.ar    1  UNL1       -0.0005
     31 C           2.5906    1.2054   -2.0807 C.ar    1  UNL1        0.1624
     32 O           1.6064    2.1599   -1.9889 O.3     1  UNL1       -0.4914
     33 C           0.6426    1.9745   -0.9916 C.3     1  UNL1        0.0790
     34 H           1.0195   -1.0383    1.2354 H       1  UNL1        0.0660
     35 H           0.6549   -1.0966   -0.5239 H       1  UNL1        0.0660
     36 H           0.4698    0.3474    0.5240 H       1  UNL1        0.0660
     37 H           4.4758   -1.3696   -0.8941 H       1  UNL1        0.0674
     38 H           6.5625   -1.5374   -2.2069 H       1  UNL1        0.1552
     39 H           8.0224   -3.0552   -3.6628 H       1  UNL1        0.0630
     40 H          10.5905   -3.5773   -4.0764 H       1  UNL1        0.0623
     41 H          11.9544   -1.3701   -4.5241 H       1  UNL1        0.0693
     42 H           5.4621    1.0683   -7.4825 H       1  UNL1        0.0782
     43 H           6.5773    2.3073   -6.7453 H       1  UNL1        0.0782
     44 H           3.0449    5.2099   -8.1461 H       1  UNL1        0.0626
     45 H           1.9290    6.6407   -9.6528 H       1  UNL1        0.0618
     46 H           2.9050    7.2463  -11.8170 H       1  UNL1        0.0620
     47 H           4.8968    6.1163  -12.7359 H       1  UNL1        0.0683
     48 H           6.7550    4.1322  -11.9465 H       1  UNL1        0.4459
     49 H           7.3969    3.3912   -9.4797 H       1  UNL1        0.1081
     50 H           6.3654    2.1263  -10.2440 H       1  UNL1        0.1081
     51 H           3.0055    2.2505   -3.9189 H       1  UNL1        0.0664
     52 H          -0.1286    2.7461   -0.9755 H       1  UNL1        0.0660
     53 H           1.1455    2.0353   -0.0216 H       1  UNL1        0.0660
     54 H           0.1043    1.0516   -1.2286 H       1  UNL1        0.0660
@<TRIPOS>UNITY_ATOM_ATTR
28 1
charge 1
@<TRIPOS>BOND
     1     1     2    1
     2     2     3    1
     3     3     4   ar
     4     4     5   ar
     5     5     6    1
     6     6     7   am
     7     7     8    2
     8     7     9    1
     9     9    10   ar
    10    10    11   ar
    11    11    12   ar
    12    12    13   ar
    13     9    13   ar
    14     5    14   ar
    15    14    15    1
    16    15    16    2
    17    15    17    1
    18    17    18    1
    19    18    19    1
    20    19    20    2
    21    19    21    1
    22    21    22    2
    23    22    23   ar
    24    23    24   ar
    25    24    25   ar
    26    25    26   ar
    27    26    27   ar
    28    22    27   ar
    29    27    28    2
    30    28    29    1
    31    21    29    1
    32    14    30   ar
    33    30    31   ar
    34     3    31   ar
    35    31    32    1
    36    32    33    1
    37     1    34    1
    38     1    35    1
    39     1    36    1
    40     4    37    1
    41     6    38    1
    42    10    39    1
    43    11    40    1
    44    12    41    1
    45    18    42    1
    46    18    43    1
    47    23    44    1
    48    24    45    1
    49    25    46    1
    50    26    47    1
    51    28    48    1
    52    29    49    1
    53    29    50    1
    54    30    51    1
    55    33    52    1
    56    33    53    1
    57    33    54    1
