@<TRIPOS>MOLECULE
*****
 58 60 0 0 0
SMALL
GASTEIGER

@<TRIPOS>ATOM
      1 C          -0.3777   -5.7039   -1.4279 C.3     1  UNL1        0.0788
      2 O          -0.0033   -6.3320   -2.6579 O.3     1  UNL1       -0.4951
      3 C           0.9910   -5.7639   -3.4045 C.ar    1  UNL1        0.1208
      4 C           0.8041   -5.7594   -4.7902 C.ar    1  UNL1       -0.0165
      5 C           1.7839   -5.2339   -5.6628 C.ar    1  UNL1       -0.0160
      6 C           2.8967   -4.5455   -5.1686 C.ar    1  UNL1        0.1289
      7 O           3.6001   -3.8004   -6.1021 O.3     1  UNL1       -0.4946
      8 C           4.8560   -3.1464   -5.8101 C.3     1  UNL1        0.0788
      9 C           2.9275   -4.3498   -3.7721 C.ar    1  UNL1        0.0466
     10 C           3.2011   -2.9053   -3.3923 C.3     1  UNL1        0.0244
     11 C           3.5758   -2.4740   -1.9684 C.3     1  UNL1        0.0593
     12 N           3.0349   -1.1549   -1.6610 N.am    1  UNL1       -0.3055
     13 C           3.0869   -0.5387   -0.4623 C.2     1  UNL1        0.2487
     14 O           3.7529   -0.9883    0.4763 O.2     1  UNL1       -0.2700
     15 C           2.3581    0.7355   -0.3660 C.ar    1  UNL1        0.0916
     16 C           3.0005    1.8495    0.0915 C.ar    1  UNL1        0.0455
     17 N           2.4133    3.0672    0.2097 N.ar    1  UNL1       -0.2295
     18 C           1.1326    3.1781   -0.1827 C.ar    1  UNL1        0.1893
     19 S           0.2363    4.6941    0.0120 S.3     1  UNL1       -0.0894
     20 C           1.3708    5.6902    1.0108 C.3     1  UNL1       -0.0106
     21 N           0.4150    2.1487   -0.6407 N.ar    1  UNL1       -0.2095
     22 C           1.0207    0.9499   -0.5954 C.ar    1  UNL1        0.1456
     23 CL         -0.1382   -0.3273   -0.5245 Cl      1  UNL1       -0.0611
     24 N           2.0367   -2.0199   -4.0464 N.4     1  UNL1        0.2419
     25 C           0.7556   -2.3005   -3.2629 C.3     1  UNL1       -0.0313
     26 C          -0.3791   -1.4185   -3.6777 C.3     1  UNL1       -0.0123
     27 C           0.0775    0.0186   -3.7541 C.3     1  UNL1       -0.0434
     28 C           1.1063    0.2013   -4.8432 C.3     1  UNL1       -0.0123
     29 C           2.3771   -0.5796   -4.5032 C.3     1  UNL1       -0.0313
     30 C           2.1163   -5.1262   -2.8932 C.ar    1  UNL1       -0.0079
     31 H          -1.1167   -6.3438   -0.9307 H       1  UNL1        0.0660
     32 H          -0.8601   -4.7390   -1.6215 H       1  UNL1        0.0660
     33 H           0.4572   -5.5793   -0.7328 H       1  UNL1        0.0660
     34 H          -0.1426   -6.1185   -5.1964 H       1  UNL1        0.0655
     35 H           1.5999   -5.2715   -6.7362 H       1  UNL1        0.0655
     36 H           5.3968   -2.9136   -6.7285 H       1  UNL1        0.0660
     37 H           5.4974   -3.7310   -5.1392 H       1  UNL1        0.0660
     38 H           4.6969   -2.1328   -5.4131 H       1  UNL1        0.0660
     39 H           4.1078   -2.6404   -3.8767 H       1  UNL1        0.0921
     40 H           3.2704   -3.1886   -1.2062 H       1  UNL1        0.0522
     41 H           4.6750   -2.4083   -1.9269 H       1  UNL1        0.0522
     42 H           2.2860   -0.8239   -2.2353 H       1  UNL1        0.1492
     43 H           4.0249    1.7755    0.4440 H       1  UNL1        0.0839
     44 H           0.8851    6.6481    1.2252 H       1  UNL1        0.0345
     45 H           2.2905    5.8949    0.4581 H       1  UNL1        0.0345
     46 H           1.6056    5.2123    1.9662 H       1  UNL1        0.0345
     47 H           1.8624   -2.4705   -4.9604 H       1  UNL1        0.2040
     48 H           0.9677   -2.2209   -2.1964 H       1  UNL1        0.0814
     49 H           0.4523   -3.3288   -3.4162 H       1  UNL1        0.0814
     50 H          -1.1872   -1.5449   -2.9475 H       1  UNL1        0.0317
     51 H          -0.7683   -1.7594   -4.6408 H       1  UNL1        0.0317
     52 H           0.6082    0.3032   -2.8578 H       1  UNL1        0.0269
     53 H          -0.7783    0.6904   -3.8312 H       1  UNL1        0.0269
     54 H           1.3417    1.2716   -4.8979 H       1  UNL1        0.0317
     55 H           0.6966   -0.1046   -5.8084 H       1  UNL1        0.0317
     56 H           2.9246   -0.0433   -3.7241 H       1  UNL1        0.0814
     57 H           3.0613   -0.6222   -5.3559 H       1  UNL1        0.0814
     58 H           2.2375   -5.0542   -1.8160 H       1  UNL1        0.0660
@<TRIPOS>UNITY_ATOM_ATTR
24 1
charge 1
@<TRIPOS>BOND
     1     1     2    1
     2     2     3    1
     3     3     4   ar
     4     4     5   ar
     5     5     6   ar
     6     6     7    1
     7     7     8    1
     8     6     9   ar
     9    11    12    1
    10    12    13   am
    11    13    14    2
    12    13    15    1
    13    15    16   ar
    14    16    17   ar
    15    17    18   ar
    16    18    19    1
    17    19    20    1
    18    18    21   ar
    19    21    22   ar
    20    15    22   ar
    21    22    23    1
    22    10    24    1
    23    24    25    1
    24    25    26    1
    25    26    27    1
    26    27    28    1
    27    28    29    1
    28    24    29    1
    29     9    30   ar
    30     3    30   ar
    31    10    11    1
    32    10     9    1
    33     1    31    1
    34     1    32    1
    35     1    33    1
    36     4    34    1
    37     5    35    1
    38     8    36    1
    39     8    37    1
    40     8    38    1
    41    10    39    1
    42    11    40    1
    43    11    41    1
    44    12    42    1
    45    16    43    1
    46    20    44    1
    47    20    45    1
    48    20    46    1
    49    24    47    1
    50    25    48    1
    51    25    49    1
    52    26    50    1
    53    26    51    1
    54    27    52    1
    55    27    53    1
    56    28    54    1
    57    28    55    1
    58    29    56    1
    59    29    57    1
    60    30    58    1
