REMARK  9 active torsions:
REMARK  status: ('A' for Active; 'I' for Inactive)
REMARK    1  A    between atoms: C_2  and  C_3 
REMARK       I    between atoms: C_2  and  N_30 
REMARK    2  A    between atoms: C_3  and  S_4 
REMARK    3  A    between atoms: S_4  and  C_5 
REMARK    4  A    between atoms: N_15  and  N_16 
REMARK       I    between atoms: N_16  and  C_17 
REMARK    5  A    between atoms: C_17  and  C_19 
REMARK    6  A    between atoms: C_19  and  C_20 
REMARK    7  A    between atoms: C_20  and  C_21 
REMARK    8  A    between atoms: N_30  and  C_31 
REMARK    9  A    between atoms: C_31  and  C_32 
ROOT
ATOM      1  C   UNL d   1       2.679  -2.213  -3.306  0.00  0.00     0.192 C 
ATOM      2  N   UNL d   1       3.488  -1.773  -4.225  0.00  0.00    -0.222 NA
ATOM      3  C   UNL d   1       4.009  -2.624  -5.199  0.00  0.00     0.075 A 
ATOM      4  C   UNL d   1       4.673  -2.037  -6.303  0.00  0.00     0.032 A 
ATOM      5  C   UNL d   1       5.003  -2.781  -7.440  0.00  0.00     0.002 A 
ATOM      6  C   UNL d   1       4.737  -4.149  -7.446  0.00  0.00     0.001 A 
ATOM      7  C   UNL d   1       4.131  -4.756  -6.317  0.00  0.00     0.019 A 
ATOM      8  C   UNL d   1       3.733  -3.985  -5.193  0.00  0.00     0.063 A 
ATOM      9  C   UNL d   1       2.931  -4.513  -4.009  0.00  0.00     0.281 C 
ATOM     10  O   UNL d   1       2.717  -5.720  -3.923  0.00  0.00    -0.265 OA
ATOM     11  N   UNL d   1       2.413  -3.570  -3.064  0.00  0.00    -0.192 N 
ENDROOT
BRANCH  11  12
ATOM     12  N   UNL d   1       1.451  -4.240  -1.902  0.00  0.00    -0.258 N 
ATOM     13  C   UNL d   1       1.085  -3.662  -0.650  0.00  0.00     0.236 C 
ATOM     14  O   UNL d   1       1.360  -2.518  -0.387  0.00  0.00    -0.272 OA
ATOM     15  H   UNL d   1       1.421  -5.246  -2.055  0.00  0.00     0.190 HD
BRANCH  13  16
ATOM     16  C   UNL d   1       0.284  -4.451   0.561  0.00  0.00     0.106 C 
BRANCH  16  17
ATOM     17  C   UNL d   1      -0.023  -3.370   1.827  0.00  0.00     0.027 C 
BRANCH  17  18
ATOM     18  C   UNL d   1      -1.109  -3.587   3.251  0.00  0.00     0.020 C 
ATOM     19  C   UNL d   1      -2.038  -2.728   2.586  0.00  0.00     0.093 C 
ATOM     20  N   UNL d   1      -3.163  -3.301   3.079  0.00  0.00    -0.285 NA
ATOM     21  C   UNL d   1      -3.102  -2.515   4.185  0.00  0.00     0.015 C 
ATOM     22  H   UNL d   1      -3.189  -4.314   3.159  0.00  0.00     0.128 HD
ATOM     23  C   UNL d   1      -3.692  -1.274   4.449  0.00  0.00     0.024 C 
ATOM     24  C   UNL d   1      -1.835  -2.897   4.694  0.00  0.00    -0.025 C 
ATOM     25  C   UNL d   1      -3.654  -0.775   5.719  0.00  0.00     0.002 C 
ATOM     26  C   UNL d   1      -3.063  -1.645   6.613  0.00  0.00     0.001 C 
ATOM     27  C   UNL d   1      -2.164  -2.765   6.136  0.00  0.00     0.010 C 
ENDBRANCH  17  18
ENDBRANCH  16  17
ENDBRANCH  13  16
ENDBRANCH  11  12
BRANCH   1  28
ATOM     28  S   UNL d   1       1.837  -0.901  -2.545  0.00  0.00    -0.081 SA
BRANCH  28  29
ATOM     29  C   UNL d   1       2.983  -0.561  -1.169  0.00  0.00     0.185 C 
BRANCH  29  30
ATOM     30  C   UNL d   1       2.241   0.141  -0.025  0.00  0.00     0.227 C 
ATOM     31  O   UNL d   1       1.018   0.232   0.092  0.00  0.00    -0.273 OA
ATOM     32  N   UNL d   1       2.981   0.727   0.962  0.00  0.00    -0.358 N 
ATOM     33  H   UNL d   1       2.391   1.135   1.679  0.00  0.00     0.162 HD
BRANCH  32  34
ATOM     34  C   UNL d   1       4.421   0.783   1.076  0.00  0.00     0.154 C 
BRANCH  34  35
ATOM     35  C   UNL d   1       4.898   1.670   2.227  0.00  0.00     0.139 C 
ATOM     36  C   UNL d   1       4.484   3.126   2.068  0.00  0.00     0.035 C 
ATOM     37  C   UNL d   1       5.606   3.866   2.746  0.00  0.00     0.029 C 
ATOM     38  C   UNL d   1       6.807   2.996   2.447  0.00  0.00     0.168 C 
ATOM     39  O   UNL d   1       6.335   1.654   2.278  0.00  0.00    -0.384 OA
ENDBRANCH  34  35
ENDBRANCH  32  34
ENDBRANCH  29  30
ENDBRANCH  28  29
ENDBRANCH   1  28
TORSDOF 9
