REMARK  4 active torsions:
REMARK  status: ('A' for Active; 'I' for Inactive)
REMARK       I    between atoms: C_2  and  N_3 
REMARK    1  A    between atoms: C_2  and  C_18 
REMARK    2  A    between atoms: N_3  and  C_4 
REMARK    3  A    between atoms: C_4  and  C_5 
REMARK    4  A    between atoms: C_9  and  N_10 
ROOT
ATOM      1  C   UNL d   1       3.286  -2.991  -2.179  0.00  0.00    -0.036 A 
ATOM      2  C   UNL d   1       4.334  -2.522  -2.974  0.00  0.00     0.026 A 
ATOM      3  C   UNL d   1       5.126  -3.432  -3.668  0.00  0.00     0.090 A 
ATOM      4  N   UNL d   1       4.876  -4.747  -3.580  0.00  0.00    -0.357 N 
ATOM      5  C   UNL d   1       3.890  -5.267  -2.834  0.00  0.00     0.082 A 
ATOM      6  C   UNL d   1       3.082  -4.377  -2.109  0.00  0.00     0.051 A 
ATOM      7  H   UNL d   1       5.419  -5.415  -4.123  0.00  0.00     0.166 HD
ENDROOT
BRANCH   1   8
ATOM      8  C   UNL d   1       2.325  -2.053  -1.480  0.00  0.00     0.161 C 
BRANCH   8   9
ATOM      9  N   UNL d   1       2.994  -1.066  -0.664  0.00  0.00    -0.356 N 
ATOM     10  C   UNL d   1       2.261  -0.102  -0.004  0.00  0.00     0.224 C 
ATOM     11  O   UNL d   1       1.028  -0.147  -0.003  0.00  0.00    -0.273 OA
ATOM     12  H   UNL d   1       4.000  -1.043  -0.648  0.00  0.00     0.162 HD
BRANCH  10  13
ATOM     13  C   UNL d   1       3.033   0.923   0.833  0.00  0.00     0.109 C 
ATOM     14  C   UNL d   1       2.291   2.276   0.871  0.00  0.00     0.048 C 
ATOM     15  C   UNL d   1       3.304   3.221   0.217  0.00  0.00     0.122 C 
ATOM     16  C   UNL d   1       4.419   3.532   1.212  0.00  0.00     0.034 C 
ATOM     17  O   UNL d   1       3.986   2.341  -0.709  0.00  0.00    -0.380 OA
ATOM     18  C   UNL d   1       5.171   2.203   1.257  0.00  0.00     0.035 C 
ATOM     19  C   UNL d   1       4.386   1.348   0.258  0.00  0.00     0.135 C 
ENDBRANCH  10  13
ENDBRANCH   8   9
ENDBRANCH   1   8
BRANCH   5  20
ATOM     20  N   UNL d   1       3.673  -6.645  -2.933  0.00  0.00    -0.269 NA
ATOM     21  C   UNL d   1       4.125  -7.432  -1.762  0.00  0.00     0.097 C 
ATOM     22  C   UNL d   1       4.781  -8.740  -2.235  0.00  0.00     0.015 C 
ATOM     23  C   UNL d   1       3.816  -9.833  -2.698  0.00  0.00     0.001 C 
ATOM     24  C   UNL d   1       2.838  -9.393  -3.782  0.00  0.00     0.001 C 
ATOM     25  C   UNL d   1       1.833  -8.372  -3.272  0.00  0.00     0.015 C 
ATOM     26  C   UNL d   1       2.292  -6.924  -3.401  0.00  0.00     0.097 C 
ENDBRANCH   5  20
TORSDOF 4
