REMARK  4 active torsions:
REMARK  status: ('A' for Active; 'I' for Inactive)
REMARK    1  A    between atoms: C_5  and  C_6 
REMARK       I    between atoms: C_6  and  N_8 
REMARK    2  A    between atoms: N_8  and  N_9 
REMARK       I    between atoms: N_9  and  C_10 
REMARK    3  A    between atoms: C_10  and  C_12 
REMARK    4  A    between atoms: C_16  and  O_17 
ROOT
ATOM      1  C   UNL d   1      -2.423  -2.015  -0.059  0.00  0.00     0.272 C 
ATOM      2  O   UNL d   1      -3.506  -1.420  -0.071  0.00  0.00    -0.266 OA
ATOM      3  N   UNL d   1      -2.344  -3.403  -0.082  0.00  0.00    -0.263 N 
ATOM      4  H   UNL d   1      -1.480  -3.939  -0.075  0.00  0.00     0.190 HD
ENDROOT
BRANCH   1   5
ATOM      5  C   UNL d   1      -1.145  -1.212  -0.022  0.00  0.00     0.066 A 
ATOM      6  C   UNL d   1       0.119  -1.823   0.000  0.00  0.00     0.020 A 
ATOM      7  C   UNL d   1       1.300  -1.057   0.018  0.00  0.00     0.008 A 
ATOM      8  C   UNL d   1       1.248   0.340   0.004  0.00  0.00    -0.059 A 
ATOM      9  C   UNL d   1       2.490   1.184  -0.001  0.00  0.00     0.048 C 
ATOM     10  C   UNL d   1      -0.004   0.959  -0.007  0.00  0.00     0.044 A 
ATOM     11  C   UNL d   1      -1.181   0.198  -0.012  0.00  0.00     0.082 A 
BRANCH  11  12
ATOM     12  O   UNL d   1      -2.338   0.935  -0.005  0.00  0.00    -0.360 OA
ATOM     13  H   UNL d   1      -3.098   0.316  -0.001  0.00  0.00     0.217 HD
ENDBRANCH  11  12
ENDBRANCH   1   5
BRANCH   3  14
ATOM     14  N   UNL d   1      -3.525  -4.191  -0.125  0.00  0.00    -0.267 N 
ATOM     15  C   UNL d   1      -3.400  -5.575  -0.143  0.00  0.00     0.243 C 
ATOM     16  O   UNL d   1      -2.287  -6.107  -0.124  0.00  0.00    -0.271 OA
ATOM     17  H   UNL d   1      -4.410  -3.690  -0.141  0.00  0.00     0.190 HD
BRANCH  15  18
ATOM     18  C   UNL d   1      -4.717  -6.399  -0.188  0.00  0.00     0.032 C 
ATOM     19  C   UNL d   1      -5.579  -6.107   1.047  0.00  0.00     0.025 C 
ATOM     20  C   UNL d   1      -5.517  -6.070  -1.456  0.00  0.00     0.025 C 
ATOM     21  C   UNL d   1      -4.403  -7.911  -0.203  0.00  0.00     0.025 C 
ENDBRANCH  15  18
ENDBRANCH   3  14
TORSDOF 4
