REMARK  8 active torsions:
REMARK  status: ('A' for Active; 'I' for Inactive)
REMARK    1  A    between atoms: C_2  and  O_3 
REMARK    2  A    between atoms: O_3  and  C_4 
REMARK    3  A    between atoms: C_7  and  C_8 
REMARK       I    between atoms: C_8  and  N_10 
REMARK    4  A    between atoms: N_10  and  C_11 
REMARK    5  A    between atoms: C_11  and  N_13 
REMARK    6  A    between atoms: N_13  and  C_14 
REMARK    7  A    between atoms: C_17  and  O_18 
REMARK    8  A    between atoms: C_19  and  C_20 
ROOT
ATOM      1  C   UNL d   1      13.285  -2.321  -0.023  0.00  0.00     0.035 A 
ATOM      2  C   UNL d   1      14.017  -3.225   0.737  0.00  0.00     0.032 A 
ATOM      3  C   UNL d   1      15.430  -3.263   0.599  0.00  0.00     0.040 A 
ATOM      4  C   UNL d   1      16.128  -2.446  -0.341  0.00  0.00     0.080 A 
ATOM      5  C   UNL d   1      15.434  -1.532  -1.127  0.00  0.00     0.052 A 
ATOM      6  C   UNL d   1      14.025  -1.479  -0.875  0.00  0.00     0.048 A 
ENDROOT
BRANCH   1   7
ATOM      7  N   UNL d   1      11.834  -2.220   0.034  0.00  0.00    -0.333 N 
ATOM      8  H   UNL d   1      11.413  -2.470   0.921  0.00  0.00     0.168 HD
BRANCH   7   9
ATOM      9  C   UNL d   1      11.015  -2.129  -1.129  0.00  0.00     0.179 C 
ATOM     10  S   UNL d   1      11.638  -2.321  -2.692  0.00  0.00    -0.040 SA
BRANCH   9  11
ATOM     11  N   UNL d   1       9.628  -1.924  -0.877  0.00  0.00    -0.299 N 
ATOM     12  C   UNL d   1       8.643  -1.756  -1.897  0.00  0.00     0.257 C 
ATOM     13  O   UNL d   1       8.897  -1.699  -3.087  0.00  0.00    -0.267 OA
ATOM     14  H   UNL d   1       9.320  -1.895   0.080  0.00  0.00     0.171 HD
BRANCH  12  15
ATOM     15  C   UNL d   1       7.186  -1.568  -1.593  0.00  0.00     0.032 A 
ATOM     16  C   UNL d   1       6.327  -1.341  -2.699  0.00  0.00     0.020 A 
ATOM     17  C   UNL d   1       4.974  -1.023  -2.531  0.00  0.00     0.038 A 
ATOM     18  C   UNL d   1       4.430  -0.997  -1.254  0.00  0.00     0.068 A 
ATOM     19  C   UNL d   1       5.254  -1.280  -0.159  0.00  0.00     0.038 A 
ATOM     20  C   UNL d   1       6.625  -1.558  -0.322  0.00  0.00     0.020 A 
BRANCH  18  21
ATOM     21  O   UNL d   1       3.077  -0.797  -1.181  0.00  0.00    -0.352 OA
BRANCH  21  22
ATOM     22  C   UNL d   1       2.617  -0.050  -0.054  0.00  0.00     0.171 C 
ATOM     23  C   UNL d   1       1.097  -0.057  -0.050  0.00  0.00     0.034 C 
ENDBRANCH  21  22
ENDBRANCH  18  21
ENDBRANCH  12  15
ENDBRANCH   9  11
ENDBRANCH   7   9
ENDBRANCH   1   7
BRANCH   5  24
ATOM     24  C   UNL d   1      15.907  -0.471  -2.071  0.00  0.00     0.183 A 
ATOM     25  N   UNL d   1      15.197   0.632  -2.197  0.00  0.00    -0.221 NA
ATOM     26  C   UNL d   1      15.862   1.403  -3.073  0.00  0.00     0.093 A 
ATOM     27  C   UNL d   1      15.580   2.732  -3.385  0.00  0.00     0.034 A 
ATOM     28  C   UNL d   1      16.927   0.729  -3.645  0.00  0.00     0.106 A 
ATOM     29  C   UNL d   1      16.336   3.380  -4.351  0.00  0.00     0.002 A 
ATOM     30  C   UNL d   1      17.351   2.685  -5.010  0.00  0.00     0.003 A 
ATOM     31  C   UNL d   1      17.672   1.331  -4.685  0.00  0.00     0.040 A 
ATOM     32  O   UNL d   1      17.007  -0.510  -2.951  0.00  0.00    -0.289 OA
ENDBRANCH   5  24
BRANCH   4  33
ATOM     33  O   UNL d   1      17.489  -2.544  -0.426  0.00  0.00    -0.360 OA
ATOM     34  H   UNL d   1      17.792  -3.303   0.102  0.00  0.00     0.217 HD
ENDBRANCH   4  33
TORSDOF 8
