REMARK  13 active torsions:
REMARK  status: ('A' for Active; 'I' for Inactive)
REMARK    1  A    between atoms: C_2  and  C_3 
REMARK    2  A    between atoms: C_3  and  C_4 
REMARK    3  A    between atoms: C_4  and  N_5 
REMARK       I    between atoms: N_5  and  C_6 
REMARK    4  A    between atoms: C_8  and  C_6 
REMARK    5  A    between atoms: C_8  and  N_18 
REMARK    6  A    between atoms: C_8  and  C_9 
REMARK    7  A    between atoms: C_12  and  N_13 
REMARK    8  A    between atoms: N_18  and  C_19 
REMARK       I    between atoms: N_18  and  C_22 
REMARK    9  A    between atoms: C_19  and  C_20 
REMARK   10  A    between atoms: C_22  and  C_24 
REMARK   11  A    between atoms: C_24  and  O_25 
REMARK   12  A    between atoms: C_24  and  C_26 
REMARK   13  A    between atoms: C_24  and  C_32 
ROOT
ATOM      1  N   UNL d   1       8.534   2.223   3.803  0.00  0.00    -0.331 N 
ATOM      2  C   UNL d   1       9.223   2.996   4.779  0.00  0.00     0.265 C 
ATOM      3  O   UNL d   1       8.561   3.634   5.611  0.00  0.00    -0.269 OA
ENDROOT
BRANCH   1   4
ATOM      4  C   UNL d   1       7.004   2.238   3.904  0.00  0.00     0.212 C 
BRANCH   4   5
ATOM      5  C   UNL d   1       6.213   1.557   2.765  0.00  0.00    -0.026 C 
ATOM      6  C   UNL d   1       5.699   2.262   1.661  0.00  0.00     0.012 C 
ATOM      7  C   UNL d   1       5.165   1.558   0.567  0.00  0.00     0.037 C 
ATOM      8  C   UNL d   1       5.222   0.154   0.536  0.00  0.00     0.102 C 
ATOM      9  C   UNL d   1       5.713  -0.562   1.629  0.00  0.00     0.037 C 
ATOM     10  C   UNL d   1       6.128   0.139   2.761  0.00  0.00     0.012 C 
BRANCH   8  11
ATOM     11  N   UNL d   1       4.852  -0.583  -0.678  0.00  0.00    -0.116 N 
ATOM     12  O   UNL d   1       4.377   0.077  -1.624  0.00  0.00    -0.532 OA
ATOM     13  O   UNL d   1       5.049  -1.799  -0.705  0.00  0.00    -0.532 OA
ENDBRANCH   8  11
ENDBRANCH   4   5
BRANCH   4  14
ATOM     14  C   UNL d   1       6.458   1.575   5.235  0.00  0.00     0.245 C 
ATOM     15  N   UNL d   1       7.349   1.389   6.265  0.00  0.00    -0.359 N 
ATOM     16  H   UNL d   1       8.083   2.084   6.336  0.00  0.00     0.162 HD
ATOM     17  O   UNL d   1       5.280   1.226   5.356  0.00  0.00    -0.271 OA
BRANCH  15  18
ATOM     18  C   UNL d   1       6.891   0.852   7.513  0.00  0.00     0.122 C 
BRANCH  18  19
ATOM     19  C   UNL d   1       7.970   0.972   8.573  0.00  0.00     0.019 C 
BRANCH  19  20
ATOM     20  C   UNL d   1       7.500   0.301   9.854  0.00  0.00    -0.003 C 
ATOM     21  C   UNL d   1       8.558   0.393  10.934  0.00  0.00     0.005 C 
ENDBRANCH  19  20
ENDBRANCH  18  19
ENDBRANCH  15  18
ENDBRANCH   4  14
ENDBRANCH   1   4
BRANCH   1  22
ATOM     22  C   UNL d   1       9.292   1.653   2.667  0.00  0.00     0.127 C 
BRANCH  22  23
ATOM     23  C   UNL d   1       8.587   1.002   1.528  0.00  0.00     0.015 C 
ATOM     24  C   UNL d   1       9.327   0.328   0.419  0.00  0.00     0.006 C 
ENDBRANCH  22  23
ENDBRANCH   1  22
BRANCH   2  25
ATOM     25  C   UNL d   1      10.834   2.990   4.863  0.00  0.00     0.194 C 
BRANCH  25  26
ATOM     26  O   UNL d   1      11.338   1.659   5.035  0.00  0.00    -0.371 OA
ATOM     27  H   UNL d   1      11.149   1.124   4.262  0.00  0.00     0.212 HD
ENDBRANCH  25  26
BRANCH  25  28
ATOM     28  C   UNL d   1      11.349   3.669   3.588  0.00  0.00    -0.010 C 
ATOM     29  C   UNL d   1      12.176   3.040   2.651  0.00  0.00     0.011 C 
ATOM     30  C   UNL d   1      12.575   3.730   1.506  0.00  0.00     0.001 C 
ATOM     31  C   UNL d   1      12.199   5.061   1.309  0.00  0.00     0.000 C 
ATOM     32  C   UNL d   1      11.362   5.689   2.212  0.00  0.00     0.001 C 
ATOM     33  C   UNL d   1      10.864   4.957   3.271  0.00  0.00     0.011 C 
ENDBRANCH  25  28
BRANCH  25  34
ATOM     34  C   UNL d   1      11.292   3.735   6.158  0.00  0.00    -0.010 A 
ATOM     35  C   UNL d   1      11.600   3.039   7.340  0.00  0.00     0.011 A 
ATOM     36  C   UNL d   1      11.757   3.723   8.553  0.00  0.00     0.001 A 
ATOM     37  C   UNL d   1      11.677   5.114   8.604  0.00  0.00     0.000 A 
ATOM     38  C   UNL d   1      11.448   5.825   7.446  0.00  0.00     0.001 A 
ATOM     39  C   UNL d   1      11.284   5.141   6.253  0.00  0.00     0.011 A 
ENDBRANCH  25  34
ENDBRANCH   2  25
TORSDOF 13
