REMARK  7 active torsions:
REMARK  status: ('A' for Active; 'I' for Inactive)
REMARK    1  A    between atoms: C_5  and  N_6 
REMARK       I    between atoms: N_6  and  C_7 
REMARK    2  A    between atoms: C_7  and  C_9 
REMARK       I    between atoms: C_9  and  N_11 
REMARK    3  A    between atoms: N_11  and  C_12 
REMARK    4  A    between atoms: C_12  and  C_13 
REMARK    5  A    between atoms: C_16  and  C_17 
REMARK    6  A    between atoms: N_18  and  N_19 
REMARK       I    between atoms: N_19  and  C_20 
REMARK    7  A    between atoms: C_20  and  C_22 
ROOT
ATOM      1  C   UNL d   1      -8.206   4.008  -0.149  0.00  0.00     0.071 A 
ATOM      2  C   UNL d   1      -9.538   4.373  -0.207  0.00  0.00     0.037 A 
ATOM      3  C   UNL d   1      -9.589   5.780  -0.208  0.00  0.00     0.041 A 
ATOM      4  C   UNL d   1      -8.289   6.244  -0.150  0.00  0.00     0.095 A 
ATOM      5  O   UNL d   1      -7.423   5.152  -0.110  0.00  0.00    -0.312 OA
ENDROOT
BRANCH   1   6
ATOM      6  C   UNL d   1      -7.639   2.610  -0.131  0.00  0.00     0.188 C 
BRANCH   6   7
ATOM      7  N   UNL d   1      -6.207   2.496  -0.103  0.00  0.00    -0.347 N 
ATOM      8  C   UNL d   1      -5.563   1.260  -0.090  0.00  0.00     0.310 C 
ATOM      9  O   UNL d   1      -6.111   0.162  -0.103  0.00  0.00    -0.262 OA
ATOM     10  H   UNL d   1      -5.630   3.333  -0.090  0.00  0.00     0.163 HD
BRANCH   8  11
ATOM     11  C   UNL d   1      -4.024   1.366  -0.057  0.00  0.00     0.313 C 
ATOM     12  N   UNL d   1      -3.292   0.170  -0.036  0.00  0.00    -0.319 N 
ATOM     13  H   UNL d   1      -3.822  -0.698  -0.051  0.00  0.00     0.169 HD
ATOM     14  O   UNL d   1      -3.590   2.515  -0.052  0.00  0.00    -0.262 OA
BRANCH  12  15
ATOM     15  C   UNL d   1      -1.865   0.090  -0.011  0.00  0.00     0.035 A 
ATOM     16  C   UNL d   1      -1.196  -1.146  -0.003  0.00  0.00     0.030 A 
ATOM     17  C   UNL d   1       0.218  -1.202   0.003  0.00  0.00     0.009 A 
ATOM     18  C   UNL d   1       0.984  -0.030   0.002  0.00  0.00    -0.062 A 
ATOM     19  C   UNL d   1       2.483  -0.030  -0.013  0.00  0.00     0.048 C 
ATOM     20  C   UNL d   1       0.320   1.191   0.006  0.00  0.00     0.009 A 
ATOM     21  C   UNL d   1      -1.074   1.241   0.003  0.00  0.00     0.030 A 
ENDBRANCH  12  15
ENDBRANCH   8  11
ENDBRANCH   6   7
ENDBRANCH   1   6
BRANCH   4  22
ATOM     22  C   UNL d   1      -7.818   7.626  -0.142  0.00  0.00     0.175 C 
ATOM     23  N   UNL d   1      -8.684   8.597  -0.224  0.00  0.00    -0.181 NA
BRANCH  23  24
ATOM     24  N   UNL d   1      -8.269   9.921  -0.228  0.00  0.00    -0.242 N 
ATOM     25  C   UNL d   1      -9.242  10.934  -0.283  0.00  0.00     0.290 C 
ATOM     26  O   UNL d   1     -10.448  10.672  -0.335  0.00  0.00    -0.264 OA
ATOM     27  H   UNL d   1      -7.293  10.144  -0.083  0.00  0.00     0.192 HD
BRANCH  25  28
ATOM     28  C   UNL d   1      -8.790  12.315  -0.220  0.00  0.00     0.135 A 
ATOM     29  C   UNL d   1      -9.376  13.349   0.509  0.00  0.00     0.066 A 
ATOM     30  C   UNL d   1     -10.522  13.285   1.452  0.00  0.00     0.073 C 
ATOM     31  N   UNL d   1      -8.741  14.552   0.289  0.00  0.00    -0.233 NA
ATOM     32  C   UNL d   1      -7.798  14.294  -0.588  0.00  0.00     0.134 A 
ATOM     33  C   UNL d   1      -6.837  15.152  -1.205  0.00  0.00     0.051 A 
ATOM     34  N   UNL d   1      -7.787  12.941  -0.944  0.00  0.00    -0.300 N 
ATOM     35  C   UNL d   1      -5.965  14.647  -2.099  0.00  0.00     0.005 A 
ATOM     36  C   UNL d   1      -5.994  13.241  -2.465  0.00  0.00     0.018 A 
ATOM     37  C   UNL d   1      -6.899  12.430  -1.893  0.00  0.00     0.099 A 
ENDBRANCH  25  28
ENDBRANCH  23  24
ENDBRANCH   4  22
TORSDOF 7
