REMARK  5 active torsions:
REMARK  status: ('A' for Active; 'I' for Inactive)
REMARK    1  A    between atoms: C_5  and  N_6 
REMARK       I    between atoms: N_6  and  C_7 
REMARK    2  A    between atoms: C_9  and  C_7 
REMARK    3  A    between atoms: C_9  and  C_21 
REMARK    4  A    between atoms: C_9  and  N_10 
REMARK    5  A    between atoms: N_10  and  C_11 
ROOT
ATOM      1  C   UNL d   1      -5.513   1.327  -0.156  0.00  0.00     0.208 C 
ENDROOT
BRANCH   1   2
ATOM      2  C   UNL d   1      -5.985   2.772  -0.073  0.00  0.00    -0.026 A 
ATOM      3  C   UNL d   1      -7.371   3.030  -0.054  0.00  0.00     0.010 A 
ATOM      4  C   UNL d   1      -7.850   4.338  -0.083  0.00  0.00     0.001 A 
ATOM      5  C   UNL d   1      -6.956   5.405  -0.096  0.00  0.00     0.000 A 
ATOM      6  C   UNL d   1      -5.588   5.169  -0.073  0.00  0.00     0.001 A 
ATOM      7  C   UNL d   1      -5.108   3.865  -0.065  0.00  0.00     0.010 A 
ENDBRANCH   1   2
BRANCH   1   8
ATOM      8  N   UNL d   1      -4.050   1.183  -0.058  0.00  0.00    -0.373 N 
ATOM      9  H   UNL d   1      -3.479   2.011  -0.040  0.00  0.00     0.161 HD
BRANCH   8  10
ATOM     10  C   UNL d   1      -3.336   0.002  -0.026  0.00  0.00     0.029 A 
ATOM     11  C   UNL d   1      -3.934  -1.273   0.006  0.00  0.00     0.030 A 
ATOM     12  C   UNL d   1      -3.221  -2.466  -0.123  0.00  0.00     0.012 A 
ATOM     13  C   UNL d   1      -1.855  -2.377  -0.142  0.00  0.00    -0.025 A 
ATOM     14  C   UNL d   1      -1.248  -1.127  -0.086  0.00  0.00     0.042 A 
ATOM     15  C   UNL d   1      -0.829  -3.451  -0.144  0.00  0.00     0.162 A 
ATOM     16  C   UNL d   1      -1.943   0.063  -0.049  0.00  0.00     0.046 A 
ATOM     17  C   UNL d   1       0.198  -1.325  -0.052  0.00  0.00     0.252 A 
ATOM     18  O   UNL d   1       1.026  -0.452   0.026  0.00  0.00    -0.268 OA
ATOM     19  N   UNL d   1       0.402  -2.689  -0.110  0.00  0.00    -0.353 N 
ATOM     20  H   UNL d   1       1.343  -3.057  -0.076  0.00  0.00     0.163 HD
ENDBRANCH   8  10
ENDBRANCH   1   8
BRANCH   1  21
ATOM     21  C   UNL d   1      -6.102   0.586  -1.393  0.00  0.00     0.249 C 
ATOM     22  N   UNL d   1      -6.420   1.296  -2.544  0.00  0.00    -0.325 N 
ATOM     23  H   UNL d   1      -6.506   2.305  -2.490  0.00  0.00     0.169 HD
ATOM     24  O   UNL d   1      -6.306  -0.628  -1.300  0.00  0.00    -0.270 OA
BRANCH  22  25
ATOM     25  C   UNL d   1      -6.766   0.666  -3.769  0.00  0.00     0.034 A 
ATOM     26  C   UNL d   1      -7.230   1.427  -4.843  0.00  0.00     0.030 A 
ATOM     27  C   UNL d   1      -7.512   0.804  -6.073  0.00  0.00     0.009 A 
ATOM     28  C   UNL d   1      -7.339  -0.577  -6.238  0.00  0.00    -0.062 A 
ATOM     29  C   UNL d   1      -7.592  -1.283  -7.531  0.00  0.00     0.048 C 
ATOM     30  C   UNL d   1      -6.896  -1.332  -5.164  0.00  0.00     0.009 A 
ATOM     31  C   UNL d   1      -6.612  -0.713  -3.959  0.00  0.00     0.030 A 
ENDBRANCH  22  25
ENDBRANCH   1  21
TORSDOF 5
