@<TRIPOS>MOLECULE
*****
 47 49 0 0 0
SMALL
GASTEIGER

@<TRIPOS>ATOM
      1 O           1.0195    0.2848    0.1647 O.2     1  UNL1       -0.2729
      2 C           2.2384    0.1322    0.0644 C.2     1  UNL1        0.2432
      3 C           2.9326   -1.2333   -0.1725 C.3     1  UNL1        0.0774
      4 N           1.9642   -2.3405   -0.3713 N.3     1  UNL1       -0.2900
      5 C           1.1024   -2.0380   -1.5251 C.3     1  UNL1        0.0181
      6 C           0.4093   -3.1992   -2.1407 C.2     1  UNL1       -0.0663
      7 C           0.6203   -4.4727   -1.7790 C.2     1  UNL1       -0.0417
      8 C          -0.1162   -5.5190   -2.4931 C.ar    1  UNL1       -0.0218
      9 C          -0.9671   -6.4143   -1.8368 C.ar    1  UNL1       -0.0509
     10 C          -1.7390   -7.3190   -2.5784 C.ar    1  UNL1       -0.0196
     11 C          -1.6464   -7.3243   -3.9694 C.ar    1  UNL1        0.1169
     12 O          -2.3888   -8.1629   -4.7465 O.3     1  UNL1       -0.5068
     13 C          -0.7870   -6.4587   -4.6290 C.ar    1  UNL1       -0.0196
     14 C          -0.0224   -5.5618   -3.8927 C.ar    1  UNL1       -0.0509
     15 C           1.6082   -4.7999   -0.6974 C.3     1  UNL1       -0.0145
     16 C           2.6281   -3.6496   -0.5048 C.3     1  UNL1        0.0037
     17 N           3.0240    1.2553    0.1482 N.am    1  UNL1       -0.2331
     18 N           4.4177    1.2987    0.0903 N.am    1  UNL1       -0.2303
     19 C           5.0393    2.5160    0.3278 C.2     1  UNL1        0.2601
     20 O           4.4296    3.5622    0.5454 O.2     1  UNL1       -0.2687
     21 C           6.5277    2.4989    0.3320 C.ar    1  UNL1        0.0382
     22 C           7.2407    1.7746   -0.6325 C.ar    1  UNL1       -0.0482
     23 C           8.6407    1.7783   -0.6182 C.ar    1  UNL1       -0.0427
     24 C           9.3278    2.5027    0.3558 C.ar    1  UNL1        0.0410
     25 CL         11.0482    2.4790    0.3818 Cl      1  UNL1       -0.0835
     26 C           8.6265    3.2452    1.3044 C.ar    1  UNL1       -0.0427
     27 C           7.2256    3.2508    1.2883 C.ar    1  UNL1       -0.0482
     28 H           3.5534   -1.4406    0.7065 H       1  UNL1        0.0522
     29 H           3.5885   -1.1481   -1.0491 H       1  UNL1        0.0522
     30 H           1.6717   -1.5401   -2.3201 H       1  UNL1        0.0470
     31 H           0.3000   -1.3667   -1.2105 H       1  UNL1        0.0470
     32 H          -0.3088   -2.9465   -2.9171 H       1  UNL1        0.0588
     33 H          -1.0654   -6.3850   -0.7538 H       1  UNL1        0.0625
     34 H          -2.4112   -7.9929   -2.0568 H       1  UNL1        0.0654
     35 H          -2.9695   -8.6917   -4.1775 H       1  UNL1        0.2921
     36 H          -0.7202   -6.4680   -5.7118 H       1  UNL1        0.0654
     37 H           0.6351   -4.8730   -4.4180 H       1  UNL1        0.0625
     38 H           2.1552   -5.7179   -0.9446 H       1  UNL1        0.0326
     39 H           1.0719   -4.9789    0.2431 H       1  UNL1        0.0326
     40 H           3.3355   -3.6456   -1.3459 H       1  UNL1        0.0430
     41 H           3.2111   -3.8672    0.3998 H       1  UNL1        0.0430
     42 H           2.5362    2.1416    0.2930 H       1  UNL1        0.1728
     43 H           4.9423    0.4326    0.0630 H       1  UNL1        0.1731
     44 H           6.7233    1.2359   -1.4215 H       1  UNL1        0.0625
     45 H           9.1919    1.2250   -1.3750 H       1  UNL1        0.0632
     46 H           9.1640    3.8237    2.0528 H       1  UNL1        0.0632
     47 H           6.6848    3.8411    2.0261 H       1  UNL1        0.0625
@<TRIPOS>BOND
     1     1     2    2
     2     2     3    1
     3     3     4    1
     4     4     5    1
     5     5     6    1
     6     6     7    2
     7     7     8    1
     8     8     9   ar
     9     9    10   ar
    10    10    11   ar
    11    11    12    1
    12    11    13   ar
    13    13    14   ar
    14     8    14   ar
    15     7    15    1
    16    15    16    1
    17     4    16    1
    18     2    17   am
    19    17    18    1
    20    18    19   am
    21    19    20    2
    22    19    21    1
    23    21    22   ar
    24    22    23   ar
    25    23    24   ar
    26    24    25    1
    27    24    26   ar
    28    26    27   ar
    29    21    27   ar
    30     3    28    1
    31     3    29    1
    32     5    30    1
    33     5    31    1
    34     6    32    1
    35     9    33    1
    36    10    34    1
    37    12    35    1
    38    13    36    1
    39    14    37    1
    40    15    38    1
    41    15    39    1
    42    16    40    1
    43    16    41    1
    44    17    42    1
    45    18    43    1
    46    22    44    1
    47    23    45    1
    48    26    46    1
    49    27    47    1
