@<TRIPOS>MOLECULE
*****
 37 38 0 0 0
SMALL
GASTEIGER

@<TRIPOS>ATOM
      1 C           2.4457   -0.3570    0.4749 C.3     1  UNL1       -0.0380
      2 C           0.9888   -0.1120    0.2063 C.ar    1  UNL1       -0.0292
      3 C           0.2225   -1.2773    0.1077 C.ar    1  UNL1       -0.0564
      4 C          -1.1572   -1.2324    0.0072 C.ar    1  UNL1       -0.0493
      5 C          -1.8215   -0.0087   -0.0037 C.ar    1  UNL1        0.0383
      6 C          -3.3210    0.0403   -0.0464 C.2     1  UNL1        0.2416
      7 N          -4.0061   -1.1563   -0.0646 N.am    1  UNL1       -0.3253
      8 O          -3.9261    1.0929   -0.0599 O.2     1  UNL1       -0.2704
      9 C          -1.0592    1.1838    0.0110 C.ar    1  UNL1       -0.0281
     10 C           0.3589    1.1450    0.0586 C.ar    1  UNL1        0.0373
     11 N           1.0647    2.3825   -0.0589 N.am    1  UNL1       -0.2813
     12 C           2.4366    2.5931   -0.1801 C.2     1  UNL1        0.2484
     13 O           3.0098    3.3798    0.5698 O.2     1  UNL1       -0.2699
     14 C           3.2192    1.8743   -1.2560 C.ar    1  UNL1        0.0405
     15 C           4.6096    1.7223   -1.1133 C.ar    1  UNL1       -0.0494
     16 C           5.2909    0.7789   -1.8967 C.ar    1  UNL1       -0.0576
     17 C           4.5857   -0.0476   -2.7844 C.ar    1  UNL1       -0.0197
     18 C           3.1994    0.0818   -2.9232 C.ar    1  UNL1        0.1276
     19 O           2.5711   -0.8951   -3.6539 O.3     1  UNL1       -0.4342
     20 C           1.1482   -0.9691   -3.5639 C.3     1  UNL1        0.3893
     21 F           0.6000    0.2049   -3.9611 F       1  UNL1       -0.1663
     22 F           0.7225   -1.9029   -4.4529 F       1  UNL1       -0.1663
     23 C           2.5452    1.1042   -2.2262 C.ar    1  UNL1       -0.0076
     24 H           2.6811   -1.4075    0.6527 H       1  UNL1        0.0278
     25 H           2.8322    0.2658    1.2823 H       1  UNL1        0.0278
     26 H           3.0292   -0.2081   -0.4074 H       1  UNL1        0.0278
     27 H           0.7156   -2.2470    0.1129 H       1  UNL1        0.0621
     28 H          -1.6713   -2.1833   -0.0331 H       1  UNL1        0.0625
     29 H          -3.5988   -2.0758   -0.0457 H       1  UNL1        0.1453
     30 H          -5.0171   -1.1132   -0.0819 H       1  UNL1        0.1453
     31 H          -1.5904    2.1364   -0.0352 H       1  UNL1        0.0644
     32 H           0.5515    3.2220    0.1955 H       1  UNL1        0.1551
     33 H           5.1466    2.2432   -0.3207 H       1  UNL1        0.0625
     34 H           6.3609    0.6300   -1.7577 H       1  UNL1        0.0619
     35 H           5.1179   -0.8321   -3.3207 H       1  UNL1        0.0654
     36 H           0.7881   -1.2548   -2.5710 H       1  UNL1        0.1520
     37 H           1.4662    1.1678   -2.2539 H       1  UNL1        0.0662
@<TRIPOS>BOND
     1     1     2    1
     2     2     3   ar
     3     3     4   ar
     4     4     5   ar
     5     5     6    1
     6     6     7   am
     7     6     8    2
     8     5     9   ar
     9     9    10   ar
    10     2    10   ar
    11    10    11    1
    12    11    12   am
    13    12    13    2
    14    12    14    1
    15    14    15   ar
    16    15    16   ar
    17    16    17   ar
    18    17    18   ar
    19    18    19    1
    20    19    20    1
    21    20    21    1
    22    20    22    1
    23    18    23   ar
    24    14    23   ar
    25     1    24    1
    26     1    25    1
    27     1    26    1
    28     3    27    1
    29     4    28    1
    30     7    29    1
    31     7    30    1
    32     9    31    1
    33    11    32    1
    34    15    33    1
    35    16    34    1
    36    17    35    1
    37    20    36    1
    38    23    37    1
