@<TRIPOS>MOLECULE
*****
 43 44 0 0 0
SMALL
GASTEIGER

@<TRIPOS>ATOM
      1 C           2.5300    1.0776    0.0074 C.3     1  UNL1       -0.0397
      2 C           1.2231    0.3415   -0.0012 C.ar    1  UNL1       -0.0495
      3 C           0.0016    1.0274   -0.0086 C.ar    1  UNL1       -0.0559
      4 C          -1.2088    0.3259   -0.0044 C.ar    1  UNL1       -0.0495
      5 C          -2.5282    1.0418   -0.0060 C.3     1  UNL1       -0.0397
      6 C          -1.1814   -1.0756    0.0034 C.ar    1  UNL1       -0.0467
      7 C           0.0343   -1.7805    0.0154 C.ar    1  UNL1        0.0372
      8 C          -0.0198   -3.2716    0.0335 C.2     1  UNL1        0.2444
      9 O          -1.1173   -3.8273    0.0887 O.2     1  UNL1       -0.2702
     10 N           1.1661   -3.9805   -0.0252 N.am    1  UNL1       -0.3060
     11 C           1.1921   -5.4499   -0.0521 C.3     1  UNL1        0.0506
     12 C           0.4626   -5.9630   -1.2975 C.3     1  UNL1       -0.0439
     13 C           2.6566   -5.9906   -0.0169 C.3     1  UNL1        0.0982
     14 O           3.3574   -5.4395    1.1083 O.3     1  UNL1       -0.3853
     15 C           2.7107   -7.5100    0.0068 C.ar    1  UNL1       -0.0172
     16 C           2.7489   -8.2303   -1.2049 C.ar    1  UNL1       -0.0526
     17 C           2.6981   -9.6281   -1.2156 C.ar    1  UNL1       -0.0198
     18 C           2.6389  -10.3134   -0.0085 C.ar    1  UNL1        0.1169
     19 O           2.6140  -11.6744    0.0532 O.3     1  UNL1       -0.5068
     20 C           2.5984   -9.6254    1.1956 C.ar    1  UNL1       -0.0198
     21 C           2.6233   -8.2319    1.2049 C.ar    1  UNL1       -0.0526
     22 C           1.2320   -1.0609    0.0089 C.ar    1  UNL1       -0.0467
     23 H           2.3829    2.1614   -0.0085 H       1  UNL1        0.0278
     24 H           3.1209    0.8014   -0.8721 H       1  UNL1        0.0278
     25 H           3.0931    0.8239    0.9116 H       1  UNL1        0.0278
     26 H          -0.0054    2.1159   -0.0156 H       1  UNL1        0.0623
     27 H          -2.3997    2.1290    0.0110 H       1  UNL1        0.0278
     28 H          -3.1109    0.7602    0.8775 H       1  UNL1        0.0278
     29 H          -3.0956    0.7833   -0.9059 H       1  UNL1        0.0278
     30 H          -2.1231   -1.6246    0.0011 H       1  UNL1        0.0628
     31 H           2.0619   -3.5168    0.0330 H       1  UNL1        0.1494
     32 H           0.6622   -5.7796    0.8513 H       1  UNL1        0.0524
     33 H           0.9771   -5.6261   -2.2040 H       1  UNL1        0.0248
     34 H          -0.5679   -5.6091   -1.3530 H       1  UNL1        0.0248
     35 H           0.4003   -7.0528   -1.3089 H       1  UNL1        0.0248
     36 H           3.2056   -5.6247   -0.8938 H       1  UNL1        0.0662
     37 H           2.8805   -5.7112    1.9100 H       1  UNL1        0.2103
     38 H           2.7692   -7.7001   -2.1568 H       1  UNL1        0.0622
     39 H           2.6928  -10.1528   -2.1661 H       1  UNL1        0.0654
     40 H           2.6835  -12.0334   -0.8455 H       1  UNL1        0.2921
     41 H           2.5392  -10.1724    2.1316 H       1  UNL1        0.0654
     42 H           2.5642   -7.7311    2.1655 H       1  UNL1        0.0622
     43 H           2.1930   -1.5611    0.0167 H       1  UNL1        0.0628
@<TRIPOS>BOND
     1     1     2    1
     2     2     3   ar
     3     3     4   ar
     4     4     5    1
     5     4     6   ar
     6     6     7   ar
     7     7     8    1
     8     8     9    2
     9     8    10   am
    10    10    11    1
    11    11    12    1
    12    11    13    1
    13    13    14    1
    14    13    15    1
    15    15    16   ar
    16    16    17   ar
    17    17    18   ar
    18    18    19    1
    19    18    20   ar
    20    20    21   ar
    21    15    21   ar
    22     7    22   ar
    23     2    22   ar
    24     1    23    1
    25     1    24    1
    26     1    25    1
    27     3    26    1
    28     5    27    1
    29     5    28    1
    30     5    29    1
    31     6    30    1
    32    10    31    1
    33    11    32    1
    34    12    33    1
    35    12    34    1
    36    12    35    1
    37    13    36    1
    38    14    37    1
    39    16    38    1
    40    17    39    1
    41    19    40    1
    42    20    41    1
    43    21    42    1
    44    22    43    1
