@<TRIPOS>MOLECULE
*****
 66 67 0 0 0
SMALL
GASTEIGER

@<TRIPOS>ATOM
      1 C           1.0510    0.1070   -0.0159 C.3     1  UNL1       -0.0653
      2 C           2.5619    0.1996   -0.0269 C.3     1  UNL1       -0.0559
      3 C           3.1697   -0.9931    0.6568 C.3     1  UNL1       -0.0533
      4 C           4.6971   -0.8723    0.6709 C.3     1  UNL1       -0.0516
      5 C           5.2039   -2.0966    1.3600 C.3     1  UNL1       -0.0371
      6 C           6.6516   -2.4306    1.4143 C.3     1  UNL1        0.0161
      7 N           7.0132   -3.7416    2.0241 N.am    1  UNL1       -0.2817
      8 C           6.0739   -4.6096    2.6833 C.2     1  UNL1        0.2475
      9 O           6.3831   -5.4089    3.5653 O.2     1  UNL1       -0.2700
     10 C           4.6060   -4.6707    2.4085 C.ar    1  UNL1        0.0371
     11 C           3.9974   -4.6378    1.1480 C.ar    1  UNL1       -0.0469
     12 C           2.6521   -4.2481    1.0583 C.ar    1  UNL1       -0.0257
     13 C           1.8814   -4.1455    2.2082 C.ar    1  UNL1        0.1234
     14 F           0.6123   -3.7293    2.1207 F       1  UNL1       -0.2055
     15 C           2.4189   -4.4636    3.4440 C.ar    1  UNL1       -0.0257
     16 C           3.7866   -4.7005    3.5468 C.ar    1  UNL1       -0.0469
     17 C           8.5421   -3.9140    2.2685 C.3     1  UNL1        0.1344
     18 C           9.1653   -2.6611    2.9998 C.2     1  UNL1        0.2387
     19 O           9.6064   -2.7009    4.1241 O.2     1  UNL1       -0.2734
     20 N           9.2025   -1.4021    2.4092 N.am    1  UNL1       -0.3087
     21 C           9.7568   -0.2840    3.2101 C.3     1  UNL1        0.0262
     22 C           9.0897   -0.1592    4.6116 C.3     1  UNL1       -0.0442
     23 C          11.2782   -0.4795    3.3544 C.3     1  UNL1       -0.0442
     24 C           9.4974    1.0381    2.4803 C.3     1  UNL1       -0.0442
     25 C           8.9401   -5.3041    2.8640 C.ar    1  UNL1        0.0648
     26 C           8.4188   -6.4845    2.2754 C.ar    1  UNL1        0.1292
     27 O           7.7375   -6.4867    1.0794 O.3     1  UNL1       -0.5062
     28 C           8.4526   -7.7218    2.9382 C.ar    1  UNL1        0.0219
     29 C           9.0898   -7.8308    4.1656 C.ar    1  UNL1        0.1238
     30 O           9.1884   -8.9969    4.8592 O.3     1  UNL1       -0.5065
     31 C           9.7014   -6.7398    4.7272 C.ar    1  UNL1        0.0219
     32 C           9.6606   -5.5159    4.0696 C.ar    1  UNL1        0.1292
     33 O          10.5125   -4.6189    4.6406 O.3     1  UNL1       -0.5062
     34 H           0.6323    0.9860   -0.5092 H       1  UNL1        0.0230
     35 H           0.6697    0.0618    1.0093 H       1  UNL1        0.0230
     36 H           0.7046   -0.7876   -0.5455 H       1  UNL1        0.0230
     37 H           2.8971    1.1082    0.4788 H       1  UNL1        0.0263
     38 H           2.9232    0.2233   -1.0606 H       1  UNL1        0.0263
     39 H           2.8736   -1.8722    0.0762 H       1  UNL1        0.0265
     40 H           2.7686   -1.1284    1.6720 H       1  UNL1        0.0265
     41 H           5.0354    0.0363    1.1662 H       1  UNL1        0.0266
     42 H           5.0593   -0.8897   -0.3628 H       1  UNL1        0.0266
     43 H           4.8609   -2.8162    0.6533 H       1  UNL1        0.0280
     44 H           4.7675   -2.1696    2.3631 H       1  UNL1        0.0280
     45 H           7.0504   -1.6239    2.0174 H       1  UNL1        0.0465
     46 H           7.0947   -2.4072    0.4114 H       1  UNL1        0.0465
     47 H           4.5925   -4.6763    0.2354 H       1  UNL1        0.0626
     48 H           2.2282   -3.9219    0.1107 H       1  UNL1        0.0646
     49 H           1.7898   -4.4848    4.3251 H       1  UNL1        0.0646
     50 H           4.2337   -4.8799    4.5230 H       1  UNL1        0.0626
     51 H           8.9782   -3.9029    1.2565 H       1  UNL1        0.0650
     52 H           8.8759   -1.2178    1.4720 H       1  UNL1        0.1493
     53 H           9.2290   -1.0232    5.2669 H       1  UNL1        0.0250
     54 H           8.0063   -0.0217    4.5230 H       1  UNL1        0.0250
     55 H           9.5130    0.6758    5.1760 H       1  UNL1        0.0250
     56 H          11.5412   -1.4012    3.8845 H       1  UNL1        0.0250
     57 H          11.7334    0.3441    3.9105 H       1  UNL1        0.0250
     58 H          11.7511   -0.5452    2.3677 H       1  UNL1        0.0250
     59 H           8.4223    1.2239    2.3749 H       1  UNL1        0.0250
     60 H           9.9355    1.0294    1.4781 H       1  UNL1        0.0250
     61 H           9.9313    1.8765    3.0378 H       1  UNL1        0.0250
     62 H           7.4487   -5.5797    0.8899 H       1  UNL1        0.2922
     63 H           7.9159   -8.5621    2.5143 H       1  UNL1        0.0691
     64 H           8.7376   -9.6868    4.3516 H       1  UNL1        0.2921
     65 H          10.2416   -6.8394    5.6631 H       1  UNL1        0.0691
     66 H          10.4847   -4.6886    5.6114 H       1  UNL1        0.2922
@<TRIPOS>BOND
     1     1     2    1
     2     2     3    1
     3     3     4    1
     4     4     5    1
     5     5     6    1
     6     6     7    1
     7     7     8   am
     8     8     9    2
     9     8    10    1
    10    10    11   ar
    11    11    12   ar
    12    12    13   ar
    13    13    14    1
    14    13    15   ar
    15    15    16   ar
    16    10    16   ar
    17     7    17    1
    18    17    18    1
    19    18    19    2
    20    18    20   am
    21    20    21    1
    22    21    22    1
    23    21    23    1
    24    21    24    1
    25    17    25    1
    26    25    26   ar
    27    26    27    1
    28    26    28   ar
    29    28    29   ar
    30    29    30    1
    31    29    31   ar
    32    31    32   ar
    33    25    32   ar
    34    32    33    1
    35     1    34    1
    36     1    35    1
    37     1    36    1
    38     2    37    1
    39     2    38    1
    40     3    39    1
    41     3    40    1
    42     4    41    1
    43     4    42    1
    44     5    43    1
    45     5    44    1
    46     6    45    1
    47     6    46    1
    48    11    47    1
    49    12    48    1
    50    15    49    1
    51    16    50    1
    52    17    51    1
    53    20    52    1
    54    22    53    1
    55    22    54    1
    56    22    55    1
    57    23    56    1
    58    23    57    1
    59    23    58    1
    60    24    59    1
    61    24    60    1
    62    24    61    1
    63    27    62    1
    64    28    63    1
    65    30    64    1
    66    31    65    1
    67    33    66    1
