REMARK  6 active torsions:
REMARK  status: ('A' for Active; 'I' for Inactive)
REMARK    1  A    between atoms: O_2  and  C_3 
REMARK    2  A    between atoms: C_10  and  C_11 
REMARK       I    between atoms: C_11  and  N_13 
REMARK    3  A    between atoms: N_13  and  C_14 
REMARK    4  A    between atoms: C_14  and  N_16 
REMARK    5  A    between atoms: N_16  and  C_17 
REMARK    6  A    between atoms: C_22  and  N_23 
ROOT
ATOM      1  C   UNL d   1       3.821   3.495   0.900  0.00  0.00     0.179 C 
ATOM      2  S   UNL d   1       4.207   4.396   2.269  0.00  0.00    -0.040 SA
ENDROOT
BRANCH   1   3
ATOM      3  N   UNL d   1       3.602   2.083   0.909  0.00  0.00    -0.299 N 
ATOM      4  C   UNL d   1       4.030   1.173   1.915  0.00  0.00     0.260 C 
ATOM      5  O   UNL d   1       4.730   1.504   2.857  0.00  0.00    -0.267 OA
ATOM      6  H   UNL d   1       3.192   1.660   0.084  0.00  0.00     0.171 HD
BRANCH   4   7
ATOM      7  C   UNL d   1       3.784  -0.315   1.780  0.00  0.00     0.067 A 
ATOM      8  C   UNL d   1       4.485  -1.184   2.666  0.00  0.00     0.039 A 
ATOM      9  C   UNL d   1       4.166  -2.541   2.741  0.00  0.00     0.012 A 
ATOM     10  C   UNL d   1       3.193  -3.065   1.904  0.00  0.00     0.028 A 
ATOM     11 BR   UNL d   1       5.000  -3.671   4.010  0.00  0.00    -0.051 Br
ATOM     12  C   UNL d   1       2.570  -2.251   0.942  0.00  0.00    -0.026 A 
ATOM     13  C   UNL d   1       2.849  -0.868   0.900  0.00  0.00     0.089 A 
ATOM     14  C   UNL d   1       1.573  -2.914   0.037  0.00  0.00     0.051 C 
BRANCH  13  15
ATOM     15  O   UNL d   1       2.295  -0.056  -0.057  0.00  0.00    -0.354 OA
ATOM     16  C   UNL d   1       0.881   0.102   0.099  0.00  0.00     0.210 C 
ENDBRANCH  13  15
ENDBRANCH   4   7
ENDBRANCH   1   3
BRANCH   1  17
ATOM     17  N   UNL d   1       3.771   4.057  -0.402  0.00  0.00    -0.331 N 
ATOM     18  H   UNL d   1       2.921   3.861  -0.920  0.00  0.00     0.168 HD
BRANCH  17  19
ATOM     19  C   UNL d   1       4.299   5.387  -0.656  0.00  0.00     0.061 A 
ATOM     20  C   UNL d   1       3.392   6.436  -0.904  0.00  0.00     0.032 A 
ATOM     21  C   UNL d   1       3.852   7.736  -1.147  0.00  0.00     0.002 A 
ATOM     22  C   UNL d   1       5.217   8.005  -1.104  0.00  0.00     0.002 A 
ATOM     23  C   UNL d   1       6.130   6.972  -0.836  0.00  0.00     0.031 A 
ATOM     24  C   UNL d   1       5.706   5.643  -0.617  0.00  0.00     0.057 A 
BRANCH  24  25
ATOM     25  N   UNL d   1       6.645   4.623  -0.478  0.00  0.00    -0.376 N 
ATOM     26  C   UNL d   1       6.619   3.517  -1.427  0.00  0.00     0.150 C 
ATOM     27  C   UNL d   1       6.451   2.186  -0.689  0.00  0.00     0.254 C 
ATOM     28  N   UNL d   1       7.471   1.989   0.421  0.00  0.00    -0.072 N 
ATOM     29  C   UNL d   1       7.258   0.699   1.152  0.00  0.00     0.269 C 
ATOM     30  C   UNL d   1       7.544   3.196   1.385  0.00  0.00     0.254 C 
ATOM     31  H   UNL d   1       8.386   1.933  -0.030  0.00  0.00     0.279 HD
ATOM     32  C   UNL d   1       7.636   4.546   0.606  0.00  0.00     0.150 C 
ENDBRANCH  24  25
ENDBRANCH  17  19
ENDBRANCH   1  17
TORSDOF 6
