REMARK  3 active torsions:
REMARK  status: ('A' for Active; 'I' for Inactive)
REMARK       I    between atoms: C_2  and  N_3 
REMARK    1  A    between atoms: C_2  and  C_14 
REMARK    2  A    between atoms: N_3  and  N_4 
REMARK       I    between atoms: N_4  and  C_5 
REMARK    3  A    between atoms: C_5  and  C_7 
ROOT
ATOM      1  O   UNL d   1       1.051   0.013  -0.153  0.00  0.00    -0.266 OA
ATOM      2  C   UNL d   1       2.281   0.081  -0.168  0.00  0.00     0.270 C 
ATOM      3  N   UNL d   1       3.000   0.556  -1.258  0.00  0.00    -0.263 N 
ATOM      4  H   UNL d   1       4.016   0.516  -1.326  0.00  0.00     0.190 HD
ENDROOT
BRANCH   3   5
ATOM      5  N   UNL d   1       2.312   0.993  -2.425  0.00  0.00    -0.263 N 
ATOM      6  C   UNL d   1       3.042   1.357  -3.551  0.00  0.00     0.270 C 
ATOM      7  O   UNL d   1       4.271   1.302  -3.594  0.00  0.00    -0.266 OA
ATOM      8  H   UNL d   1       1.296   0.929  -2.398  0.00  0.00     0.190 HD
BRANCH   6   9
ATOM      9  C   UNL d   1       2.279   1.839  -4.748  0.00  0.00     0.035 A 
ATOM     10  C   UNL d   1       1.187   2.706  -4.605  0.00  0.00     0.017 A 
ATOM     11  C   UNL d   1       0.536   3.222  -5.735  0.00  0.00     0.003 A 
ATOM     12  C   UNL d   1       0.958   2.866  -7.016  0.00  0.00     0.024 A 
ATOM     13  C   UNL d   1       2.040   2.001  -7.164  0.00  0.00     0.035 A 
ATOM     14 CL   UNL d   1       2.542   1.554  -8.751  0.00  0.00    -0.084 Cl
ATOM     15  C   UNL d   1       2.713   1.500  -6.042  0.00  0.00     0.041 A 
ENDBRANCH   6   9
ENDBRANCH   3   5
BRANCH   2  16
ATOM     16  C   UNL d   1       3.070  -0.379   1.020  0.00  0.00     0.036 A 
ATOM     17  C   UNL d   1       2.665  -1.519   1.739  0.00  0.00     0.017 A 
ATOM     18  C   UNL d   1       3.400  -1.966   2.850  0.00  0.00     0.004 A 
ATOM     19  C   UNL d   1       4.525  -1.258   3.267  0.00  0.00     0.042 A 
ATOM     20  C   UNL d   1       4.899  -0.111   2.576  0.00  0.00     0.117 A 
ATOM     21  F   UNL d   1       5.969   0.580   2.991  0.00  0.00    -0.206 F 
ATOM     22  C   UNL d   1       4.188   0.336   1.461  0.00  0.00     0.059 A 
ENDBRANCH   2  16
TORSDOF 3
