@<TRIPOS>MOLECULE
*****
 41 42 0 0 0
SMALL
GASTEIGER

@<TRIPOS>ATOM
      1 C           1.1180   -0.1246    0.0133 C.3     1  UNL1        0.0125
      2 C           2.6232   -0.0476   -0.0679 C.2     1  UNL1        0.2141
      3 O           3.1519    0.6918   -0.8968 O.2     1  UNL1       -0.2758
      4 N           3.3149   -0.8759    0.8083 N.am    1  UNL1       -0.2857
      5 C           4.7313   -0.8705    0.9074 C.ar    1  UNL1        0.0334
      6 C           5.4511   -2.0447    1.1413 C.ar    1  UNL1       -0.0398
      7 C           6.8626   -2.0030    1.2698 C.ar    1  UNL1       -0.0478
      8 C           7.5819   -0.7949    1.1411 C.ar    1  UNL1        0.0383
      9 C           9.0988   -0.7990    1.1647 C.2     1  UNL1        0.2601
     10 O           9.7112   -1.8625    1.3188 O.2     1  UNL1       -0.2687
     11 N           9.7708    0.4069    0.9822 N.am    1  UNL1       -0.2303
     12 N          11.1995    0.4554    0.9540 N.am    1  UNL1       -0.2313
     13 C          11.8134    1.6965    0.7855 C.2     1  UNL1        0.2667
     14 O          11.1332    2.7166    0.6410 O.2     1  UNL1       -0.2705
     15 C          13.3661    1.7023    0.7838 C.3     1  UNL1        0.1666
     16 O          13.8698    3.0430    0.7189 O.3     1  UNL1       -0.4827
     17 C          15.2195    3.2289    0.5708 C.ar    1  UNL1        0.1212
     18 C          15.7516    4.3760    1.1751 C.ar    1  UNL1       -0.0199
     19 C          17.0909    4.7366    0.9814 C.ar    1  UNL1       -0.0583
     20 C          17.9257    3.9224    0.2218 C.ar    1  UNL1       -0.0615
     21 C          17.4056    2.7779   -0.3808 C.ar    1  UNL1       -0.0583
     22 C          16.0541    2.4386   -0.2185 C.ar    1  UNL1       -0.0199
     23 C           6.8396    0.3729    0.9481 C.ar    1  UNL1       -0.0478
     24 C           5.4408    0.3290    0.8229 C.ar    1  UNL1       -0.0398
     25 H           0.6974    0.5362   -0.7555 H       1  UNL1        0.0323
     26 H           0.7617    0.2251    0.9852 H       1  UNL1        0.0323
     27 H           0.7625   -1.1380   -0.1858 H       1  UNL1        0.0323
     28 H           2.8064   -1.5991    1.3031 H       1  UNL1        0.1548
     29 H           4.9502   -3.0116    1.1486 H       1  UNL1        0.0636
     30 H           7.3980   -2.9340    1.4589 H       1  UNL1        0.0626
     31 H           9.3169    1.3043    0.8230 H       1  UNL1        0.1731
     32 H          11.6860   -0.4317    1.0684 H       1  UNL1        0.1729
     33 H          13.6949    1.1045   -0.0719 H       1  UNL1        0.0795
     34 H          13.7183    1.2516    1.7179 H       1  UNL1        0.0795
     35 H          15.1201    5.0029    1.8003 H       1  UNL1        0.0654
     36 H          17.4778    5.6589    1.4093 H       1  UNL1        0.0619
     37 H          18.9733    4.1842    0.0902 H       1  UNL1        0.0618
     38 H          18.0489    2.1610   -1.0039 H       1  UNL1        0.0619
     39 H          15.6787    1.5759   -0.7551 H       1  UNL1        0.0654
     40 H           7.3034    1.3495    0.8871 H       1  UNL1        0.0626
     41 H           4.9078    1.2663    0.6795 H       1  UNL1        0.0636
@<TRIPOS>BOND
     1     1     2    1
     2     2     3    2
     3     2     4   am
     4     4     5    1
     5     5     6   ar
     6     6     7   ar
     7     7     8   ar
     8     8     9    1
     9     9    10    2
    10     9    11   am
    11    11    12    1
    12    12    13   am
    13    13    14    2
    14    13    15    1
    15    15    16    1
    16    16    17    1
    17    17    18   ar
    18    18    19   ar
    19    19    20   ar
    20    20    21   ar
    21    21    22   ar
    22    17    22   ar
    23     8    23   ar
    24    23    24   ar
    25     5    24   ar
    26     1    25    1
    27     1    26    1
    28     1    27    1
    29     4    28    1
    30     6    29    1
    31     7    30    1
    32    11    31    1
    33    12    32    1
    34    15    33    1
    35    15    34    1
    36    18    35    1
    37    19    36    1
    38    20    37    1
    39    21    38    1
    40    22    39    1
    41    23    40    1
    42    24    41    1
