@<TRIPOS>MOLECULE
*****
 32 33 0 0 0
SMALL
GASTEIGER

@<TRIPOS>ATOM
      1 O           0.7627    0.0609    0.2054 O.2     1  UNL1       -0.2740
      2 C           1.9709    0.1068   -0.0577 C.2     1  UNL1        0.2324
      3 N           2.5260    1.0639   -0.9090 N.am    1  UNL1       -0.2363
      4 N           2.0126    2.3505   -1.0275 N.pl3   1  UNL1       -0.2645
      5 C           2.8521    3.3019   -1.6720 C.ar    1  UNL1        0.0446
      6 C           3.9751    2.9885   -2.4752 C.ar    1  UNL1       -0.0367
      7 C           4.8129    3.9909   -3.0015 C.ar    1  UNL1       -0.0247
      8 C           4.5424    5.3213   -2.7244 C.ar    1  UNL1        0.1235
      9 F           5.3268    6.2830   -3.2310 F       1  UNL1       -0.2055
     10 C           3.4627    5.6624   -1.9232 C.ar    1  UNL1       -0.0247
     11 C           2.6302    4.6595   -1.4015 C.ar    1  UNL1       -0.0367
     12 C           2.9821   -0.9318    0.5598 C.3     1  UNL1        0.0407
     13 C           3.9454   -1.4706   -0.5113 C.3     1  UNL1       -0.0236
     14 C           4.9916   -0.4385   -0.8665 C.2     1  UNL1       -0.0872
     15 C           5.2960    0.6023   -0.0580 C.2     1  UNL1       -0.0879
     16 C           4.6156    0.8507    1.2792 C.3     1  UNL1       -0.0341
     17 C           3.8156   -0.3673    1.7298 C.3     1  UNL1       -0.0382
     18 H           3.5190    1.1555   -0.8446 H       1  UNL1        0.1727
     19 H           1.0032    2.4301   -1.1407 H       1  UNL1        0.1700
     20 H           4.2201    1.9611   -2.7330 H       1  UNL1        0.0637
     21 H           5.6684    3.7452   -3.6267 H       1  UNL1        0.0647
     22 H           3.2763    6.7076   -1.6989 H       1  UNL1        0.0647
     23 H           1.8194    4.9451   -0.7374 H       1  UNL1        0.0637
     24 H           2.3966   -1.7816    0.9410 H       1  UNL1        0.0398
     25 H           3.3637   -1.7579   -1.3960 H       1  UNL1        0.0315
     26 H           4.4663   -2.3749   -0.1692 H       1  UNL1        0.0315
     27 H           5.3332   -0.4444   -1.9008 H       1  UNL1        0.0569
     28 H           5.8729    1.4308   -0.4662 H       1  UNL1        0.0569
     29 H           3.9125    1.6918    1.1944 H       1  UNL1        0.0308
     30 H           5.3418    1.1635    2.0327 H       1  UNL1        0.0308
     31 H           3.1708   -0.1172    2.5797 H       1  UNL1        0.0276
     32 H           4.5259   -1.1266    2.0936 H       1  UNL1        0.0276
@<TRIPOS>BOND
     1     1     2    2
     2     2     3   am
     3     3     4    1
     4     4     5    1
     5     5     6   ar
     6     6     7   ar
     7     7     8   ar
     8     8     9    1
     9     8    10   ar
    10    10    11   ar
    11     5    11   ar
    12     2    12    1
    13    12    13    1
    14    13    14    1
    15    14    15    2
    16    15    16    1
    17    16    17    1
    18    12    17    1
    19     3    18    1
    20     4    19    1
    21     6    20    1
    22     7    21    1
    23    10    22    1
    24    11    23    1
    25    12    24    1
    26    13    25    1
    27    13    26    1
    28    14    27    1
    29    15    28    1
    30    16    29    1
    31    16    30    1
    32    17    31    1
    33    17    32    1
