@<TRIPOS>MOLECULE
*****
 37 37 0 0 0
SMALL
GASTEIGER

@<TRIPOS>ATOM
      1 C           0.8623   -0.0584   -0.0647 C.3     1  UNL1       -0.0652
      2 C           2.3662   -0.0840   -0.0832 C.3     1  UNL1       -0.0538
      3 C           3.0702   -1.4348   -0.0571 C.3     1  UNL1       -0.0261
      4 C           4.6382   -1.3595   -0.0491 C.3     1  UNL1        0.1022
      5 N           5.1837   -0.5588    1.0736 N.am    1  UNL1       -0.2882
      6 C           5.0044    0.7432    1.4125 C.2     1  UNL1        0.2976
      7 N           4.5551    1.6061    0.4840 N.am    1  UNL1       -0.3133
      8 O           5.2182    1.1325    2.5613 O.2     1  UNL1       -0.2531
      9 C           5.1836   -2.8499   -0.0572 C.2     1  UNL1        0.2494
     10 O           4.4295   -3.8255   -0.1469 O.2     1  UNL1       -0.2722
     11 N           6.5592   -3.0447   -0.0632 N.am    1  UNL1       -0.2326
     12 N           7.0629   -4.3898   -0.1770 N.am    1  UNL1       -0.2303
     13 C           8.4331   -4.6239   -0.1226 C.2     1  UNL1        0.2616
     14 O           9.2593   -3.7202   -0.0351 O.2     1  UNL1       -0.2686
     15 C           8.8966   -6.0450   -0.1608 C.ar    1  UNL1        0.0563
     16 C           8.3573   -6.9991   -1.0285 C.ar    1  UNL1       -0.0453
     17 C           8.8737   -8.3031   -1.0372 C.ar    1  UNL1       -0.0241
     18 C           9.9113   -8.6087   -0.1717 C.ar    1  UNL1        0.1292
     19 CL         10.5710  -10.1917   -0.1078 Cl      1  UNL1       -0.0620
     20 N          10.4719   -7.7166    0.6683 N.ar    1  UNL1       -0.2428
     21 C           9.9633   -6.4516    0.6418 C.ar    1  UNL1        0.0414
     22 H           0.5490    0.9942   -0.0308 H       1  UNL1        0.0230
     23 H           0.4830   -0.5488    0.8338 H       1  UNL1        0.0230
     24 H           0.4483   -0.5152   -0.9624 H       1  UNL1        0.0230
     25 H           2.6222    0.4474    0.8313 H       1  UNL1        0.0263
     26 H           2.6802    0.4623   -0.9779 H       1  UNL1        0.0263
     27 H           2.7502   -2.0013   -0.9420 H       1  UNL1        0.0288
     28 H           2.7258   -1.9950    0.8204 H       1  UNL1        0.0288
     29 H           4.9788   -0.8773   -0.9727 H       1  UNL1        0.0595
     30 H           5.5456   -1.0780    1.8651 H       1  UNL1        0.1510
     31 H           4.2690    1.2951   -0.4263 H       1  UNL1        0.1465
     32 H           4.0332    2.3973    0.8515 H       1  UNL1        0.1465
     33 H           7.2474   -2.2937   -0.0682 H       1  UNL1        0.1729
     34 H           6.3620   -5.1301   -0.1366 H       1  UNL1        0.1731
     35 H           7.5687   -6.7387   -1.7273 H       1  UNL1        0.0626
     36 H           8.4799   -9.0585   -1.7100 H       1  UNL1        0.0648
     37 H          10.4612   -5.7613    1.3193 H       1  UNL1        0.0838
@<TRIPOS>BOND
     1     1     2    1
     2     2     3    1
     3     3     4    1
     4     4     5    1
     5     5     6   am
     6     6     7   am
     7     6     8    2
     8     4     9    1
     9     9    10    2
    10     9    11   am
    11    11    12    1
    12    12    13   am
    13    13    14    2
    14    13    15    1
    15    15    16   ar
    16    16    17   ar
    17    17    18   ar
    18    18    19    1
    19    18    20   ar
    20    20    21   ar
    21    15    21   ar
    22     1    22    1
    23     1    23    1
    24     1    24    1
    25     2    25    1
    26     2    26    1
    27     3    27    1
    28     3    28    1
    29     4    29    1
    30     5    30    1
    31     7    31    1
    32     7    32    1
    33    11    33    1
    34    12    34    1
    35    16    35    1
    36    17    36    1
    37    21    37    1
