@<TRIPOS>MOLECULE
*****
 49 50 0 0 0
SMALL
GASTEIGER

@<TRIPOS>ATOM
      1 C           0.9536   -0.1462    0.1687 C.3     1  UNL1       -0.0164
      2 C           2.4879    0.0142    0.0847 C.3     1  UNL1        0.1814
      3 C           2.9993   -0.8711   -1.0603 C.3     1  UNL1       -0.0164
      4 O           2.9379    1.3837   -0.1210 O.3     1  UNL1       -0.4770
      5 C           2.5285    2.1138   -1.2170 C.ar    1  UNL1        0.1221
      6 C           1.2123    2.1934   -1.6748 C.ar    1  UNL1       -0.0185
      7 C           0.8511    2.9381   -2.7997 C.ar    1  UNL1       -0.0399
      8 C           1.7962    3.7288   -3.4248 C.ar    1  UNL1        0.0412
      9 CL          1.3179    4.7213   -4.7435 Cl      1  UNL1       -0.0835
     10 C           3.1028    3.7488   -2.9416 C.ar    1  UNL1       -0.0399
     11 C           3.4718    2.9321   -1.8515 C.ar    1  UNL1       -0.0185
     12 C           3.0474   -0.5378    1.4749 C.2     1  UNL1        0.2724
     13 O           2.3001   -0.9200    2.3850 O.2     1  UNL1       -0.2699
     14 N           4.4233   -0.6241    1.6466 N.am    1  UNL1       -0.2299
     15 N           4.9535   -1.1546    2.8785 N.am    1  UNL1       -0.2181
     16 C           6.3226   -1.2276    3.0590 C.2     1  UNL1        0.3160
     17 O           7.1259   -0.8668    2.1964 O.2     1  UNL1       -0.2513
     18 N           6.7333   -1.7382    4.2796 N.am    1  UNL1       -0.2982
     19 C           8.1584   -1.8708    4.5983 C.3     1  UNL1        0.0147
     20 C           8.4399   -2.4509    5.9888 C.3     1  UNL1       -0.0191
     21 C           9.9403   -2.5764    6.2861 C.3     1  UNL1        0.0296
     22 N          10.1568   -3.1579    7.6260 N.ar    1  UNL1       -0.2957
     23 C          10.0762   -4.5104    7.9466 C.ar    1  UNL1        0.0732
     24 C          10.2498   -4.6103    9.2979 C.ar    1  UNL1        0.1870
     25 N          10.4702   -3.3319    9.7522 N.ar    1  UNL1       -0.2011
     26 C          10.4372   -2.4590    8.7397 C.ar    1  UNL1        0.2463
     27 H           0.4774   -0.0742   -0.8123 H       1  UNL1        0.0273
     28 H           0.5159    0.6032    0.8393 H       1  UNL1        0.0273
     29 H           0.6539   -1.1408    0.5111 H       1  UNL1        0.0273
     30 H           2.6354   -0.5134   -2.0314 H       1  UNL1        0.0273
     31 H           2.6609   -1.9057   -0.9406 H       1  UNL1        0.0273
     32 H           4.0913   -0.8660   -1.1160 H       1  UNL1        0.0273
     33 H           0.3808    1.7504   -1.1545 H       1  UNL1        0.0654
     34 H          -0.1829    2.9200   -3.1355 H       1  UNL1        0.0633
     35 H           3.8325    4.4103   -3.4022 H       1  UNL1        0.0633
     36 H           4.4999    2.9672   -1.4988 H       1  UNL1        0.0654
     37 H           5.1003   -0.2965    0.9616 H       1  UNL1        0.1730
     38 H           4.2613   -1.4324    3.5707 H       1  UNL1        0.1744
     39 H           6.0318   -2.0217    4.9499 H       1  UNL1        0.1503
     40 H           8.6166   -0.8784    4.5117 H       1  UNL1        0.0463
     41 H           8.6162   -2.5083    3.8323 H       1  UNL1        0.0463
     42 H           7.9755   -3.4403    6.0786 H       1  UNL1        0.0297
     43 H           7.9782   -1.8238    6.7608 H       1  UNL1        0.0297
     44 H          10.4361   -1.5989    6.2538 H       1  UNL1        0.0494
     45 H          10.4392   -3.2248    5.5557 H       1  UNL1        0.0494
     46 H           9.8772   -5.2261    7.1673 H       1  UNL1        0.0871
     47 H          10.2406   -5.4253   10.0008 H       1  UNL1        0.1392
     48 H          10.6349   -3.0754   10.7237 H       1  UNL1        0.4538
     49 H          10.5862   -1.3878    8.8162 H       1  UNL1        0.1600
@<TRIPOS>UNITY_ATOM_ATTR
25 1
charge 1
@<TRIPOS>BOND
     1     1     2    1
     2     2     3    1
     3     2     4    1
     4     4     5    1
     5     5     6   ar
     6     6     7   ar
     7     7     8   ar
     8     8     9    1
     9     8    10   ar
    10    10    11   ar
    11     5    11   ar
    12     2    12    1
    13    12    13    2
    14    12    14   am
    15    14    15    1
    16    15    16   am
    17    16    17    2
    18    16    18   am
    19    18    19    1
    20    19    20    1
    21    20    21    1
    22    21    22    1
    23    22    23   ar
    24    23    24   ar
    25    24    25   ar
    26    25    26   ar
    27    22    26   ar
    28     1    27    1
    29     1    28    1
    30     1    29    1
    31     3    30    1
    32     3    31    1
    33     3    32    1
    34     6    33    1
    35     7    34    1
    36    10    35    1
    37    11    36    1
    38    14    37    1
    39    15    38    1
    40    18    39    1
    41    19    40    1
    42    19    41    1
    43    20    42    1
    44    20    43    1
    45    21    44    1
    46    21    45    1
    47    23    46    1
    48    24    47    1
    49    25    48    1
    50    26    49    1
