REMARK  5 active torsions:
REMARK  status: ('A' for Active; 'I' for Inactive)
REMARK       I    between atoms: C_2  and  N_4 
REMARK    1  A    between atoms: N_4  and  N_5 
REMARK       I    between atoms: N_5  and  C_6 
REMARK    2  A    between atoms: C_6  and  C_8 
REMARK    3  A    between atoms: C_8  and  O_9 
REMARK    4  A    between atoms: C_8  and  C_10 
REMARK    5  A    between atoms: C_8  and  C_16 
ROOT
ATOM      1  C   UNL d   1       6.909   1.978  -1.579  0.00  0.00     0.195 C 
ENDROOT
BRANCH   1   2
ATOM      2  C   UNL d   1       5.283   2.006  -1.521  0.00  0.00     0.280 C 
ATOM      3  N   UNL d   1       4.654   1.192  -0.575  0.00  0.00    -0.264 N 
ATOM      4  H   UNL d   1       5.128   0.486  -0.017  0.00  0.00     0.190 HD
ATOM      5  O   UNL d   1       4.575   2.721  -2.239  0.00  0.00    -0.268 OA
BRANCH   3   6
ATOM      6  N   UNL d   1       3.252   1.016  -0.689  0.00  0.00    -0.268 N 
ATOM      7  C   UNL d   1       2.656  -0.045  -0.033  0.00  0.00     0.232 C 
ATOM      8  C   UNL d   1       1.145  -0.035  -0.074  0.00  0.00     0.119 C 
ATOM      9  O   UNL d   1       3.299  -0.903   0.554  0.00  0.00    -0.272 OA
ATOM     10  H   UNL d   1       2.752   1.704  -1.250  0.00  0.00     0.190 HD
ENDBRANCH   3   6
ENDBRANCH   1   2
BRANCH   1  11
ATOM     11  O   UNL d   1       7.407   2.145  -0.234  0.00  0.00    -0.371 OA
ATOM     12  H   UNL d   1       7.213   1.337   0.264  0.00  0.00     0.212 HD
ENDBRANCH   1  11
BRANCH   1  13
ATOM     13  C   UNL d   1       7.454   0.607  -2.071  0.00  0.00    -0.010 C 
ATOM     14  C   UNL d   1       6.742  -0.587  -1.895  0.00  0.00     0.011 C 
ATOM     15  C   UNL d   1       7.237  -1.819  -2.318  0.00  0.00     0.001 C 
ATOM     16  C   UNL d   1       8.375  -1.877  -3.102  0.00  0.00     0.000 C 
ATOM     17  C   UNL d   1       9.115  -0.727  -3.295  0.00  0.00     0.001 C 
ATOM     18  C   UNL d   1       8.728   0.449  -2.652  0.00  0.00     0.011 C 
ENDBRANCH   1  13
BRANCH   1  19
ATOM     19  C   UNL d   1       7.399   3.249  -2.352  0.00  0.00    -0.010 C 
ATOM     20  C   UNL d   1       8.320   3.272  -3.420  0.00  0.00     0.011 C 
ATOM     21  C   UNL d   1       8.834   4.450  -3.960  0.00  0.00     0.001 C 
ATOM     22  C   UNL d   1       8.243   5.651  -3.628  0.00  0.00     0.000 C 
ATOM     23  C   UNL d   1       7.245   5.673  -2.660  0.00  0.00     0.001 C 
ATOM     24  C   UNL d   1       6.884   4.503  -1.981  0.00  0.00     0.011 C 
ENDBRANCH   1  19
TORSDOF 5
