@<TRIPOS>MOLECULE
*****
 42 44 0 0 0
SMALL
GASTEIGER

@<TRIPOS>ATOM
      1 N           1.1301    0.0212   -0.0064 N.am    1  UNL1       -0.3131
      2 C           2.4785   -0.0015    0.1258 C.2     1  UNL1        0.3013
      3 O           2.9622   -0.0767    1.2490 O.2     1  UNL1       -0.2527
      4 N           3.1717    0.0935   -1.0543 N.am    1  UNL1       -0.2696
      5 C           4.5832    0.0401   -1.1140 C.ar    1  UNL1        0.0355
      6 C           5.2768    0.8428   -2.0277 C.ar    1  UNL1       -0.0404
      7 C           6.6676    0.7404   -2.1332 C.ar    1  UNL1       -0.0592
      8 C           7.3642   -0.1572   -1.3231 C.ar    1  UNL1       -0.0476
      9 C           6.6766   -0.9896   -0.4271 C.ar    1  UNL1        0.0612
     10 C           7.4648   -2.0121    0.3118 C.2     1  UNL1        0.3445
     11 O           8.6856   -2.0724    0.1989 O.2     1  UNL1       -0.2445
     12 O           6.6584   -2.8744    1.0484 O.3     1  UNL1       -0.4223
     13 C           7.2620   -3.7913    1.9401 C.ar    1  UNL1        0.1321
     14 C           6.6246   -5.0082    2.1940 C.ar    1  UNL1       -0.0175
     15 C           7.1376   -5.8901    3.1774 C.ar    1  UNL1       -0.0370
     16 C           8.3288   -5.5893    3.8604 C.ar    1  UNL1        0.0340
     17 N           8.9175   -6.5255    4.7678 N.am    1  UNL1       -0.2790
     18 C          10.1205   -6.3290    5.4582 C.2     1  UNL1        0.2835
     19 O          10.7827   -5.2847    5.4097 O.2     1  UNL1       -0.2665
     20 C          10.6235   -7.4208    6.2666 C.ar    1  UNL1        0.1893
     21 C          10.7048   -8.7910    6.0906 C.ar    1  UNL1       -0.0113
     22 C          11.4999   -9.2940    7.1577 C.ar    1  UNL1       -0.0231
     23 C          11.8281   -8.2137    7.9394 C.ar    1  UNL1        0.0928
     24 O          11.3062   -7.0821    7.4110 O.2     1  UNL1       -0.4583
     25 C           8.9243   -4.3555    3.5878 C.ar    1  UNL1       -0.0370
     26 C           8.4011   -3.4627    2.6551 C.ar    1  UNL1       -0.0175
     27 C           5.2897   -0.8663   -0.3101 C.ar    1  UNL1       -0.0264
     28 H           0.6106   -0.0377    0.8610 H       1  UNL1        0.1465
     29 H           0.6224    0.0473   -0.8741 H       1  UNL1        0.1465
     30 H           2.6720    0.4057   -1.8735 H       1  UNL1        0.1564
     31 H           4.7648    1.5962   -2.6219 H       1  UNL1        0.0636
     32 H           7.2159    1.3494   -2.8495 H       1  UNL1        0.0618
     33 H           8.4496   -0.2167   -1.4016 H       1  UNL1        0.0626
     34 H           5.7334   -5.2755    1.6309 H       1  UNL1        0.0655
     35 H           6.5781   -6.7982    3.3911 H       1  UNL1        0.0637
     36 H           8.4304   -7.4021    4.9100 H       1  UNL1        0.1552
     37 H          10.3245   -9.3487    5.2486 H       1  UNL1        0.0657
     38 H          11.8252  -10.3114    7.3241 H       1  UNL1        0.0649
     39 H          12.4160   -8.0825    8.8388 H       1  UNL1        0.1029
     40 H           9.8199   -4.0143    4.0882 H       1  UNL1        0.0637
     41 H           8.9243   -2.5231    2.5114 H       1  UNL1        0.0655
     42 H           4.7438   -1.5100    0.3734 H       1  UNL1        0.0644
@<TRIPOS>BOND
     1     1     2   am
     2     2     3    2
     3     2     4   am
     4     4     5    1
     5     5     6   ar
     6     6     7   ar
     7     7     8   ar
     8     8     9   ar
     9     9    10    1
    10    10    11    2
    11    10    12    1
    12    12    13    1
    13    13    14   ar
    14    14    15   ar
    15    15    16   ar
    16    16    17    1
    17    17    18   am
    18    18    19    2
    19    18    20    1
    20    20    21   ar
    21    21    22   ar
    22    22    23   ar
    23    23    24   ar
    24    20    24   ar
    25    16    25   ar
    26    25    26   ar
    27    13    26   ar
    28     9    27   ar
    29     5    27   ar
    30     1    28    1
    31     1    29    1
    32     4    30    1
    33     6    31    1
    34     7    32    1
    35     8    33    1
    36    14    34    1
    37    15    35    1
    38    17    36    1
    39    21    37    1
    40    22    38    1
    41    23    39    1
    42    25    40    1
    43    26    41    1
    44    27    42    1
