@<TRIPOS>MOLECULE
*****
 60 64 0 0 0
SMALL
GASTEIGER

@<TRIPOS>ATOM
      1 O           0.8365    0.4090    0.3387 O.2     1  UNL1       -0.2743
      2 C           2.0568    0.2753    0.2528 C.2     1  UNL1        0.2296
      3 C           2.5847   -0.6953   -0.7150 C.3     1  UNL1        0.0293
      4 C           1.5309   -1.4077   -1.5112 C.3     1  UNL1       -0.0165
      5 C           2.1673   -2.1447   -2.5988 C.2     1  UNL1        0.0081
      6 C           2.9334   -1.7189   -3.7143 C.ar    1  UNL1        0.0509
      7 C           3.9283   -0.5667   -4.1050 C.ar    1  UNL1       -0.0482
      8 C           4.8869   -0.5837   -5.0957 C.ar    1  UNL1       -0.0608
      9 C           5.2599   -1.7151   -5.8660 C.ar    1  UNL1       -0.0555
     10 C           4.5525   -2.8046   -5.6025 C.ar    1  UNL1        0.0098
     11 C           3.0037   -2.9809   -4.6003 C.ar    1  UNL1        0.2086
     12 N           2.2489   -4.0778   -4.0570 N.2     1  UNL1       -0.2369
     13 C           1.7989   -3.8502   -2.4126 C.3     1  UNL1        0.1660
     14 N           2.9564    0.9358    1.0771 N.am    1  UNL1       -0.2292
     15 N           4.4359    1.1413    0.8753 N.am    1  UNL1       -0.1859
     16 C           4.9984    2.2869    1.5147 C.2     1  UNL1        0.2669
     17 O           4.3554    2.9256    2.3494 O.2     1  UNL1       -0.2683
     18 C           6.5422    2.3914    1.4302 C.ar    1  UNL1        0.0593
     19 C           7.3340    2.1353    0.2994 C.ar    1  UNL1       -0.0478
     20 C           8.6769    1.6348    0.3998 C.ar    1  UNL1       -0.0609
     21 C           9.3204    1.5342    1.6296 C.ar    1  UNL1       -0.0600
     22 C           8.5283    1.6876    2.7484 C.ar    1  UNL1       -0.0400
     23 C           7.1077    1.7864    2.5399 C.ar    1  UNL1        0.0414
     24 N           6.2923    0.3554    2.6427 N.pl3   1  UNL1       -0.3156
     25 C           5.2870   -0.0051    1.2149 C.3     1  UNL1        0.1563
     26 S           5.6676   -1.2329   -0.4023 S.3     1  UNL1       -0.1099
     27 C           5.4579   -2.4013   -1.8649 C.3     1  UNL1        0.0600
     28 C           4.8763   -3.5404   -2.7073 C.2     1  UNL1        0.1730
     29 O           3.6918   -3.6376   -2.5371 O.2     1  UNL1       -0.2912
     30 C           4.8735   -4.6979   -3.8926 C.ar    1  UNL1        0.0183
     31 C           5.8536   -5.4489   -3.4959 C.ar    1  UNL1       -0.0499
     32 C           6.3926   -5.9685   -4.6403 C.ar    1  UNL1       -0.0427
     33 C           5.8390   -6.0439   -6.0401 C.ar    1  UNL1        0.0410
     34 CL          6.9416   -6.3155   -7.3118 Cl      1  UNL1       -0.0835
     35 C           4.5860   -5.6962   -6.4352 C.ar    1  UNL1       -0.0427
     36 C           4.0475   -5.1019   -5.3485 C.ar    1  UNL1       -0.0499
     37 H           3.0809   -1.4625   -0.1144 H       1  UNL1        0.0362
     38 H           3.2214   -0.1337   -1.3981 H       1  UNL1        0.0362
     39 H           0.8932   -0.8496   -2.1985 H       1  UNL1        0.0317
     40 H           0.9612   -2.1465   -0.9120 H       1  UNL1        0.0317
     41 H           3.9533    0.3513   -3.5155 H       1  UNL1        0.0626
     42 H           5.5516    0.2458   -5.3664 H       1  UNL1        0.0618
     43 H           6.1545   -1.7862   -6.5444 H       1  UNL1        0.0620
     44 H           5.3121   -3.5821   -5.9322 H       1  UNL1        0.0683
     45 H           2.5545   -5.1138   -3.9933 H       1  UNL1        0.4459
     46 H           2.5120   -4.5523   -1.6525 H       1  UNL1        0.1077
     47 H           0.8097   -4.2420   -2.2748 H       1  UNL1        0.1077
     48 H           2.4896    1.6784    1.5955 H       1  UNL1        0.1731
     49 H           6.8471    2.0753   -0.6664 H       1  UNL1        0.0626
     50 H           9.2169    1.3135   -0.4876 H       1  UNL1        0.0618
     51 H          10.3911    1.3356    1.7010 H       1  UNL1        0.0618
     52 H           9.0252    1.9065    3.7045 H       1  UNL1        0.0636
     53 H           5.7097    0.7976    3.4007 H       1  UNL1        0.1487
     54 H           6.1717    0.2916    0.6765 H       1  UNL1        0.0847
     55 H           6.0329   -3.1259   -1.3321 H       1  UNL1        0.0459
     56 H           5.7942   -1.7803   -2.6578 H       1  UNL1        0.0459
     57 H           6.1859   -5.3167   -2.4707 H       1  UNL1        0.0625
     58 H           7.4226   -6.2249   -4.5006 H       1  UNL1        0.0632
     59 H           4.2115   -5.4204   -7.4540 H       1  UNL1        0.0632
     60 H           3.1987   -4.5424   -5.9170 H       1  UNL1        0.0625
@<TRIPOS>UNITY_ATOM_ATTR
12 1
charge 1
@<TRIPOS>BOND
     1     1     2    2
     2     2     3    1
     3     3     4    1
     4     4     5    1
     5     5     6    2
     6     6     7   ar
     7     7     8   ar
     8     8     9   ar
     9     9    10   ar
    10    10    11   ar
    11     6    11   ar
    12    11    12    2
    13    12    13    1
    14     5    13    1
    15     2    14   am
    16    14    15    1
    17    15    16   am
    18    16    17    2
    19    16    18    1
    20    18    19   ar
    21    19    20   ar
    22    20    21   ar
    23    21    22   ar
    24    22    23   ar
    25    18    23   ar
    26    23    24    1
    27    24    25    1
    28    15    25    1
    29    25    26    1
    30    26    27    1
    31    27    28    1
    32    28    29    2
    33    28    30    1
    34    30    31   ar
    35    31    32   ar
    36    32    33   ar
    37    33    34    1
    38    33    35   ar
    39    35    36   ar
    40    30    36   ar
    41     3    37    1
    42     3    38    1
    43     4    39    1
    44     4    40    1
    45     7    41    1
    46     8    42    1
    47     9    43    1
    48    10    44    1
    49    12    45    1
    50    13    46    1
    51    13    47    1
    52    14    48    1
    53    19    49    1
    54    20    50    1
    55    21    51    1
    56    22    52    1
    57    24    53    1
    58    25    54    1
    59    27    55    1
    60    27    56    1
    61    31    57    1
    62    32    58    1
    63    35    59    1
    64    36    60    1
