@<TRIPOS>MOLECULE
*****
 34 35 0 0 0
SMALL
GASTEIGER

@<TRIPOS>ATOM
      1 O           1.0488    0.0394    0.0549 O.2     1  UNL1       -0.2687
      2 C           2.2787    0.0047   -0.0046 C.2     1  UNL1        0.2602
      3 N           3.0144   -1.1720    0.0271 N.am    1  UNL1       -0.2301
      4 N           2.3441   -2.4112    0.1853 N.am    1  UNL1       -0.2300
      5 C           3.0735   -3.5901    0.2615 C.2     1  UNL1        0.2637
      6 O           4.3040   -3.6139    0.3147 O.2     1  UNL1       -0.2685
      7 C           2.3001   -4.8722    0.3113 C.ar    1  UNL1        0.0795
      8 C           2.7107   -5.8869    1.1946 C.ar    1  UNL1       -0.0460
      9 C           2.0294   -7.1116    1.2453 C.ar    1  UNL1       -0.0608
     10 C           0.9544   -7.3474    0.3899 C.ar    1  UNL1       -0.0583
     11 C           0.5512   -6.3562   -0.5087 C.ar    1  UNL1       -0.0194
     12 C           1.2146   -5.1214   -0.5372 C.ar    1  UNL1        0.1290
     13 O           0.8120   -4.1535   -1.4149 O.3     1  UNL1       -0.5060
     14 C           3.0546    1.2838   -0.0555 C.ar    1  UNL1        0.0387
     15 C           4.1917    1.4267   -0.8586 C.ar    1  UNL1       -0.0496
     16 C           4.9568    2.5988   -0.7963 C.ar    1  UNL1       -0.0605
     17 C           4.5539    3.6627    0.0119 C.ar    1  UNL1       -0.0501
     18 C           3.3949    3.5552    0.7949 C.ar    1  UNL1        0.0555
     19 C           3.0158    4.6849    1.7229 C.3     1  UNL1        0.4174
     20 F           4.0002    4.9535    2.6269 F       1  UNL1       -0.1659
     21 F           2.7853    5.8555    1.0671 F       1  UNL1       -0.1659
     22 F           1.8970    4.4362    2.4565 F       1  UNL1       -0.1659
     23 C           2.6426    2.3644    0.7424 C.ar    1  UNL1       -0.0379
     24 H           4.0296   -1.2033    0.1037 H       1  UNL1        0.1731
     25 H           1.3291   -2.4042    0.0900 H       1  UNL1        0.1731
     26 H           3.5617   -5.7282    1.8539 H       1  UNL1        0.0626
     27 H           2.3408   -7.8852    1.9459 H       1  UNL1        0.0618
     28 H           0.4355   -8.3047    0.4213 H       1  UNL1        0.0619
     29 H          -0.2772   -6.5695   -1.1791 H       1  UNL1        0.0654
     30 H           0.0770   -4.4847   -1.9570 H       1  UNL1        0.2922
     31 H           4.4823    0.6434   -1.5534 H       1  UNL1        0.0625
     32 H           5.8799    2.6809   -1.3674 H       1  UNL1        0.0618
     33 H           5.1492    4.5768    0.0367 H       1  UNL1        0.0623
     34 H           1.7415    2.2699    1.3487 H       1  UNL1        0.0631
@<TRIPOS>BOND
     1     1     2    2
     2     2     3   am
     3     3     4    1
     4     4     5   am
     5     5     6    2
     6     5     7    1
     7     7     8   ar
     8     8     9   ar
     9     9    10   ar
    10    10    11   ar
    11    11    12   ar
    12     7    12   ar
    13    12    13    1
    14     2    14    1
    15    14    15   ar
    16    15    16   ar
    17    16    17   ar
    18    17    18   ar
    19    18    19    1
    20    19    20    1
    21    19    21    1
    22    19    22    1
    23    18    23   ar
    24    14    23   ar
    25     3    24    1
    26     4    25    1
    27     8    26    1
    28     9    27    1
    29    10    28    1
    30    11    29    1
    31    13    30    1
    32    15    31    1
    33    16    32    1
    34    17    33    1
    35    23    34    1
