REMARK  7 active torsions:
REMARK  status: ('A' for Active; 'I' for Inactive)
REMARK    1  A    between atoms: O_2  and  C_3 
REMARK    2  A    between atoms: C_7  and  C_6 
REMARK    3  A    between atoms: N_11  and  C_12 
REMARK    4  A    between atoms: C_12  and  N_13 
REMARK    5  A    between atoms: C_15  and  O_16 
REMARK    6  A    between atoms: O_16  and  C_17 
REMARK    7  A    between atoms: C_23  and  O_24 
ROOT
ATOM      1  C   UNL d   1       5.325  -0.533  -4.941  0.00  0.00     0.225 C 
ATOM      2  C   UNL d   1       5.861   0.828  -5.362  0.00  0.00     0.040 C 
ATOM      3  C   UNL d   1       6.067   0.702  -6.850  0.00  0.00     0.030 C 
ATOM      4  C   UNL d   1       5.031  -0.304  -7.332  0.00  0.00     0.238 C 
ATOM      5  N   UNL d   1       4.339  -0.864  -6.050  0.00  0.00    -0.045 N 
ATOM      6  H   UNL d   1       4.326  -1.889  -6.201  0.00  0.00     0.282 HD
ENDROOT
BRANCH   5   7
ATOM      7  C   UNL d   1       2.906  -0.337  -5.902  0.00  0.00     0.385 C 
BRANCH   7   8
ATOM      8  N   UNL d   1       2.099  -1.022  -4.865  0.00  0.00    -0.247 N 
ATOM      9  N   UNL d   1       2.534  -1.201  -3.539  0.00  0.00    -0.269 N 
ATOM     10  C   UNL d   1       1.847  -2.057  -2.872  0.00  0.00     0.204 C 
ATOM     11  H   UNL d   1       3.308  -0.730  -3.097  0.00  0.00     0.190 HD
ATOM     12  S   UNL d   1       0.381  -2.533  -3.626  0.00  0.00    -0.014 SA
ATOM     13  C   UNL d   1       0.824  -1.570  -5.047  0.00  0.00     0.165 C 
ATOM     14  S   UNL d   1      -0.178  -1.389  -6.353  0.00  0.00    -0.051 SA
BRANCH  10  15
ATOM     15  O   UNL d   1       2.292  -2.583  -1.721  0.00  0.00    -0.325 OA
BRANCH  15  16
ATOM     16  C   UNL d   1       3.583  -2.360  -1.077  0.00  0.00     0.123 C 
ATOM     17  C   UNL d   1       3.597  -0.946  -0.517  0.00  0.00     0.040 C 
ATOM     18  C   UNL d   1       3.716  -3.363   0.066  0.00  0.00     0.040 C 
ENDBRANCH  15  16
ENDBRANCH  10  15
ENDBRANCH   7   8
ENDBRANCH   5   7
BRANCH   1  19
ATOM     19  C   UNL d   1       6.444  -1.494  -4.605  0.00  0.00     0.006 C 
ATOM     20  C   UNL d   1       7.306  -1.089  -3.560  0.00  0.00     0.015 C 
ATOM     21  C   UNL d   1       8.588  -1.612  -3.454  0.00  0.00     0.037 C 
ATOM     22  C   UNL d   1       8.982  -2.645  -4.291  0.00  0.00     0.070 C 
ATOM     23  C   UNL d   1       8.061  -3.190  -5.184  0.00  0.00     0.074 C 
ATOM     24  C   UNL d   1       6.780  -2.638  -5.337  0.00  0.00     0.079 C 
BRANCH  22  25
ATOM     25  O   UNL d   1      10.241  -3.127  -4.091  0.00  0.00    -0.356 OA
ATOM     26  C   UNL d   1      10.941  -3.553  -5.259  0.00  0.00     0.210 C 
ENDBRANCH  22  25
BRANCH  24  27
ATOM     27  O   UNL d   1       5.812  -3.156  -6.164  0.00  0.00    -0.355 OA
ATOM     28  C   UNL d   1       6.207  -4.322  -6.906  0.00  0.00     0.210 C 
ENDBRANCH  24  27
ENDBRANCH   1  19
TORSDOF 7
