REMARK  7 active torsions:
REMARK  status: ('A' for Active; 'I' for Inactive)
REMARK    1  A    between atoms: C_2  and  O_3 
REMARK    2  A    between atoms: C_2  and  C_14 
REMARK    3  A    between atoms: O_3  and  C_4 
REMARK       I    between atoms: C_14  and  N_16 
REMARK    4  A    between atoms: N_16  and  N_17 
REMARK       I    between atoms: N_17  and  C_18 
REMARK       I    between atoms: C_18  and  N_20 
REMARK    5  A    between atoms: N_20  and  C_21 
REMARK    6  A    between atoms: C_21  and  C_22 
REMARK    7  A    between atoms: C_22  and  N_23 
ROOT
ATOM      1  C   UNL d   1       3.187  -0.786  -1.246  0.00  0.00     0.265 C 
ATOM      2  O   UNL d   1       2.443  -1.296  -2.091  0.00  0.00    -0.269 OA
ATOM      3  N   UNL d   1       4.564  -0.860  -1.413  0.00  0.00    -0.264 N 
ATOM      4  H   UNL d   1       5.234  -0.483  -0.747  0.00  0.00     0.190 HD
ENDROOT
BRANCH   3   5
ATOM      5  N   UNL d   1       5.095  -1.572  -2.549  0.00  0.00    -0.249 N 
ATOM      6  C   UNL d   1       6.462  -1.685  -2.715  0.00  0.00     0.334 C 
ATOM      7  O   UNL d   1       7.276  -1.182  -1.939  0.00  0.00    -0.246 OA
ATOM      8  N   UNL d   1       6.864  -2.399  -3.832  0.00  0.00    -0.340 N 
ATOM      9  H   UNL d   1       6.154  -2.806  -4.426  0.00  0.00     0.164 HD
ATOM     10  H   UNL d   1       4.398  -1.990  -3.162  0.00  0.00     0.192 HD
BRANCH   8  11
ATOM     11  C   UNL d   1       8.292  -2.597  -4.117  0.00  0.00     0.144 C 
BRANCH  11  12
ATOM     12  C   UNL d   1       8.624  -3.406  -5.388  0.00  0.00     0.149 C 
BRANCH  12  13
ATOM     13  N   UNL d   1      10.081  -3.573  -5.623  0.00  0.00    -0.350 N 
ATOM     14  C   UNL d   1      10.758  -4.786  -5.754  0.00  0.00     0.108 A 
ATOM     15  C   UNL d   1      12.075  -4.490  -5.973  0.00  0.00     0.106 A 
ATOM     16  N   UNL d   1      12.162  -3.119  -5.982  0.00  0.00    -0.361 N 
ATOM     17  C   UNL d   1      10.960  -2.567  -5.782  0.00  0.00     0.182 A 
ATOM     18  H   UNL d   1      13.019  -2.587  -6.120  0.00  0.00     0.166 HD
ENDBRANCH  12  13
ENDBRANCH  11  12
ENDBRANCH   8  11
ENDBRANCH   3   5
BRANCH   1  19
ATOM     19  C   UNL d   1       2.641   0.016   0.001  0.00  0.00     0.218 C 
ATOM     20  C   UNL d   1       1.112   0.091  -0.168  0.00  0.00     0.050 C 
BRANCH  19  21
ATOM     21  O   UNL d   1       3.069  -0.587   1.247  0.00  0.00    -0.337 OA
BRANCH  21  22
ATOM     22  C   UNL d   1       2.711   0.042   2.422  0.00  0.00     0.070 C 
ATOM     23  C   UNL d   1       1.388   0.308   2.771  0.00  0.00     0.037 C 
ATOM     24  C   UNL d   1       1.052   1.007   3.928  0.00  0.00     0.015 C 
ATOM     25  C   UNL d   1       2.025   1.294   4.874  0.00  0.00    -0.026 A 
ATOM     26  C   UNL d   1       1.658   1.903   6.081  0.00  0.00     0.012 A 
ATOM     27  C   UNL d   1       3.365   0.919   4.621  0.00  0.00    -0.023 A 
ATOM     28  C   UNL d   1       2.611   2.138   7.065  0.00  0.00     0.001 A 
ATOM     29  C   UNL d   1       3.935   1.771   6.841  0.00  0.00     0.001 A 
ATOM     30  C   UNL d   1       4.311   1.171   5.631  0.00  0.00     0.012 A 
ATOM     31  C   UNL d   1       3.695   0.306   3.381  0.00  0.00     0.049 C 
ENDBRANCH  21  22
ENDBRANCH  19  21
ENDBRANCH   1  19
TORSDOF 7
