@<TRIPOS>MOLECULE
*****
 55 58 0 0 0
SMALL
GASTEIGER

@<TRIPOS>ATOM
      1 C           1.0392    0.0435    0.0236 C.3     1  UNL1       -0.0203
      2 C           2.5479    0.1267    0.1064 C.2     1  UNL1        0.0634
      3 N           3.2172    1.0719    0.7105 N.2     1  UNL1       -0.1843
      4 N           2.5817    2.1362    1.3285 N.am    1  UNL1       -0.2014
      5 C           3.3269    3.1849    1.8831 C.2     1  UNL1        0.2834
      6 O           4.5626    3.2276    1.8546 O.2     1  UNL1       -0.2667
      7 C           2.5293    4.2665    2.5280 C.ar    1  UNL1        0.1490
      8 C           1.3669    4.1531    3.3514 C.ar    1  UNL1       -0.0041
      9 C           1.0620    5.4316    3.7862 C.ar    1  UNL1        0.0665
     10 C           0.0746    5.9341    4.7368 C.ar    1  UNL1        0.0000
     11 C          -0.8183    6.9564    4.3948 C.ar    1  UNL1       -0.0491
     12 C          -1.6979    7.4822    5.3522 C.ar    1  UNL1       -0.0193
     13 C          -1.7487    6.9478    6.6409 C.ar    1  UNL1        0.1210
     14 O          -2.7019    7.4878    7.4653 O.3     1  UNL1       -0.4873
     15 C          -2.8693    6.8353    8.7281 C.3     1  UNL1        0.1160
     16 C          -4.0233    7.4304    9.5001 C.ar    1  UNL1        0.0079
     17 C          -4.0926    8.8280    9.6454 C.ar    1  UNL1       -0.0540
     18 C          -5.0195    9.4130   10.5088 C.ar    1  UNL1       -0.0613
     19 C          -5.9393    8.6176   11.1855 C.ar    1  UNL1       -0.0604
     20 C          -5.9111    7.2337   11.0240 C.ar    1  UNL1       -0.0430
     21 C          -4.9554    6.6404   10.1936 C.ar    1  UNL1        0.0474
     22 CL         -4.9819    4.9154   10.0747 Cl      1  UNL1       -0.0831
     23 C          -0.8651    5.9232    6.9822 C.ar    1  UNL1       -0.0193
     24 C           0.0377    5.4214    6.0376 C.ar    1  UNL1       -0.0491
     25 N           2.0243    6.2257    3.2207 N.ar    1  UNL1       -0.2763
     26 N           2.8980    5.5615    2.4480 N.ar    1  UNL1       -0.1686
     27 C           3.3114   -1.0113   -0.5404 C.ar    1  UNL1       -0.0024
     28 C           4.4133   -1.5608    0.1209 C.ar    1  UNL1       -0.0511
     29 C           5.1932   -2.5592   -0.4903 C.ar    1  UNL1       -0.0404
     30 C           4.8370   -3.1056   -1.7255 C.ar    1  UNL1        0.0246
     31 N           5.6797   -4.0214   -2.3640 N.pl3   1  UNL1       -0.3580
     32 C           3.7498   -2.5399   -2.3965 C.ar    1  UNL1       -0.0404
     33 C           2.9806   -1.5144   -1.8072 C.ar    1  UNL1       -0.0511
     34 H           0.5355    0.8694    0.5228 H       1  UNL1        0.0293
     35 H           0.7090   -0.8801    0.5088 H       1  UNL1        0.0293
     36 H           0.7110    0.0455   -1.0180 H       1  UNL1        0.0293
     37 H           1.5770    2.2223    1.2955 H       1  UNL1        0.1776
     38 H           0.8541    3.2509    3.6493 H       1  UNL1        0.0662
     39 H          -0.8577    7.3427    3.3790 H       1  UNL1        0.0625
     40 H          -2.3536    8.3092    5.0877 H       1  UNL1        0.0654
     41 H          -1.9675    6.9837    9.3369 H       1  UNL1        0.0748
     42 H          -3.0196    5.7647    8.5652 H       1  UNL1        0.0748
     43 H          -3.4052    9.4677    9.0934 H       1  UNL1        0.0622
     44 H          -5.0119   10.4891   10.6639 H       1  UNL1        0.0618
     45 H          -6.6798    9.0742   11.8366 H       1  UNL1        0.0618
     46 H          -6.6256    6.6175   11.5642 H       1  UNL1        0.0632
     47 H          -0.8409    5.4915    7.9777 H       1  UNL1        0.0654
     48 H           0.7216    4.6306    6.3380 H       1  UNL1        0.0625
     49 H           2.1622    7.2233    3.3551 H       1  UNL1        0.1889
     50 H           4.6822   -1.2129    1.1150 H       1  UNL1        0.0625
     51 H           6.0961   -2.8989    0.0116 H       1  UNL1        0.0636
     52 H           6.2712   -4.5682   -1.7446 H       1  UNL1        0.1423
     53 H           5.2521   -4.5846   -3.0923 H       1  UNL1        0.1423
     54 H           3.5005   -2.8812   -3.3996 H       1  UNL1        0.0636
     55 H           2.1539   -1.1032   -2.3789 H       1  UNL1        0.0625
@<TRIPOS>BOND
     1     1     2    1
     2     2     3    2
     3     3     4    1
     4     4     5   am
     5     5     6    2
     6     5     7    1
     7     7     8   ar
     8     8     9   ar
     9     9    10    1
    10    10    11   ar
    11    11    12   ar
    12    12    13   ar
    13    13    14    1
    14    14    15    1
    15    15    16    1
    16    16    17   ar
    17    17    18   ar
    18    18    19   ar
    19    19    20   ar
    20    20    21   ar
    21    16    21   ar
    22    21    22    1
    23    13    23   ar
    24    23    24   ar
    25    10    24   ar
    26     9    25   ar
    27    25    26   ar
    28     7    26   ar
    29     2    27    1
    30    27    28   ar
    31    28    29   ar
    32    29    30   ar
    33    30    31    1
    34    30    32   ar
    35    32    33   ar
    36    27    33   ar
    37     1    34    1
    38     1    35    1
    39     1    36    1
    40     4    37    1
    41     8    38    1
    42    11    39    1
    43    12    40    1
    44    15    41    1
    45    15    42    1
    46    17    43    1
    47    18    44    1
    48    19    45    1
    49    20    46    1
    50    23    47    1
    51    24    48    1
    52    25    49    1
    53    28    50    1
    54    29    51    1
    55    31    52    1
    56    31    53    1
    57    32    54    1
    58    33    55    1
