REMARK  5 active torsions:
REMARK  status: ('A' for Active; 'I' for Inactive)
REMARK    1  A    between atoms: C_8  and  S_9 
REMARK    2  A    between atoms: S_9  and  N_12 
REMARK    3  A    between atoms: N_12  and  C_13 
REMARK    4  A    between atoms: C_18  and  C_19 
REMARK       I    between atoms: C_19  and  N_21 
REMARK    5  A    between atoms: N_21  and  C_22 
ROOT
ATOM      1  C   UNL d   1      -4.491  -4.744  -0.200  0.00  0.00     0.058 A 
ATOM      2  C   UNL d   1      -4.209  -5.919   0.541  0.00  0.00     0.031 A 
ATOM      3  C   UNL d   1      -4.959  -7.099   0.358  0.00  0.00     0.002 A 
ATOM      4  C   UNL d   1      -6.054  -7.098  -0.492  0.00  0.00     0.001 A 
ATOM      5  C   UNL d   1      -6.336  -5.952  -1.227  0.00  0.00     0.019 A 
ATOM      6  C   UNL d   1      -5.546  -4.786  -1.124  0.00  0.00     0.059 A 
ENDROOT
BRANCH   1   7
ATOM      7  N   UNL d   1      -3.585  -3.615  -0.110  0.00  0.00    -0.280 N 
ATOM      8  H   UNL d   1      -2.614  -3.883   0.012  0.00  0.00     0.179 HD
BRANCH   7   9
ATOM      9  S   UNL d   1      -4.068  -2.108   0.558  0.00  0.00     0.263 S 
ATOM     10  O   UNL d   1      -4.308  -2.253   1.986  0.00  0.00    -0.200 OA
ATOM     11  O   UNL d   1      -5.077  -1.508  -0.229  0.00  0.00    -0.200 OA
BRANCH   9  12
ATOM     12  C   UNL d   1      -2.653  -1.047   0.290  0.00  0.00     0.082 C 
ATOM     13  C   UNL d   1      -2.900   0.333   0.153  0.00  0.00     0.028 C 
ATOM     14  C   UNL d   1      -1.841   1.230   0.052  0.00  0.00     0.040 C 
ATOM     15  C   UNL d   1      -0.541   0.745   0.041  0.00  0.00     0.096 C 
ATOM     16  O   UNL d   1       0.449   1.683   0.102  0.00  0.00    -0.340 OA
ATOM     17  C   UNL d   1      -0.304  -0.634   0.041  0.00  0.00     0.070 C 
ATOM     18  C   UNL d   1       1.723   1.196  -0.279  0.00  0.00     0.278 C 
ATOM     19  C   UNL d   1       2.074  -0.266  -0.017  0.00  0.00     0.246 C 
ATOM     20  O   UNL d   1       3.226  -0.684   0.058  0.00  0.00    -0.271 OA
ATOM     21  N   UNL d   1       1.004  -1.116   0.047  0.00  0.00    -0.323 N 
ATOM     22  H   UNL d   1       1.214  -2.096   0.179  0.00  0.00     0.169 HD
ATOM     23  C   UNL d   1      -1.361  -1.540   0.114  0.00  0.00     0.057 C 
ENDBRANCH   9  12
ENDBRANCH   7   9
ENDBRANCH   1   7
BRANCH   6  24
ATOM     24  C   UNL d   1      -5.897  -3.715  -2.098  0.00  0.00     0.258 C 
ATOM     25  O   UNL d   1      -7.033  -3.712  -2.570  0.00  0.00    -0.267 OA
ATOM     26  N   UNL d   1      -4.909  -2.811  -2.458  0.00  0.00    -0.323 N 
ATOM     27  H   UNL d   1      -4.035  -2.884  -1.956  0.00  0.00     0.169 HD
BRANCH  26  28
ATOM     28  C   UNL d   1      -5.224  -1.480  -2.823  0.00  0.00     0.037 C 
ATOM     29  C   UNL d   1      -4.268  -0.602  -3.312  0.00  0.00     0.032 C 
ATOM     30  C   UNL d   1      -4.738   0.632  -3.812  0.00  0.00     0.042 C 
ATOM     31  C   UNL d   1      -6.038   1.002  -3.469  0.00  0.00     0.105 C 
ATOM     32  C   UNL d   1      -6.524   0.450  -2.346  0.00  0.00     0.107 C 
ATOM     33  O   UNL d   1      -7.198   1.318  -4.205  0.00  0.00    -0.323 OA
ATOM     34  C   UNL d   1      -6.401  -0.912  -2.344  0.00  0.00     0.069 C 
ATOM     35  O   UNL d   1      -7.655   1.094  -1.919  0.00  0.00    -0.323 OA
ATOM     36  C   UNL d   1      -8.259   0.997  -3.197  0.00  0.00     0.352 C 
ENDBRANCH  26  28
ENDBRANCH   6  24
TORSDOF 5
