REMARK  7 active torsions:
REMARK  status: ('A' for Active; 'I' for Inactive)
REMARK    1  A    between atoms: O_2  and  C_3 
REMARK    2  A    between atoms: C_6  and  C_7 
REMARK    3  A    between atoms: N_11  and  C_12 
REMARK    4  A    between atoms: C_12  and  N_13 
REMARK    5  A    between atoms: C_15  and  O_16 
REMARK    6  A    between atoms: O_16  and  C_17 
REMARK    7  A    between atoms: C_23  and  O_24 
ROOT
ATOM      1  C   UNL d   1       5.202   4.973   0.381  0.00  0.00     0.225 C 
ATOM      2  C   UNL d   1       5.885   5.396   1.679  0.00  0.00     0.040 C 
ATOM      3  C   UNL d   1       6.063   6.909   1.581  0.00  0.00     0.030 C 
ATOM      4  C   UNL d   1       4.932   7.442   0.715  0.00  0.00     0.238 C 
ATOM      5  N   UNL d   1       4.337   6.208   0.050  0.00  0.00    -0.045 N 
ATOM      6  H   UNL d   1       3.483   6.024   0.618  0.00  0.00     0.282 HD
ENDROOT
BRANCH   5   7
ATOM      7  C   UNL d   1       3.812   6.325  -1.364  0.00  0.00     0.385 C 
BRANCH   7   8
ATOM      8  N   UNL d   1       4.851   6.501  -2.390  0.00  0.00    -0.247 N 
ATOM      9  N   UNL d   1       6.154   6.866  -2.055  0.00  0.00    -0.269 N 
ATOM     10  C   UNL d   1       6.817   7.428  -2.992  0.00  0.00     0.204 C 
ATOM     11  H   UNL d   1       6.561   6.763  -1.138  0.00  0.00     0.190 HD
ATOM     12  S   UNL d   1       6.029   7.418  -4.516  0.00  0.00    -0.014 SA
ATOM     13  C   UNL d   1       4.602   6.688  -3.751  0.00  0.00     0.165 C 
ATOM     14  S   UNL d   1       3.210   6.317  -4.565  0.00  0.00    -0.051 SA
BRANCH  10  15
ATOM     15  O   UNL d   1       7.980   8.043  -2.730  0.00  0.00    -0.325 OA
BRANCH  15  16
ATOM     16  C   UNL d   1       8.651   8.158  -1.436  0.00  0.00     0.123 C 
ATOM     17  C   UNL d   1       9.153   6.784  -1.008  0.00  0.00     0.040 C 
ATOM     18  C   UNL d   1       9.831   9.102  -1.622  0.00  0.00     0.040 C 
ENDBRANCH  15  16
ENDBRANCH  10  15
ENDBRANCH   7   8
ENDBRANCH   5   7
BRANCH   1  19
ATOM     19  C   UNL d   1       4.479   3.653   0.318  0.00  0.00     0.006 A 
ATOM     20  C   UNL d   1       4.912   2.643  -0.568  0.00  0.00     0.015 A 
ATOM     21  C   UNL d   1       4.154   1.482  -0.759  0.00  0.00     0.037 A 
ATOM     22  C   UNL d   1       2.999   1.269  -0.015  0.00  0.00     0.070 A 
ATOM     23  C   UNL d   1       2.606   2.225   0.918  0.00  0.00     0.074 A 
ATOM     24  C   UNL d   1       3.330   3.412   1.083  0.00  0.00     0.079 A 
BRANCH  22  25
ATOM     25  O   UNL d   1       2.378   0.066  -0.187  0.00  0.00    -0.356 OA
ATOM     26  C   UNL d   1       0.954   0.067  -0.078  0.00  0.00     0.210 C 
ENDBRANCH  22  25
BRANCH  24  27
ATOM     27  O   UNL d   1       2.981   4.419   1.947  0.00  0.00    -0.355 OA
ATOM     28  C   UNL d   1       1.897   4.118   2.833  0.00  0.00     0.210 C 
ENDBRANCH  24  27
ENDBRANCH   1  19
TORSDOF 7
