REMARK  4 active torsions:
REMARK  status: ('A' for Active; 'I' for Inactive)
REMARK    1  A    between atoms: C_5  and  N_6 
REMARK       I    between atoms: N_6  and  C_7 
REMARK    2  A    between atoms: C_7  and  C_9 
REMARK    3  A    between atoms: C_9  and  N_11 
REMARK       I    between atoms: N_11  and  C_12 
REMARK    4  A    between atoms: C_12  and  C_14 
ROOT
ATOM      1  C   UNL d   1      -3.812  -4.028  -0.052  0.00  0.00     0.173 C 
ATOM      2  C   UNL d   1      -4.567  -3.605  -1.306  0.00  0.00     0.042 C 
ENDROOT
BRANCH   1   3
ATOM      3  C   UNL d   1      -2.417  -3.359  -0.016  0.00  0.00     0.244 C 
ATOM      4  N   UNL d   1      -2.389  -1.962  -0.003  0.00  0.00    -0.325 N 
ATOM      5  H   UNL d   1      -3.276  -1.477  -0.003  0.00  0.00     0.169 HD
ATOM      6  O   UNL d   1      -1.431  -4.102  -0.000  0.00  0.00    -0.271 OA
BRANCH   4   7
ATOM      7  C   UNL d   1      -1.211  -1.149  -0.001  0.00  0.00     0.040 A 
ATOM      8  C   UNL d   1       0.053  -1.751   0.001  0.00  0.00     0.030 A 
ATOM      9  C   UNL d   1       1.237  -1.024   0.004  0.00  0.00     0.009 A 
ATOM     10  C   UNL d   1       1.210   0.360  -0.000  0.00  0.00    -0.061 A 
ATOM     11  C   UNL d   1       2.510   1.108   0.008  0.00  0.00     0.048 C 
ATOM     12  C   UNL d   1      -0.038   1.001  -0.006  0.00  0.00     0.015 A 
ATOM     13  C   UNL d   1      -1.260   0.265  -0.002  0.00  0.00    -0.035 A 
ATOM     14  C   UNL d   1      -2.536   1.069  -0.004  0.00  0.00     0.050 C 
ENDBRANCH   4   7
ENDBRANCH   1   3
BRANCH   1  15
ATOM     15  N   UNL d   1      -3.597  -5.493  -0.023  0.00  0.00    -0.344 N 
ATOM     16  C   UNL d   1      -4.623  -6.407  -0.036  0.00  0.00     0.252 C 
ATOM     17  O   UNL d   1      -5.811  -6.088  -0.043  0.00  0.00    -0.268 OA
ATOM     18  H   UNL d   1      -2.624  -5.794  -0.066  0.00  0.00     0.163 HD
BRANCH  16  19
ATOM     19  C   UNL d   1      -4.269  -7.851  -0.084  0.00  0.00     0.032 A 
ATOM     20  C   UNL d   1      -3.298  -8.396   0.763  0.00  0.00     0.018 A 
ATOM     21  C   UNL d   1      -3.043  -9.775   0.737  0.00  0.00     0.025 A 
ATOM     22  C   UNL d   1      -3.751 -10.604  -0.136  0.00  0.00     0.034 A 
ATOM     23 CL   UNL d   1      -3.412 -12.291  -0.178  0.00  0.00    -0.084 Cl
ATOM     24  C   UNL d   1      -4.731 -10.072  -0.970  0.00  0.00     0.025 A 
ATOM     25  C   UNL d   1      -4.996  -8.698  -0.938  0.00  0.00     0.018 A 
ENDBRANCH  16  19
ENDBRANCH   1  15
TORSDOF 4
