REMARK  5 active torsions:
REMARK  status: ('A' for Active; 'I' for Inactive)
REMARK    1  A    between atoms: C_2  and  C_3 
REMARK    2  A    between atoms: C_2  and  C_12 
REMARK    3  A    between atoms: C_3  and  N_4 
REMARK    4  A    between atoms: N_4  and  C_5 
REMARK       I    between atoms: C_12  and  N_14 
REMARK    5  A    between atoms: N_14  and  N_15 
ROOT
ATOM      1  C   UNL d   1       3.082  -0.251  -1.509  0.00  0.00     0.133 C 
ENDROOT
BRANCH   1   2
ATOM      2  C   UNL d   1       2.574   0.063  -0.096  0.00  0.00     0.093 C 
ATOM      3  C   UNL d   1       1.040   0.041  -0.057  0.00  0.00     0.021 C 
BRANCH   2   4
ATOM      4  C   UNL d   1       3.073   1.440   0.360  0.00  0.00     0.237 C 
ATOM      5  O   UNL d   1       2.308   2.352   0.695  0.00  0.00    -0.272 OA
ATOM      6  N   UNL d   1       4.453   1.612   0.392  0.00  0.00    -0.294 N 
ATOM      7  H   UNL d   1       5.089   0.827   0.273  0.00  0.00     0.183 HD
BRANCH   6   8
ATOM      8  N   UNL d   1       4.981   2.825   0.904  0.00  0.00    -0.247 NA
ATOM      9  H   UNL d   1       4.178   3.437   1.118  0.00  0.00     0.143 HD
ATOM     10  H   UNL d   1       5.476   3.312   0.153  0.00  0.00     0.143 HD
ENDBRANCH   6   8
ENDBRANCH   2   4
ENDBRANCH   1   2
BRANCH   1  11
ATOM     11  N   UNL d   1       2.601  -1.541  -1.994  0.00  0.00    -0.389 N 
ATOM     12  H   UNL d   1       1.955  -2.088  -1.435  0.00  0.00     0.159 HD
BRANCH  11  13
ATOM     13  C   UNL d   1       2.979  -2.074  -3.213  0.00  0.00     0.029 A 
ATOM     14  C   UNL d   1       4.277  -1.925  -3.711  0.00  0.00     0.029 A 
ATOM     15  C   UNL d   1       4.662  -2.501  -4.923  0.00  0.00     0.004 A 
ATOM     16  C   UNL d   1       3.731  -3.192  -5.691  0.00  0.00     0.024 A 
ATOM     17  C   UNL d   1       2.419  -3.300  -5.239  0.00  0.00     0.036 A 
ATOM     18 CL   UNL d   1       1.256  -4.117  -6.212  0.00  0.00    -0.084 Cl
ATOM     19  C   UNL d   1       2.044  -2.754  -4.007  0.00  0.00     0.052 A 
ENDBRANCH  11  13
ENDBRANCH   1  11
TORSDOF 5
