@<TRIPOS>MOLECULE
*****
 51 53 0 0 0
SMALL
GASTEIGER

@<TRIPOS>ATOM
      1 C           1.8811    1.4839   -0.0151 C.3     1  UNL1       -0.0395
      2 C           0.6039    0.6931    0.0021 C.ar    1  UNL1       -0.0474
      3 C          -0.5959    1.3935    0.0249 C.ar    1  UNL1       -0.0568
      4 C          -1.8104    0.7201    0.0228 C.ar    1  UNL1       -0.0402
      5 C          -1.8914   -0.6711   -0.0188 C.ar    1  UNL1        0.0337
      6 N          -3.1513   -1.3434   -0.0666 N.am    1  UNL1       -0.2842
      7 C          -4.3902   -0.6955   -0.0912 C.2     1  UNL1        0.2343
      8 O          -4.5634    0.5257   -0.0469 O.2     1  UNL1       -0.2738
      9 C          -5.6394   -1.5895   -0.1649 C.3     1  UNL1        0.0861
     10 N          -6.8215   -0.7296   -0.3207 N.pl3   1  UNL1       -0.3354
     11 C          -8.1277   -1.1436   -0.1989 C.ar    1  UNL1        0.0275
     12 C          -9.1255   -0.5099   -0.9491 C.ar    1  UNL1       -0.0401
     13 C         -10.4689   -0.9179   -0.8711 C.ar    1  UNL1       -0.0479
     14 C         -10.8407   -2.0117   -0.0749 C.ar    1  UNL1        0.0368
     15 C         -12.2602   -2.5032   -0.1192 C.2     1  UNL1        0.2444
     16 O         -13.0827   -1.9354   -0.8422 O.2     1  UNL1       -0.2702
     17 N         -12.5958   -3.6141    0.6300 N.am    1  UNL1       -0.3042
     18 C         -13.9410   -4.1574    0.6102 C.3     1  UNL1        0.0700
     19 C         -13.9852   -5.4226    1.3936 C.ar    1  UNL1        0.1218
     20 C         -13.7795   -6.7355    1.0226 C.ar    1  UNL1       -0.0192
     21 C         -13.9428   -7.5202    2.1861 C.ar    1  UNL1       -0.0236
     22 C         -14.2595   -6.6424    3.1964 C.ar    1  UNL1        0.0921
     23 O         -14.2825   -5.3626    2.7276 O.2     1  UNL1       -0.4662
     24 C          -9.8487   -2.6292    0.6916 C.ar    1  UNL1       -0.0479
     25 C          -8.5141   -2.2020    0.6197 C.ar    1  UNL1       -0.0401
     26 C          -0.6828   -1.3897   -0.0192 C.ar    1  UNL1       -0.0373
     27 C           0.5687   -0.7158   -0.0017 C.ar    1  UNL1       -0.0458
     28 C           1.8600   -1.4919    0.0200 C.3     1  UNL1       -0.0394
     29 H           1.6790    2.5620   -0.0265 H       1  UNL1        0.0278
     30 H           2.4587    1.2547   -0.9151 H       1  UNL1        0.0278
     31 H           2.4741    1.2720    0.8784 H       1  UNL1        0.0278
     32 H          -0.6167    2.4803    0.0425 H       1  UNL1        0.0621
     33 H          -2.6820    1.3577    0.0506 H       1  UNL1        0.0636
     34 H          -3.1256   -2.3556   -0.1112 H       1  UNL1        0.1549
     35 H          -5.6803   -2.1952    0.7439 H       1  UNL1        0.0557
     36 H          -5.5702   -2.2279   -1.0497 H       1  UNL1        0.0557
     37 H          -6.6326    0.2706   -0.1980 H       1  UNL1        0.1466
     38 H          -8.8544    0.2834   -1.6455 H       1  UNL1        0.0636
     39 H         -11.2171   -0.3798   -1.4518 H       1  UNL1        0.0626
     40 H         -11.9215   -4.0890    1.2082 H       1  UNL1        0.1495
     41 H         -14.2011   -4.3749   -0.4323 H       1  UNL1        0.0543
     42 H         -14.6431   -3.4056    0.9836 H       1  UNL1        0.0543
     43 H         -13.5386   -7.0692    0.0239 H       1  UNL1        0.0652
     44 H         -13.8467   -8.5935    2.2744 H       1  UNL1        0.0649
     45 H         -14.4812   -6.7700    4.2483 H       1  UNL1        0.1029
     46 H         -10.0682   -3.4481    1.3637 H       1  UNL1        0.0626
     47 H          -7.7828   -2.7034    1.2446 H       1  UNL1        0.0636
     48 H          -0.6852   -2.4778   -0.0321 H       1  UNL1        0.0639
     49 H           1.6871   -2.5715    0.0263 H       1  UNL1        0.0278
     50 H           2.4339   -1.2425    0.9200 H       1  UNL1        0.0278
     51 H           2.4636   -1.2535   -0.8626 H       1  UNL1        0.0278
@<TRIPOS>BOND
     1     1     2    1
     2     2     3   ar
     3     3     4   ar
     4     4     5   ar
     5     5     6    1
     6     6     7   am
     7     7     8    2
     8     7     9    1
     9     9    10    1
    10    10    11    1
    11    11    12   ar
    12    12    13   ar
    13    13    14   ar
    14    14    15    1
    15    15    16    2
    16    15    17   am
    17    17    18    1
    18    18    19    1
    19    19    20   ar
    20    20    21   ar
    21    21    22   ar
    22    22    23   ar
    23    19    23   ar
    24    14    24   ar
    25    24    25   ar
    26    11    25   ar
    27     5    26   ar
    28    26    27   ar
    29     2    27   ar
    30    27    28    1
    31     1    29    1
    32     1    30    1
    33     1    31    1
    34     3    32    1
    35     4    33    1
    36     6    34    1
    37     9    35    1
    38     9    36    1
    39    10    37    1
    40    12    38    1
    41    13    39    1
    42    17    40    1
    43    18    41    1
    44    18    42    1
    45    20    43    1
    46    21    44    1
    47    22    45    1
    48    24    46    1
    49    25    47    1
    50    26    48    1
    51    28    49    1
    52    28    50    1
    53    28    51    1
