@<TRIPOS>MOLECULE
*****
 72 74 0 0 0
SMALL
GASTEIGER

@<TRIPOS>ATOM
      1 C           0.3459    0.7786  -15.5046 C.3     1  UNL1        0.0004
      2 N          -0.1009    0.4373  -14.1594 N.pl3   1  UNL1       -0.3360
      3 C          -1.3862   -0.2210  -13.9877 C.3     1  UNL1        0.0004
      4 C           0.5190    1.0190  -13.0635 C.ar    1  UNL1        0.0293
      5 C           0.7600    0.3252  -11.8669 C.ar    1  UNL1       -0.0389
      6 C           1.4133    0.9305  -10.7595 C.ar    1  UNL1       -0.0387
      7 C           1.8863    2.2450  -10.8459 C.ar    1  UNL1        0.0349
      8 N           2.6568    2.8404   -9.7976 N.am    1  UNL1       -0.2695
      9 C           3.2189    4.1021   -9.8782 C.2     1  UNL1        0.3039
     10 O           3.1130    4.8855  -10.8192 O.2     1  UNL1       -0.2525
     11 N           3.9504    4.5013   -8.7860 N.am    1  UNL1       -0.2989
     12 C           4.5131    5.8449   -8.8322 C.3     1  UNL1        0.0159
     13 C           5.4005    6.1826   -7.6378 C.3     1  UNL1       -0.0251
     14 C           6.7510    5.4576   -7.7247 C.3     1  UNL1       -0.0488
     15 C           7.5986    5.9337   -8.9059 C.3     1  UNL1       -0.0525
     16 C           7.8369    7.4268   -8.8352 C.3     1  UNL1       -0.0488
     17 C           6.5433    8.2512   -8.6509 C.3     1  UNL1       -0.0251
     18 C           6.9301    9.6960   -8.3153 C.3     1  UNL1        0.0159
     19 N           7.7836    9.6691   -7.1354 N.am    1  UNL1       -0.2989
     20 C           8.8692   10.4689   -7.0020 C.2     1  UNL1        0.3039
     21 O           9.0281   11.4651   -7.7106 O.2     1  UNL1       -0.2525
     22 N           9.7337   10.0252   -6.0188 N.am    1  UNL1       -0.2695
     23 C          10.8013   10.8209   -5.5815 C.ar    1  UNL1        0.0349
     24 C          12.0338   10.2876   -5.2390 C.ar    1  UNL1       -0.0387
     25 C          13.0417   11.1399   -4.7477 C.ar    1  UNL1       -0.0389
     26 C          12.8789   12.5361   -4.6305 C.ar    1  UNL1        0.0293
     27 N          13.8930   13.3892   -4.2207 N.pl3   1  UNL1       -0.3360
     28 C          15.2642   12.9372   -3.9928 C.3     1  UNL1        0.0004
     29 C          13.7361   14.8473   -4.2108 C.3     1  UNL1        0.0004
     30 C          11.5987   13.0086   -4.9456 C.ar    1  UNL1       -0.0389
     31 C          10.5876   12.1789   -5.4175 C.ar    1  UNL1       -0.0387
     32 C           5.6335    7.6926   -7.5366 C.3     1  UNL1       -0.0445
     33 C           1.5978    2.9356  -12.0203 C.ar    1  UNL1       -0.0387
     34 C           0.9466    2.3403  -13.0999 C.ar    1  UNL1       -0.0389
     35 H          -0.2909    0.3269  -16.2723 H       1  UNL1        0.0428
     36 H           1.3578    0.3863  -15.6524 H       1  UNL1        0.0428
     37 H           0.3565    1.8550  -15.7046 H       1  UNL1        0.0428
     38 H          -1.8164   -0.5149  -14.9528 H       1  UNL1        0.0428
     39 H          -2.1166    0.4351  -13.4999 H       1  UNL1        0.0428
     40 H          -1.2751   -1.1349  -13.3978 H       1  UNL1        0.0428
     41 H           0.4911   -0.7277  -11.8069 H       1  UNL1        0.0637
     42 H           1.5388    0.3393   -9.8562 H       1  UNL1        0.0637
     43 H           2.8694    2.2679   -8.9940 H       1  UNL1        0.1564
     44 H           4.1346    3.8904   -8.0061 H       1  UNL1        0.1502
     45 H           3.6774    6.5527   -8.9018 H       1  UNL1        0.0465
     46 H           5.0639    5.9490   -9.7743 H       1  UNL1        0.0465
     47 H           4.8858    5.8702   -6.7202 H       1  UNL1        0.0316
     48 H           6.5949    4.3781   -7.8037 H       1  UNL1        0.0268
     49 H           7.3061    5.6298   -6.7922 H       1  UNL1        0.0268
     50 H           7.1310    5.6877   -9.8627 H       1  UNL1        0.0265
     51 H           8.5659    5.4201   -8.8918 H       1  UNL1        0.0265
     52 H           8.3751    7.7792   -9.7237 H       1  UNL1        0.0268
     53 H           8.5282    7.5758   -7.9984 H       1  UNL1        0.0268
     54 H           5.9798    8.2395   -9.5944 H       1  UNL1        0.0316
     55 H           7.4565   10.1558   -9.1620 H       1  UNL1        0.0465
     56 H           6.0516   10.3133   -8.0959 H       1  UNL1        0.0465
     57 H           7.7886    8.8343   -6.5733 H       1  UNL1        0.1502
     58 H           9.7204    9.0552   -5.7386 H       1  UNL1        0.1564
     59 H          12.2712    9.2397   -5.4010 H       1  UNL1        0.0637
     60 H          13.9661   10.6550   -4.4564 H       1  UNL1        0.0637
     61 H          15.4226   11.8612   -4.0642 H       1  UNL1        0.0428
     62 H          15.5793   13.2306   -2.9863 H       1  UNL1        0.0428
     63 H          15.9468   13.3982   -4.7160 H       1  UNL1        0.0428
     64 H          12.7390   15.2220   -4.4437 H       1  UNL1        0.0428
     65 H          14.4114   15.3137   -4.9372 H       1  UNL1        0.0428
     66 H          13.9785   15.2325   -3.2152 H       1  UNL1        0.0428
     67 H          11.3080   14.0440   -4.8344 H       1  UNL1        0.0637
     68 H           9.6159   12.6148   -5.6317 H       1  UNL1        0.0637
     69 H           4.6802    8.2387   -7.5317 H       1  UNL1        0.0272
     70 H           6.0706    7.8809   -6.5490 H       1  UNL1        0.0272
     71 H           1.8608    3.9732  -12.1678 H       1  UNL1        0.0637
     72 H           0.7701    2.9694  -13.9653 H       1  UNL1        0.0637
@<TRIPOS>BOND
     1     1     2    1
     2     2     3    1
     3     2     4    1
     4     4     5   ar
     5     5     6   ar
     6     6     7   ar
     7     7     8    1
     8     8     9   am
     9     9    10    2
    10     9    11   am
    11    11    12    1
    12    13    14    1
    13    14    15    1
    14    15    16    1
    15    16    17    1
    16    18    19    1
    17    19    20   am
    18    20    21    2
    19    20    22   am
    20    22    23    1
    21    23    24   ar
    22    24    25   ar
    23    25    26   ar
    24    26    27    1
    25    27    28    1
    26    27    29    1
    27    26    30   ar
    28    30    31   ar
    29    23    31   ar
    30    17    32    1
    31    13    32    1
    32     7    33   ar
    33    33    34   ar
    34     4    34   ar
    35    17    18    1
    36    13    12    1
    37     1    35    1
    38     1    36    1
    39     1    37    1
    40     3    38    1
    41     3    39    1
    42     3    40    1
    43     5    41    1
    44     6    42    1
    45     8    43    1
    46    11    44    1
    47    12    45    1
    48    12    46    1
    49    13    47    1
    50    14    48    1
    51    14    49    1
    52    15    50    1
    53    15    51    1
    54    16    52    1
    55    16    53    1
    56    17    54    1
    57    18    55    1
    58    18    56    1
    59    19    57    1
    60    22    58    1
    61    24    59    1
    62    25    60    1
    63    28    61    1
    64    28    62    1
    65    28    63    1
    66    29    64    1
    67    29    65    1
    68    29    66    1
    69    30    67    1
    70    31    68    1
    71    32    69    1
    72    32    70    1
    73    33    71    1
    74    34    72    1
