REMARK  5 active torsions:
REMARK  status: ('A' for Active; 'I' for Inactive)
REMARK       I    between atoms: C_2  and  N_3 
REMARK    1  A    between atoms: C_2  and  C_15 
REMARK    2  A    between atoms: N_3  and  C_4 
REMARK    3  A    between atoms: C_4  and  C_5 
REMARK    4  A    between atoms: C_5  and  C_6 
REMARK    5  A    between atoms: C_19  and  N_18 
ROOT
ATOM      1  C   UNL d   1       6.410   1.189  -3.031  0.00  0.00     0.081 C 
ATOM      2  C   UNL d   1       5.598   0.177  -3.851  0.00  0.00     0.044 C 
ATOM      3  C   UNL d   1       4.625  -0.648  -2.970  0.00  0.00     0.277 C 
ATOM      4  N   UNL d   1       5.268  -1.337  -1.860  0.00  0.00     0.121 N 
ATOM      5  C   UNL d   1       6.032  -0.351  -1.053  0.00  0.00     0.277 C 
ATOM      6  C   UNL d   1       7.061   0.475  -1.835  0.00  0.00     0.044 C 
ENDROOT
BRANCH   1   7
ATOM      7  C   UNL d   1       5.572   2.411  -2.605  0.00  0.00     0.221 C 
ATOM      8  O   UNL d   1       6.062   3.388  -2.058  0.00  0.00    -0.273 OA
ATOM      9  N   UNL d   1       4.219   2.318  -2.850  0.00  0.00    -0.360 N 
ATOM     10  H   UNL d   1       3.859   1.614  -3.470  0.00  0.00     0.162 HD
BRANCH   9  11
ATOM     11  C   UNL d   1       3.268   3.291  -2.415  0.00  0.00     0.127 C 
BRANCH  11  12
ATOM     12  C   UNL d   1       1.841   2.786  -2.655  0.00  0.00     0.056 C 
BRANCH  12  13
ATOM     13  C   UNL d   1       0.838   3.797  -2.236  0.00  0.00    -0.048 A 
ATOM     14  C   UNL d   1       0.640   4.261  -0.999  0.00  0.00    -0.006 A 
ATOM     15  C   UNL d   1       1.247   4.000   0.261  0.00  0.00     0.014 A 
ATOM     16  C   UNL d   1      -0.465   5.229  -1.145  0.00  0.00     0.038 A 
ATOM     17  C   UNL d   1       0.794   4.662   1.336  0.00  0.00     0.001 A 
ATOM     18  C   UNL d   1      -0.305   5.610   1.236  0.00  0.00     0.002 A 
ATOM     19  C   UNL d   1      -0.931   5.910   0.083  0.00  0.00     0.030 A 
ATOM     20  N   UNL d   1      -0.865   5.327  -2.342  0.00  0.00    -0.385 N 
ATOM     21  C   UNL d   1      -0.085   4.437  -3.226  0.00  0.00     0.155 A 
ATOM     22  H   UNL d   1      -1.632   5.937  -2.640  0.00  0.00     0.160 HD
ENDBRANCH  12  13
ENDBRANCH  11  12
ENDBRANCH   9  11
ENDBRANCH   1   7
BRANCH   4  23
ATOM     23  C   UNL d   1       6.009  -2.562  -2.251  0.00  0.00     0.392 C 
ATOM     24  N   UNL d   1       6.791  -2.634  -3.489  0.00  0.00    -0.350 N 
ATOM     25  C   UNL d   1       6.787  -3.870  -4.122  0.00  0.00     0.066 C 
ATOM     26  H   UNL d   1       7.426  -1.907  -3.760  0.00  0.00     0.162 HD
ATOM     27  C   UNL d   1       7.430  -4.201  -5.314  0.00  0.00     0.033 C 
ATOM     28  C   UNL d   1       5.999  -4.857  -3.542  0.00  0.00     0.123 C 
ATOM     29  C   UNL d   1       7.460  -5.541  -5.724  0.00  0.00     0.022 C 
ATOM     30  C   UNL d   1       6.689  -6.462  -5.024  0.00  0.00     0.118 C 
ATOM     31  N   UNL d   1       5.915  -6.142  -3.956  0.00  0.00    -0.252 NA
ATOM     32  S   UNL d   1       4.994  -4.126  -2.244  0.00  0.00    -0.051 SA
ENDBRANCH   4  23
TORSDOF 5
