@<TRIPOS>MOLECULE
*****
 57 62 0 0 0
SMALL
GASTEIGER

@<TRIPOS>ATOM
      1 O           0.9316   -0.0408   -0.0548 O.2     1  UNL1       -0.2665
      2 C           2.1712   -0.0746   -0.0035 C.2     1  UNL1        0.2836
      3 N           2.8610    0.2910    1.1560 N.am    1  UNL1       -0.2789
      4 C           2.1901    0.6746    2.3637 C.ar    1  UNL1        0.0360
      5 C           1.0613   -0.0350    2.8165 C.ar    1  UNL1       -0.0369
      6 C           0.3971    0.2717    4.0219 C.ar    1  UNL1       -0.0154
      7 C           0.8946    1.3565    4.7301 C.ar    1  UNL1        0.1558
      8 O           0.4487    1.8689    5.9227 O.2     1  UNL1       -0.4353
      9 C           1.2716    2.9479    6.1383 C.ar    1  UNL1        0.2284
     10 C           1.1033    3.7005    7.3785 C.ar    1  UNL1        0.0370
     11 C           1.0092    5.0974    7.3371 C.ar    1  UNL1       -0.0489
     12 C           1.0993    5.8523    8.5117 C.ar    1  UNL1       -0.0533
     13 C           1.2069    5.2320    9.7664 C.ar    1  UNL1       -0.0178
     14 C           1.2408    6.0453   10.9900 C.ar    1  UNL1       -0.0179
     15 C           0.2043    6.9526   11.2726 C.ar    1  UNL1       -0.0540
     16 C           0.2852    7.8193   12.3641 C.ar    1  UNL1       -0.0612
     17 C           1.3689    7.7389   13.2341 C.ar    1  UNL1       -0.0617
     18 C           2.3842    6.8147   12.9960 C.ar    1  UNL1       -0.0612
     19 C           2.3234    5.9783   11.8785 C.ar    1  UNL1       -0.0540
     20 C           1.2831    3.8327    9.8051 C.ar    1  UNL1       -0.0533
     21 C           1.2228    3.0741    8.6261 C.ar    1  UNL1       -0.0489
     22 N           2.1829    3.1420    5.1995 N.ar    1  UNL1       -0.2089
     23 C           1.9773    2.1139    4.3130 C.ar    1  UNL1        0.1116
     24 C           2.6659    1.7551    3.1310 C.ar    1  UNL1       -0.0113
     25 C           2.9271   -0.3438   -1.2275 C.ar    1  UNL1        0.1902
     26 C           2.6241    0.0938   -2.5081 C.ar    1  UNL1       -0.0106
     27 C           3.5030   -0.5465   -3.4014 C.ar    1  UNL1       -0.0151
     28 C           4.2990   -1.3743   -2.6411 C.ar    1  UNL1        0.1361
     29 C           5.3852   -2.2675   -3.0355 C.ar    1  UNL1        0.0237
     30 C           5.3397   -3.6463   -2.7915 C.ar    1  UNL1       -0.0507
     31 C           6.4009   -4.4790   -3.1790 C.ar    1  UNL1       -0.0547
     32 C           7.4925   -3.9562   -3.8745 C.ar    1  UNL1        0.0156
     33 C           7.5250   -2.5876   -4.1599 C.ar    1  UNL1        0.2738
     34 N           8.6919   -2.0136   -4.8442 N.pl3   1  UNL1        0.0796
     35 O           9.6162   -2.7789   -5.1522 O.2     1  UNL1        0.0414
     36 O           8.6887   -0.7930   -5.0614 O.co2   1  UNL1       -0.5760
     37 C           6.4734   -1.7487   -3.7575 C.ar    1  UNL1        0.0262
     38 O           3.9773   -1.2449   -1.3025 O.2     1  UNL1       -0.4502
     39 H           3.8363    0.5463    1.0499 H       1  UNL1        0.1552
     40 H           0.6916   -0.8821    2.2409 H       1  UNL1        0.0637
     41 H          -0.4521   -0.3036    4.3696 H       1  UNL1        0.0655
     42 H           0.8977    5.6131    6.3854 H       1  UNL1        0.0625
     43 H           1.1271    6.9394    8.4411 H       1  UNL1        0.0624
     44 H          -0.6765    6.9907   10.6338 H       1  UNL1        0.0624
     45 H          -0.4917    8.5619   12.5265 H       1  UNL1        0.0618
     46 H           1.4217    8.3963   14.0977 H       1  UNL1        0.0618
     47 H           3.2367    6.7580   13.6674 H       1  UNL1        0.0618
     48 H           3.1407    5.2855   11.6906 H       1  UNL1        0.0624
     49 H           1.4144    3.3229   10.7579 H       1  UNL1        0.0624
     50 H           1.3191    1.9927    8.6888 H       1  UNL1        0.0625
     51 H           3.5046    2.3664    2.8200 H       1  UNL1        0.0658
     52 H           1.8258    0.7798   -2.7572 H       1  UNL1        0.0657
     53 H           3.5397   -0.4506   -4.4784 H       1  UNL1        0.0656
     54 H           4.4652   -4.0912   -2.3195 H       1  UNL1        0.0625
     55 H           6.3804   -5.5383   -2.9286 H       1  UNL1        0.0620
     56 H           8.2996   -4.6196   -4.1817 H       1  UNL1        0.0685
     57 H           6.4977   -0.6867   -3.9970 H       1  UNL1        0.0692
@<TRIPOS>UNITY_ATOM_ATTR
34 1
charge 1
36 1
charge -1
@<TRIPOS>BOND
     1     1     2    2
     2     2     3   am
     3     3     4    1
     4     4     5   ar
     5     5     6   ar
     6     6     7   ar
     7     7     8   ar
     8     8     9   ar
     9     9    10    1
    10    10    11   ar
    11    11    12   ar
    12    12    13   ar
    13    13    14    1
    14    14    15   ar
    15    15    16   ar
    16    16    17   ar
    17    17    18   ar
    18    18    19   ar
    19    14    19   ar
    20    13    20   ar
    21    20    21   ar
    22    10    21   ar
    23     9    22   ar
    24    22    23   ar
    25     7    23   ar
    26    23    24   ar
    27     4    24   ar
    28     2    25    1
    29    25    26   ar
    30    26    27   ar
    31    27    28   ar
    32    28    29    1
    33    29    30   ar
    34    30    31   ar
    35    31    32   ar
    36    32    33   ar
    37    33    34    1
    38    34    35    2
    39    34    36    1
    40    33    37   ar
    41    29    37   ar
    42    28    38   ar
    43    25    38   ar
    44     3    39    1
    45     5    40    1
    46     6    41    1
    47    11    42    1
    48    12    43    1
    49    15    44    1
    50    16    45    1
    51    17    46    1
    52    18    47    1
    53    19    48    1
    54    20    49    1
    55    21    50    1
    56    24    51    1
    57    26    52    1
    58    27    53    1
    59    30    54    1
    60    31    55    1
    61    32    56    1
    62    37    57    1
