REMARK  6 active torsions:
REMARK  status: ('A' for Active; 'I' for Inactive)
REMARK    1  A    between atoms: O_2  and  C_3 
REMARK    2  A    between atoms: C_9  and  N_10 
REMARK    3  A    between atoms: N_10  and  C_11 
REMARK    4  A    between atoms: C_11  and  C_13 
REMARK       I    between atoms: C_13  and  N_15 
REMARK       I    between atoms: N_15  and  C_16 
REMARK       I    between atoms: C_16  and  N_18 
REMARK    5  A    between atoms: N_18  and  C_19 
REMARK    6  A    between atoms: C_19  and  C_20 
ROOT
ATOM      1  C   UNL d   1       4.938   0.407  -3.286  0.00  0.00     0.247 C 
ATOM      2  O   UNL d   1       5.978   1.072  -3.331  0.00  0.00    -0.271 OA
ATOM      3  N   UNL d   1       4.451  -0.362  -4.356  0.00  0.00    -0.278 N 
ATOM      4  C   UNL d   1       5.087  -0.399  -5.582  0.00  0.00     0.323 C 
ATOM      5  O   UNL d   1       6.122   0.220  -5.837  0.00  0.00    -0.247 OA
ATOM      6  N   UNL d   1       4.509  -1.192  -6.550  0.00  0.00    -0.339 N 
ATOM      7  H   UNL d   1       3.610  -0.904  -4.231  0.00  0.00     0.173 HD
ATOM      8  H   UNL d   1       3.613  -1.637  -6.423  0.00  0.00     0.164 HD
ENDROOT
BRANCH   1   9
ATOM      9  C   UNL d   1       4.091   0.423  -1.975  0.00  0.00     0.170 C 
ATOM     10  C   UNL d   1       2.741   1.043  -2.318  0.00  0.00     0.042 C 
BRANCH   9  11
ATOM     11  N   UNL d   1       4.746   1.236  -0.921  0.00  0.00    -0.375 N 
ATOM     12  H   UNL d   1       5.603   1.706  -1.214  0.00  0.00     0.160 HD
BRANCH  11  13
ATOM     13  C   UNL d   1       4.285   1.398   0.387  0.00  0.00     0.063 A 
ATOM     14  C   UNL d   1       4.978   2.294   1.243  0.00  0.00     0.038 A 
ATOM     15  C   UNL d   1       4.552   2.550   2.566  0.00  0.00    -0.060 A 
ATOM     16  C   UNL d   1       3.401   1.923   3.038  0.00  0.00     0.009 A 
ATOM     17  C   UNL d   1       5.305   3.471   3.485  0.00  0.00     0.048 C 
ATOM     18  C   UNL d   1       2.701   1.042   2.227  0.00  0.00     0.039 A 
ATOM     19  C   UNL d   1       3.134   0.764   0.926  0.00  0.00     0.094 A 
BRANCH  19  20
ATOM     20  O   UNL d   1       2.483  -0.229   0.222  0.00  0.00    -0.354 OA
ATOM     21  C   UNL d   1       1.054  -0.126   0.200  0.00  0.00     0.210 C 
ENDBRANCH  19  20
ENDBRANCH  11  13
ENDBRANCH   9  11
ENDBRANCH   1   9
BRANCH   6  22
ATOM     22  C   UNL d   1       5.147  -1.336  -7.874  0.00  0.00     0.162 C 
BRANCH  22  23
ATOM     23  C   UNL d   1       5.352  -2.773  -8.320  0.00  0.00    -0.040 A 
ATOM     24  C   UNL d   1       6.011  -3.061  -9.533  0.00  0.00     0.009 A 
ATOM     25  C   UNL d   1       6.206  -4.387  -9.947  0.00  0.00     0.001 A 
ATOM     26  C   UNL d   1       5.744  -5.439  -9.159  0.00  0.00     0.000 A 
ATOM     27  C   UNL d   1       5.097  -5.168  -7.959  0.00  0.00     0.001 A 
ATOM     28  C   UNL d   1       4.907  -3.850  -7.545  0.00  0.00     0.009 A 
ENDBRANCH  22  23
ENDBRANCH   6  22
TORSDOF 6
