REMARK  5 active torsions:
REMARK  status: ('A' for Active; 'I' for Inactive)
REMARK       I    between atoms: C_2  and  N_3 
REMARK    1  A    between atoms: C_2  and  C_20 
REMARK    2  A    between atoms: N_3  and  C_4 
REMARK    3  A    between atoms: C_7  and  S_8 
REMARK    4  A    between atoms: S_8  and  N_11 
REMARK    5  A    between atoms: N_11  and  C_12 
ROOT
ATOM      1  C   UNL d   1       2.361  -2.396   1.033  0.00  0.00     0.035 A 
ATOM      2  C   UNL d   1       2.790  -3.102   2.160  0.00  0.00     0.031 A 
ATOM      3  C   UNL d   1       2.142  -4.307   2.523  0.00  0.00     0.027 A 
ATOM      4  C   UNL d   1       1.030  -4.780   1.795  0.00  0.00     0.080 A 
ATOM      5  C   UNL d   1       0.595  -4.064   0.690  0.00  0.00     0.027 A 
ATOM      6  C   UNL d   1       1.252  -2.887   0.331  0.00  0.00     0.031 A 
ENDROOT
BRANCH   1   7
ATOM      7  N   UNL d   1       3.053  -1.250   0.538  0.00  0.00    -0.323 N 
ATOM      8  C   UNL d   1       2.346  -0.249  -0.126  0.00  0.00     0.256 C 
ATOM      9  O   UNL d   1       1.123  -0.206  -0.151  0.00  0.00    -0.267 OA
ATOM     10  H   UNL d   1       4.011  -1.095   0.815  0.00  0.00     0.169 HD
BRANCH   8  11
ATOM     11  C   UNL d   1       3.028   0.985  -0.591  0.00  0.00     0.035 C 
ATOM     12  C   UNL d   1       4.177   1.331  -1.315  0.00  0.00     0.020 C 
ATOM     13  C   UNL d   1       4.571   2.765  -1.470  0.00  0.00     0.040 C 
ATOM     14  C   UNL d   1       3.810   3.795  -0.837  0.00  0.00     0.102 C 
ATOM     15  C   UNL d   1       2.851   3.252  -0.060  0.00  0.00     0.103 C 
ATOM     16  O   UNL d   1       3.811   5.195  -0.685  0.00  0.00    -0.346 OA
ATOM     17  C   UNL d   1       2.318   2.012  -0.067  0.00  0.00     0.056 C 
ATOM     18  O   UNL d   1       2.709   3.763   1.196  0.00  0.00    -0.346 OA
ATOM     19  C   UNL d   1       1.775   4.761   0.958  0.00  0.00     0.202 C 
ATOM     20  C   UNL d   1       2.662   5.809   0.292  0.00  0.00     0.202 C 
ENDBRANCH   8  11
ENDBRANCH   1   7
BRANCH   4  21
ATOM     21  S   UNL d   1       0.138  -6.227   2.395  0.00  0.00     0.276 S 
ATOM     22  O   UNL d   1       1.063  -7.348   2.185  0.00  0.00    -0.200 OA
ATOM     23  O   UNL d   1      -0.318  -5.869   3.699  0.00  0.00    -0.200 OA
BRANCH  21  24
ATOM     24  N   UNL d   1      -1.179  -6.441   1.390  0.00  0.00    -0.109 N 
ATOM     25  H   UNL d   1      -1.255  -6.035   0.473  0.00  0.00     0.198 HD
BRANCH  24  26
ATOM     26  C   UNL d   1      -1.958  -7.587   1.588  0.00  0.00     0.735 A 
ATOM     27  N   UNL d   1      -2.311  -8.256   0.480  0.00  0.00    -0.074 NA
ATOM     28  C   UNL d   1      -3.135  -9.314   0.677  0.00  0.00     0.138 A 
ATOM     29  C   UNL d   1      -3.649  -9.665   1.905  0.00  0.00     0.040 A 
ATOM     30  C   UNL d   1      -3.272  -8.854   2.947  0.00  0.00     0.138 A 
ATOM     31  N   UNL d   1      -2.430  -7.812   2.813  0.00  0.00    -0.074 NA
ENDBRANCH  24  26
ENDBRANCH  21  24
ENDBRANCH   4  21
TORSDOF 5
