REMARK  3 active torsions:
REMARK  status: ('A' for Active; 'I' for Inactive)
REMARK    1  A    between atoms: C_9  and  N_10 
REMARK    2  A    between atoms: C_20  and  C_21 
REMARK    3  A    between atoms: C_26  and  N_27 
ROOT
ATOM      1  N   UNL d   1       4.493  -0.300  -2.727  0.00  0.00    -0.196 NA
ATOM      2  C   UNL d   1       4.114  -0.153  -1.650  0.00  0.00     0.074 C 
ATOM      3  C   UNL d   1       3.766  -0.071  -0.215  0.00  0.00     0.198 C 
ATOM      4  C   UNL d   1       4.462  -1.262   0.387  0.00  0.00     0.242 C 
ATOM      5  O   UNL d   1       3.829  -2.147   0.958  0.00  0.00    -0.272 OA
ATOM      6  N   UNL d   1       5.861  -1.194   0.300  0.00  0.00    -0.309 N 
ATOM      7  C   UNL d   1       6.560   0.026   0.417  0.00  0.00     0.162 A 
ATOM      8  N   UNL d   1       7.930  -0.008   0.648  0.00  0.00    -0.046 NA
ATOM      9  C   UNL d   1       8.538   1.088   1.041  0.00  0.00     0.707 A 
ATOM     10  N   UNL d   1       7.847   2.271   1.130  0.00  0.00    -0.154 N 
ATOM     11  C   UNL d   1       6.526   2.399   0.838  0.00  0.00     0.270 A 
ATOM     12  O   UNL d   1       5.939   3.476   0.846  0.00  0.00    -0.267 OA
ATOM     13  C   UNL d   1       5.824   1.149   0.536  0.00  0.00     0.067 A 
ATOM     14  C   UNL d   1       4.319   1.182   0.485  0.00  0.00     0.090 C 
ATOM     15  H   UNL d   1       6.370  -2.032   0.561  0.00  0.00     0.170 HD
ATOM     16  H   UNL d   1       8.352   3.132   1.264  0.00  0.00     0.187 HD
ENDROOT
BRANCH  14  17
ATOM     17  C   UNL d   1       3.636   1.419   1.865  0.00  0.00    -0.015 C 
ATOM     18  C   UNL d   1       2.740   2.516   1.956  0.00  0.00     0.010 C 
ATOM     19  C   UNL d   1       1.844   2.637   3.030  0.00  0.00     0.001 C 
ATOM     20  C   UNL d   1       2.014   1.874   4.175  0.00  0.00     0.002 C 
ATOM     21  C   UNL d   1       2.990   0.902   4.191  0.00  0.00     0.037 C 
ATOM     22  C   UNL d   1       3.730   0.612   3.037  0.00  0.00     0.110 C 
BRANCH  22  23
ATOM     23  N   UNL d   1       4.641  -0.511   3.266  0.00  0.00    -0.115 N 
ATOM     24  O   UNL d   1       4.270  -1.428   4.011  0.00  0.00    -0.532 OA
ATOM     25  O   UNL d   1       5.777  -0.419   2.820  0.00  0.00    -0.532 OA
ENDBRANCH  22  23
ENDBRANCH  14  17
BRANCH   9  26
ATOM     26  N   UNL d   1       9.907   1.195   1.298  0.00  0.00    -0.216 N 
ATOM     27  C   UNL d   1      10.533   1.748   2.515  0.00  0.00     0.141 C 
ATOM     28  C   UNL d   1      11.524   2.861   2.133  0.00  0.00     0.020 C 
ATOM     29  C   UNL d   1      12.559   2.375   1.115  0.00  0.00     0.003 C 
ATOM     30  C   UNL d   1      11.873   1.677  -0.061  0.00  0.00     0.020 C 
ATOM     31  C   UNL d   1      10.893   0.588   0.406  0.00  0.00     0.141 C 
ENDBRANCH   9  26
TORSDOF 3
