@<TRIPOS>MOLECULE
*****
 72 77 0 0 0
SMALL
GASTEIGER

@<TRIPOS>ATOM
      1 C           9.4588    0.4984   -5.3297 C.3     1  UNL1       -0.0026
      2 C           9.4590    1.9968   -5.3201 C.ar    1  UNL1        0.1484
      3 O           8.4514    2.3859   -4.4942 O.2     1  UNL1       -0.4560
      4 C           8.3528    3.6815   -4.1404 C.ar    1  UNL1        0.1425
      5 C           7.4639    3.8737   -3.1173 C.ar    1  UNL1        0.0238
      6 C           7.1969    5.1301   -2.6095 C.ar    1  UNL1        0.1352
      7 O           6.2955    5.3419   -1.5427 O.3     1  UNL1       -0.4244
      8 C           5.6386    4.2504   -0.9755 C.2     1  UNL1        0.3333
      9 O           5.7419    3.1052   -1.3954 O.2     1  UNL1       -0.2483
     10 C           4.7911    4.5398    0.2705 C.3     1  UNL1        0.1276
     11 C           3.6332    3.4936    0.2570 C.3     1  UNL1        0.0033
     12 C           4.0778    2.0400    0.4344 C.ar    1  UNL1       -0.0201
     13 C           5.3592    1.5698    0.6869 C.ar    1  UNL1        0.0060
     14 N           5.3703    0.2083    0.5890 N.ar    1  UNL1       -0.3604
     15 C           4.0989   -0.2512    0.3652 C.ar    1  UNL1        0.0467
     16 C           3.6349   -1.5638    0.2352 C.ar    1  UNL1       -0.0378
     17 C           2.2728   -1.7390   -0.0147 C.ar    1  UNL1       -0.0598
     18 C           1.4178   -0.6453   -0.1359 C.ar    1  UNL1       -0.0611
     19 C           1.9025    0.6612   -0.0100 C.ar    1  UNL1       -0.0523
     20 C           3.2686    0.8688    0.2571 C.ar    1  UNL1        0.0029
     21 N           4.3614    5.9358    0.3243 N.am    1  UNL1       -0.2676
     22 C           5.2813    6.9352    0.5109 C.2     1  UNL1        0.4012
     23 O           6.4777    6.7424    0.7198 O.2     1  UNL1       -0.2265
     24 O           4.7166    8.1519    0.3799 O.3     1  UNL1       -0.4456
     25 C           5.6434    9.2574    0.4770 C.3     1  UNL1        0.1191
     26 C           4.8988   10.5780    0.4680 C.ar    1  UNL1       -0.0103
     27 C           5.5788   11.7998    0.3215 C.ar    1  UNL1       -0.0554
     28 C           4.8962   13.0133    0.4762 C.ar    1  UNL1       -0.0614
     29 C           3.5193   13.0208    0.6925 C.ar    1  UNL1       -0.0617
     30 C           2.8313   11.8182    0.8069 C.ar    1  UNL1       -0.0614
     31 C           3.5186   10.6108    0.7091 C.ar    1  UNL1       -0.0554
     32 C           7.8500    6.2232   -3.1791 C.ar    1  UNL1       -0.0183
     33 C           8.7618    6.0210   -4.2442 C.ar    1  UNL1       -0.0438
     34 C           9.0325    4.7232   -4.7070 C.ar    1  UNL1        0.0679
     35 C          10.0206    4.3562   -5.7416 C.ar    1  UNL1        0.2348
     36 O          10.6269    5.2354   -6.3433 O.2     1  UNL1       -0.2831
     37 C          10.2616    2.8684   -5.9815 C.ar    1  UNL1        0.2130
     38 O          11.3184    2.5655   -6.8425 O.3     1  UNL1       -0.4488
     39 C          11.5443    1.2703   -7.2436 C.ar    1  UNL1        0.1288
     40 C          12.7546    0.6688   -6.9034 C.ar    1  UNL1       -0.0193
     41 C          12.9873   -0.6629   -7.2596 C.ar    1  UNL1       -0.0583
     42 C          11.9654   -1.4285   -7.8230 C.ar    1  UNL1       -0.0615
     43 C          10.7546   -0.8279   -8.1540 C.ar    1  UNL1       -0.0583
     44 C          10.5850    0.5454   -7.9565 C.ar    1  UNL1       -0.0193
     45 H           8.8048    0.0814   -4.5565 H       1  UNL1        0.0309
     46 H          10.4537    0.0917   -5.1467 H       1  UNL1        0.0309
     47 H           9.0036    0.1355   -6.2509 H       1  UNL1        0.0309
     48 H           7.0360    2.9442   -2.7788 H       1  UNL1        0.0691
     49 H           5.4076    4.3678    1.1620 H       1  UNL1        0.0619
     50 H           2.9025    3.7170    1.0411 H       1  UNL1        0.0337
     51 H           3.0964    3.5743   -0.7024 H       1  UNL1        0.0337
     52 H           6.3021    2.0910    0.7885 H       1  UNL1        0.0810
     53 H           6.1988   -0.3680    0.6469 H       1  UNL1        0.1653
     54 H           4.3026   -2.4146    0.3274 H       1  UNL1        0.0638
     55 H           1.8761   -2.7455   -0.1189 H       1  UNL1        0.0618
     56 H           0.3610   -0.8050   -0.3307 H       1  UNL1        0.0618
     57 H           1.2295    1.5061   -0.1090 H       1  UNL1        0.0624
     58 H           3.3879    6.1896    0.2162 H       1  UNL1        0.1529
     59 H           6.3420    9.2176   -0.3679 H       1  UNL1        0.0749
     60 H           6.1958    9.1906    1.4234 H       1  UNL1        0.0749
     61 H           6.6445   11.8261    0.0998 H       1  UNL1        0.0621
     62 H           5.4368   13.9568    0.4437 H       1  UNL1        0.0618
     63 H           2.9810   13.9612    0.7736 H       1  UNL1        0.0618
     64 H           1.7619   11.8104    0.9951 H       1  UNL1        0.0618
     65 H           2.9633    9.6850    0.8310 H       1  UNL1        0.0621
     66 H           7.6650    7.2247   -2.7983 H       1  UNL1        0.0654
     67 H           9.2584    6.8758   -4.6968 H       1  UNL1        0.0627
     68 H          13.5033    1.2189   -6.3400 H       1  UNL1        0.0654
     69 H          13.9602   -1.1121   -7.0813 H       1  UNL1        0.0619
     70 H          12.1117   -2.4911   -8.0013 H       1  UNL1        0.0618
     71 H           9.9293   -1.4288   -8.5294 H       1  UNL1        0.0619
     72 H           9.6325    1.0071   -8.2059 H       1  UNL1        0.0654
@<TRIPOS>BOND
     1     1     2    1
     2     2     3   ar
     3     3     4   ar
     4     4     5   ar
     5     5     6   ar
     6     6     7    1
     7     7     8    1
     8     8     9    2
     9    11    12    1
    10    12    13   ar
    11    13    14   ar
    12    14    15   ar
    13    15    16   ar
    14    16    17   ar
    15    17    18   ar
    16    18    19   ar
    17    19    20   ar
    18    12    20   ar
    19    15    20   ar
    20    10    21    1
    21    21    22   am
    22    22    23    2
    23    22    24    1
    24    24    25    1
    25    25    26    1
    26    26    27   ar
    27    27    28   ar
    28    28    29   ar
    29    29    30   ar
    30    30    31   ar
    31    26    31   ar
    32     6    32   ar
    33    32    33   ar
    34    33    34   ar
    35     4    34   ar
    36    34    35   ar
    37    35    36    2
    38    35    37   ar
    39     2    37   ar
    40    37    38    1
    41    38    39    1
    42    39    40   ar
    43    40    41   ar
    44    41    42   ar
    45    42    43   ar
    46    43    44   ar
    47    39    44   ar
    48    10    11    1
    49    10     8    1
    50     1    45    1
    51     1    46    1
    52     1    47    1
    53     5    48    1
    54    10    49    1
    55    11    50    1
    56    11    51    1
    57    13    52    1
    58    14    53    1
    59    16    54    1
    60    17    55    1
    61    18    56    1
    62    19    57    1
    63    21    58    1
    64    25    59    1
    65    25    60    1
    66    27    61    1
    67    28    62    1
    68    29    63    1
    69    30    64    1
    70    31    65    1
    71    32    66    1
    72    33    67    1
    73    40    68    1
    74    41    69    1
    75    42    70    1
    76    43    71    1
    77    44    72    1
