@<TRIPOS>MOLECULE
*****
 50 53 0 0 0
SMALL
GASTEIGER

@<TRIPOS>ATOM
      1 O           1.0567    0.1183   -0.0581 O.2     1  UNL1       -0.2701
      2 C           2.2849    0.1175   -0.0046 C.2     1  UNL1        0.2457
      3 N           3.0187    1.2448    0.2855 N.am    1  UNL1       -0.3070
      4 C           2.3679    2.5107    0.5849 C.3     1  UNL1        0.0427
      5 C           3.3221    3.6512    0.8922 C.ar    1  UNL1        0.0333
      6 C           4.6247    3.4391    1.3465 C.ar    1  UNL1       -0.0438
      7 C           5.4577    4.5184    1.6455 C.ar    1  UNL1        0.0267
      8 C           4.9922    5.8314    1.5213 C.ar    1  UNL1        0.2718
      9 N           5.7967    6.9541    1.5705 N.pl3   1  UNL1       -0.2780
     10 C           5.8205    7.8358    2.7519 C.3     1  UNL1        0.0173
     11 C           5.3165    9.2244    2.3340 C.3     1  UNL1       -0.0371
     12 C           6.2909   10.0393    1.4751 C.3     1  UNL1       -0.0516
     13 C           6.8251    9.3116    0.2412 C.3     1  UNL1       -0.0516
     14 C           7.7618    8.1586    0.5948 C.3     1  UNL1       -0.0371
     15 C           7.0439    6.8305    0.8033 C.3     1  UNL1        0.0173
     16 N           3.7274    5.9952    1.1012 N.ar    1  UNL1       -0.1978
     17 C           2.8968    4.9805    0.7908 C.ar    1  UNL1        0.1757
     18 C           3.0867   -1.1130   -0.3136 C.ar    1  UNL1        0.0533
     19 C           2.6932   -1.9827   -1.4254 C.ar    1  UNL1       -0.0448
     20 C           3.3390   -3.1347   -1.6941 C.ar    1  UNL1       -0.0181
     21 C           4.4362   -3.5346   -0.8847 C.ar    1  UNL1        0.1375
     22 N           5.2138   -4.5937   -0.9403 N.ar    1  UNL1       -0.2361
     23 C           6.0996   -4.4511    0.0947 C.ar    1  UNL1        0.0464
     24 C           5.8622   -3.2856    0.7893 C.ar    1  UNL1        0.0293
     25 N           4.7900   -2.6943    0.1656 N.ar    1  UNL1       -0.3059
     26 C           4.1263   -1.4982    0.4591 C.ar    1  UNL1        0.0233
     27 H           4.0162    1.1967    0.1397 H       1  UNL1        0.1493
     28 H           1.7131    2.3550    1.4514 H       1  UNL1        0.0514
     29 H           1.7299    2.7707   -0.2698 H       1  UNL1        0.0514
     30 H           5.0279    2.4354    1.4633 H       1  UNL1        0.0625
     31 H           6.4827    4.3168    1.9460 H       1  UNL1        0.0698
     32 H           6.8332    7.9210    3.1718 H       1  UNL1        0.0465
     33 H           5.1894    7.4502    3.5620 H       1  UNL1        0.0465
     34 H           5.0911    9.8148    3.2308 H       1  UNL1        0.0280
     35 H           4.3747    9.1143    1.7835 H       1  UNL1        0.0280
     36 H           7.1319   10.3831    2.0914 H       1  UNL1        0.0266
     37 H           5.7724   10.9466    1.1391 H       1  UNL1        0.0266
     38 H           7.3886   10.0347   -0.3598 H       1  UNL1        0.0266
     39 H           5.9926    8.9638   -0.3816 H       1  UNL1        0.0266
     40 H           8.3616    8.4089    1.4786 H       1  UNL1        0.0280
     41 H           8.4764    8.0144   -0.2239 H       1  UNL1        0.0280
     42 H           7.7362    6.1223    1.2746 H       1  UNL1        0.0465
     43 H           6.7898    6.4351   -0.1890 H       1  UNL1        0.0465
     44 H           3.4384    6.9594    0.9531 H       1  UNL1        0.4542
     45 H           1.9077    5.2641    0.4423 H       1  UNL1        0.1379
     46 H           1.8476   -1.6786   -2.0371 H       1  UNL1        0.0627
     47 H           3.0448   -3.7825   -2.5131 H       1  UNL1        0.0654
     48 H           6.8634   -5.1971    0.2810 H       1  UNL1        0.0845
     49 H           6.3549   -2.8520    1.6466 H       1  UNL1        0.0829
     50 H           4.4690   -0.9544    1.3287 H       1  UNL1        0.0821
@<TRIPOS>UNITY_ATOM_ATTR
16 1
charge 1
@<TRIPOS>BOND
     1     1     2    2
     2     2     3   am
     3     3     4    1
     4     4     5    1
     5     5     6   ar
     6     6     7   ar
     7     7     8   ar
     8     8     9    1
     9     9    10    1
    10    10    11    1
    11    11    12    1
    12    12    13    1
    13    13    14    1
    14    14    15    1
    15     9    15    1
    16     8    16   ar
    17    16    17   ar
    18     5    17   ar
    19     2    18    1
    20    18    19   ar
    21    19    20   ar
    22    20    21   ar
    23    21    22   ar
    24    22    23   ar
    25    23    24   ar
    26    24    25   ar
    27    21    25   ar
    28    25    26   ar
    29    18    26   ar
    30     3    27    1
    31     4    28    1
    32     4    29    1
    33     6    30    1
    34     7    31    1
    35    10    32    1
    36    10    33    1
    37    11    34    1
    38    11    35    1
    39    12    36    1
    40    12    37    1
    41    13    38    1
    42    13    39    1
    43    14    40    1
    44    14    41    1
    45    15    42    1
    46    15    43    1
    47    16    44    1
    48    17    45    1
    49    19    46    1
    50    20    47    1
    51    23    48    1
    52    24    49    1
    53    26    50    1
