@<TRIPOS>MOLECULE
*****
 64 67 0 0 0
SMALL
GASTEIGER

@<TRIPOS>ATOM
      1 C           0.7695   -1.2684    0.1957 C.3     1  UNL1        0.0790
      2 O           2.2357   -1.6537    0.0916 O.3     1  UNL1       -0.4917
      3 C           3.1653   -1.3036   -1.0140 C.ar    1  UNL1        0.1583
      4 C           4.4267   -1.8461   -0.6946 C.ar    1  UNL1       -0.0165
      5 C           5.1992   -2.2858   -1.7436 C.ar    1  UNL1       -0.0581
      6 C           4.7220   -2.0995   -3.0571 C.ar    1  UNL1       -0.0583
      7 C           3.6172   -1.2418   -3.3750 C.ar    1  UNL1       -0.0196
      8 C           2.8377   -0.6877   -2.3344 C.ar    1  UNL1        0.1415
      9 N           1.8631    0.4828   -2.6574 N.pl3   1  UNL1       -0.2417
     10 C           1.2649    1.6176   -1.7979 C.2     1  UNL1        0.3843
     11 N           1.6161    2.1818   -0.5623 N.am    1  UNL1        0.0006
     12 C           2.3062    1.2536    0.2009 C.2     1  UNL1        0.3406
     13 O           2.0648    0.3437   -0.3444 O.2     1  UNL1       -0.2484
     14 C           2.7246    0.7704    1.6950 C.ar    1  UNL1        0.0579
     15 C           4.0505    0.3537    1.9548 C.ar    1  UNL1       -0.0480
     16 C           4.4271   -0.2889    3.1784 C.ar    1  UNL1       -0.0592
     17 C           3.4918   -0.6107    4.1720 C.ar    1  UNL1       -0.0406
     18 C           2.1377   -0.5233    3.8940 C.ar    1  UNL1        0.0300
     19 N           1.1358   -1.0531    4.7127 N.pl3   1  UNL1       -0.3360
     20 C           1.4070   -1.3895    6.1146 C.3     1  UNL1        0.0004
     21 C          -0.2923   -1.1314    4.3523 C.3     1  UNL1        0.0004
     22 C           1.8385    0.1415    2.6614 C.ar    1  UNL1       -0.0270
     23 N          -0.1057    1.8426   -2.1008 N.pl3   1  UNL1       -0.2767
     24 C          -0.9922    2.3219   -1.0237 C.3     1  UNL1        0.0684
     25 C          -2.1845    3.0631   -1.5655 C.3     1  UNL1        0.0059
     26 C          -3.0685    3.7700   -0.5812 C.2     1  UNL1        0.0106
     27 C          -4.0865    4.4907   -1.0462 C.ar    1  UNL1        0.0510
     28 C          -4.4995    4.7125   -2.3825 C.ar    1  UNL1       -0.0482
     29 C          -5.4411    5.6293   -2.6081 C.ar    1  UNL1       -0.0608
     30 C          -6.1515    6.2542   -1.5056 C.ar    1  UNL1       -0.0555
     31 C          -5.8529    6.0481   -0.2028 C.ar    1  UNL1        0.0098
     32 C          -4.7356    5.1198    0.1024 C.ar    1  UNL1        0.2086
     33 N          -4.1988    4.7395    1.2018 N.2     1  UNL1       -0.2369
     34 C          -3.0094    3.8498    0.9196 C.3     1  UNL1        0.1661
     35 H           0.5156   -0.4109    0.8641 H       1  UNL1        0.0660
     36 H           0.2316   -2.1503    0.4829 H       1  UNL1        0.0660
     37 H           0.2827   -0.8213   -0.6722 H       1  UNL1        0.0660
     38 H           4.6867   -2.0820    0.3400 H       1  UNL1        0.0655
     39 H           6.0762   -2.8956   -1.5244 H       1  UNL1        0.0619
     40 H           5.2140   -2.6751   -3.8411 H       1  UNL1        0.0619
     41 H           3.3501   -1.1325   -4.4277 H       1  UNL1        0.0653
     42 H           1.4202    0.2822   -3.5567 H       1  UNL1        0.2648
     43 H           4.8346    0.4431    1.2045 H       1  UNL1        0.0626
     44 H           5.4636   -0.5732    3.3743 H       1  UNL1        0.0618
     45 H           3.8734   -0.9717    5.1233 H       1  UNL1        0.0636
     46 H           2.4569   -1.3522    6.4012 H       1  UNL1        0.0428
     47 H           1.0605   -2.4047    6.3402 H       1  UNL1        0.0428
     48 H           0.8840   -0.6860    6.7730 H       1  UNL1        0.0428
     49 H          -0.5438   -0.9409    3.3066 H       1  UNL1        0.0428
     50 H          -0.8764   -0.4146    4.9422 H       1  UNL1        0.0428
     51 H          -0.6841   -2.1390    4.5420 H       1  UNL1        0.0428
     52 H           0.7979    0.0254    2.4613 H       1  UNL1        0.0644
     53 H          -0.5080    1.6976   -3.0236 H       1  UNL1        0.2577
     54 H          -0.4514    3.0411   -0.4058 H       1  UNL1        0.0658
     55 H          -1.3421    1.5168   -0.3603 H       1  UNL1        0.0658
     56 H          -2.8096    2.3658   -2.1380 H       1  UNL1        0.0343
     57 H          -1.8074    3.8125   -2.2767 H       1  UNL1        0.0343
     58 H          -4.0097    4.1781   -3.1875 H       1  UNL1        0.0626
     59 H          -5.6772    5.9021   -3.6324 H       1  UNL1        0.0618
     60 H          -6.9819    6.8901   -1.8092 H       1  UNL1        0.0620
     61 H          -6.4183    6.5537    0.5711 H       1  UNL1        0.0683
     62 H          -4.5822    5.0186    2.1059 H       1  UNL1        0.4459
     63 H          -3.1532    2.8755    1.3971 H       1  UNL1        0.1077
     64 H          -2.1006    4.3339    1.2975 H       1  UNL1        0.1077
@<TRIPOS>UNITY_ATOM_ATTR
33 1
charge 1
@<TRIPOS>BOND
     1     1     2    1
     2     2     3    1
     3     3     4   ar
     4     4     5   ar
     5     5     6   ar
     6     6     7   ar
     7     7     8   ar
     8     3     8   ar
     9     8     9    1
    10     9    10    1
    11    10    11    2
    12    11    12    1
    13    12    13    2
    14    12    14    1
    15    14    15   ar
    16    15    16   ar
    17    16    17   ar
    18    17    18   ar
    19    18    19    1
    20    19    20    1
    21    19    21    1
    22    18    22   ar
    23    14    22   ar
    24    10    23    1
    25    23    24    1
    26    24    25    1
    27    25    26    1
    28    26    27    2
    29    27    28   ar
    30    28    29   ar
    31    29    30   ar
    32    30    31   ar
    33    31    32   ar
    34    27    32   ar
    35    32    33    2
    36    33    34    1
    37    26    34    1
    38     1    35    1
    39     1    36    1
    40     1    37    1
    41     4    38    1
    42     5    39    1
    43     6    40    1
    44     7    41    1
    45     9    42    1
    46    15    43    1
    47    16    44    1
    48    17    45    1
    49    20    46    1
    50    20    47    1
    51    20    48    1
    52    21    49    1
    53    21    50    1
    54    21    51    1
    55    22    52    1
    56    23    53    1
    57    24    54    1
    58    24    55    1
    59    25    56    1
    60    25    57    1
    61    28    58    1
    62    29    59    1
    63    30    60    1
    64    31    61    1
    65    33    62    1
    66    34    63    1
    67    34    64    1
