REMARK  5 active torsions:
REMARK  status: ('A' for Active; 'I' for Inactive)
REMARK    1  A    between atoms: C_5  and  N_6 
REMARK       I    between atoms: N_6  and  C_7 
REMARK       I    between atoms: C_7  and  N_9 
REMARK    2  A    between atoms: N_9  and  C_10 
REMARK    3  A    between atoms: C_12  and  N_13 
REMARK       I    between atoms: N_13  and  C_14 
REMARK    4  A    between atoms: C_14  and  C_16 
REMARK    5  A    between atoms: C_25  and  N_26 
ROOT
ATOM      1  C   UNL d   1       1.674  -6.222  -0.157  0.00  0.00     0.065 A 
ATOM      2  C   UNL d   1       2.421  -7.189   0.588  0.00  0.00     0.061 A 
ATOM      3  C   UNL d   1       2.164  -8.573   0.450  0.00  0.00     0.037 A 
ATOM      4  C   UNL d   1       1.075  -8.944  -0.333  0.00  0.00     0.032 A 
ATOM      5  C   UNL d   1       0.341  -8.014  -1.060  0.00  0.00     0.034 A 
ATOM      6  C   UNL d   1       0.626  -6.648  -1.024  0.00  0.00     0.057 A 
ENDROOT
BRANCH   1   7
ATOM      7  N   UNL d   1       2.002  -4.819  -0.039  0.00  0.00    -0.306 N 
ATOM      8  C   UNL d   1       0.994  -3.908   0.247  0.00  0.00     0.325 C 
ATOM      9  N   UNL d   1       1.316  -2.561   0.082  0.00  0.00    -0.307 N 
ATOM     10  O   UNL d   1      -0.124  -4.290   0.600  0.00  0.00    -0.247 OA
ATOM     11  H   UNL d   1       2.283  -2.282  -0.031  0.00  0.00     0.170 HD
ATOM     12  H   UNL d   1       2.955  -4.573   0.177  0.00  0.00     0.170 HD
BRANCH   9  13
ATOM     13  C   UNL d   1       0.336  -1.492   0.096  0.00  0.00     0.058 A 
ATOM     14  C   UNL d   1      -1.046  -1.758   0.097  0.00  0.00     0.032 A 
ATOM     15  C   UNL d   1      -2.019  -0.760   0.047  0.00  0.00     0.009 A 
ATOM     16  C   UNL d   1      -1.646   0.573   0.020  0.00  0.00    -0.060 A 
ATOM     17  C   UNL d   1      -2.698   1.640  -0.032  0.00  0.00     0.048 C 
ATOM     18  C   UNL d   1      -0.278   0.881   0.031  0.00  0.00     0.033 A 
ATOM     19  C   UNL d   1       0.703  -0.138   0.047  0.00  0.00     0.061 A 
ATOM     20 CL   UNL d   1       2.363   0.342   0.004  0.00  0.00    -0.082 Cl
ENDBRANCH   9  13
ENDBRANCH   1   7
BRANCH   6  21
ATOM     21  N   UNL d   1      -0.083  -5.860  -1.911  0.00  0.00    -0.379 N 
ATOM     22  C   UNL d   1       0.518  -4.873  -2.782  0.00  0.00     0.123 C 
ATOM     23  C   UNL d   1      -0.425  -3.689  -2.694  0.00  0.00     0.021 C 
ATOM     24  C   UNL d   1      -1.793  -4.312  -2.471  0.00  0.00     0.021 C 
ATOM     25  C   UNL d   1      -1.522  -5.640  -1.747  0.00  0.00     0.123 C 
ENDBRANCH   6  21
BRANCH   3  26
ATOM     26  N   UNL d   1       3.016  -9.572   1.033  0.00  0.00    -0.323 N 
ATOM     27  C   UNL d   1       2.941 -10.935   0.729  0.00  0.00     0.256 C 
ATOM     28  O   UNL d   1       2.113 -11.485  -0.006  0.00  0.00    -0.267 OA
ATOM     29  H   UNL d   1       3.814  -9.245   1.564  0.00  0.00     0.169 HD
BRANCH  27  30
ATOM     30  C   UNL d   1       3.930 -11.877   1.304  0.00  0.00     0.032 A 
ATOM     31  C   UNL d   1       4.298 -12.995   0.523  0.00  0.00     0.020 A 
ATOM     32  C   UNL d   1       5.003 -14.056   1.088  0.00  0.00     0.043 A 
ATOM     33  C   UNL d   1       5.402 -13.966   2.414  0.00  0.00     0.116 A 
ATOM     34  F   UNL d   1       6.120 -14.959   2.953  0.00  0.00    -0.206 F 
ATOM     35  C   UNL d   1       5.064 -12.859   3.193  0.00  0.00     0.043 A 
ATOM     36  C   UNL d   1       4.316 -11.811   2.643  0.00  0.00     0.020 A 
ENDBRANCH  27  30
ENDBRANCH   3  26
TORSDOF 5
