@<TRIPOS>MOLECULE
*****
 34 35 0 0 0
SMALL
GASTEIGER

@<TRIPOS>ATOM
      1 C           0.9831    0.0322   -0.7121 C.3     1  UNL1        0.0789
      2 O           2.3823    0.0276   -0.4581 O.3     1  UNL1       -0.4933
      3 C           3.0153    1.2045   -0.1678 C.ar    1  UNL1        0.1412
      4 C           4.1959    1.3694   -0.9062 C.ar    1  UNL1       -0.0174
      5 C           5.0090    2.4922   -0.7511 C.ar    1  UNL1       -0.0461
      6 C           4.6065    3.5318    0.0846 C.ar    1  UNL1        0.0385
      7 C           5.3641    4.8241    0.1310 C.2     1  UNL1        0.2416
      8 N           6.4674    4.9787   -0.6677 N.am    1  UNL1       -0.3253
      9 O           4.9909    5.7592    0.8432 O.2     1  UNL1       -0.2704
     10 C           3.4391    3.3580    0.8640 C.ar    1  UNL1       -0.0248
     11 C           2.6662    2.1711    0.7926 C.ar    1  UNL1        0.0765
     12 N           1.5653    2.0534    1.6867 N.am    1  UNL1       -0.2785
     13 C           0.9869    0.8618    2.0820 C.2     1  UNL1        0.2498
     14 O           1.5884   -0.2132    2.0944 O.2     1  UNL1       -0.2698
     15 C          -0.4666    0.8366    2.4643 C.ar    1  UNL1        0.0567
     16 C          -0.9267   -0.4268    2.9031 C.ar    1  UNL1       -0.0481
     17 C          -2.2291   -0.6217    3.3457 C.ar    1  UNL1       -0.0596
     18 C          -3.0953    0.4592    3.3845 C.ar    1  UNL1       -0.0419
     19 C          -2.7016    1.6921    2.8518 C.ar    1  UNL1        0.0600
     20 CL         -3.8940    2.9499    2.8576 Cl      1  UNL1       -0.0820
     21 C          -1.3961    1.8856    2.3535 C.ar    1  UNL1        0.0713
     22 CL         -1.0084    3.3948    1.5861 Cl      1  UNL1       -0.0813
     23 H           0.6382   -1.0039   -0.6127 H       1  UNL1        0.0660
     24 H           0.7645    0.4097   -1.7093 H       1  UNL1        0.0660
     25 H           0.3714    0.6215   -0.0391 H       1  UNL1        0.0660
     26 H           4.4821    0.6087   -1.6293 H       1  UNL1        0.0655
     27 H           5.9380    2.5231   -1.3067 H       1  UNL1        0.0626
     28 H           6.8285    4.2919   -1.3123 H       1  UNL1        0.1453
     29 H           6.9330    5.8782   -0.6600 H       1  UNL1        0.1453
     30 H           3.1653    4.1470    1.5642 H       1  UNL1        0.0645
     31 H           1.2009    2.9123    2.0830 H       1  UNL1        0.1552
     32 H          -0.2523   -1.2849    2.9107 H       1  UNL1        0.0625
     33 H          -2.5472   -1.6065    3.6803 H       1  UNL1        0.0618
     34 H          -4.0797    0.3340    3.8288 H       1  UNL1        0.0633
@<TRIPOS>BOND
     1     1     2    1
     2     2     3    1
     3     3     4   ar
     4     4     5   ar
     5     5     6   ar
     6     6     7    1
     7     7     8   am
     8     7     9    2
     9     6    10   ar
    10    10    11   ar
    11     3    11   ar
    12    11    12    1
    13    12    13   am
    14    13    14    2
    15    13    15    1
    16    15    16   ar
    17    16    17   ar
    18    17    18   ar
    19    18    19   ar
    20    19    20    1
    21    19    21   ar
    22    15    21   ar
    23    21    22    1
    24     1    23    1
    25     1    24    1
    26     1    25    1
    27     4    26    1
    28     5    27    1
    29     8    28    1
    30     8    29    1
    31    10    30    1
    32    12    31    1
    33    16    32    1
    34    17    33    1
    35    18    34    1
