REMARK  9 active torsions:
REMARK  status: ('A' for Active; 'I' for Inactive)
REMARK    1  A    between atoms: CG_2  and  CB_4 
REMARK    2  A    between atoms: CA_5  and  CB_4 
REMARK    3  A    between atoms: CA_5  and  C_32 
REMARK    4  A    between atoms: CA_5  and  N_6 
REMARK       I    between atoms: N_6  and  C_7 
REMARK    5  A    between atoms: C_9  and  C_7 
REMARK    6  A    between atoms: C_9  and  N_20 
REMARK    7  A    between atoms: C_9  and  C_10 
REMARK    8  A    between atoms: C_10  and  C_11 
REMARK    9  A    between atoms: C_30  and  O_31 
ROOT
ATOM      1  C   UNK d   0      10.201   0.051  -1.686  0.00  0.00     0.188 C 
ENDROOT
BRANCH   1   2
ATOM      2  N   UNK d   0       9.730  -0.503  -3.003  0.00  0.00    -0.290 N 
ATOM      3  C   UNK d   0      10.247  -0.048  -4.208  0.00  0.00     0.260 C 
ATOM      4  O   UNK d   0      11.451   0.074  -4.458  0.00  0.00    -0.267 OA
ATOM      5  C   UNK d   0       9.229   0.306  -5.235  0.00  0.00     0.058 A 
ATOM      6  C   UNK d   0       9.581   1.062  -6.359  0.00  0.00     0.019 A 
ATOM      7  C   UNK d   0       7.891  -0.053  -4.983  0.00  0.00     0.047 A 
ATOM      8  C   UNK d   0       8.595   1.465  -7.258  0.00  0.00     0.001 A 
ATOM      9  C   UNK d   0       7.266   1.102  -7.035  0.00  0.00     0.002 A 
ATOM     10  C   UNK d   0       6.915   0.352  -5.902  0.00  0.00     0.030 A 
ATOM     11  N   UNK d   0       7.561  -0.706  -3.790  0.00  0.00    -0.346 N 
ATOM     12  C   UNK d   0       8.641  -1.418  -3.177  0.00  0.00     0.332 C 
ATOM     13  H   UNK d   0       6.619  -1.029  -3.634  0.00  0.00     0.164 HD
BRANCH  12  14
ATOM     14  O   UNK d   0       8.201  -1.995  -1.982  0.00  0.00    -0.359 OA
ATOM     15  H   UNK d   0       7.830  -1.257  -1.482  0.00  0.00     0.214 HD
ENDBRANCH  12  14
ENDBRANCH   1   2
BRANCH   1  16
ATOM     16  C   UNK d   0      11.724  -0.060  -1.478  0.00  0.00     0.076 C 
BRANCH  16  17
ATOM     17  C   UNK d   0      12.193   0.548  -0.184  0.00  0.00    -0.028 C 
ATOM     18  C   UNK d   0      11.444   0.839   0.931  0.00  0.00     0.096 C 
ATOM     19  N   UNK d   0      12.136   1.714   1.718  0.00  0.00    -0.365 N 
ATOM     20  C   UNK d   0      13.455   1.630   1.379  0.00  0.00     0.042 A 
ATOM     21  H   UNK d   0      11.690   2.288   2.436  0.00  0.00     0.165 HD
ATOM     22  C   UNK d   0      14.575   2.123   2.038  0.00  0.00     0.030 A 
ATOM     23  C   UNK d   0      13.515   0.933   0.167  0.00  0.00    -0.002 A 
ATOM     24  C   UNK d   0      15.807   1.866   1.439  0.00  0.00     0.002 A 
ATOM     25  C   UNK d   0      15.901   1.182   0.224  0.00  0.00     0.001 A 
ATOM     26  C   UNK d   0      14.760   0.729  -0.438  0.00  0.00     0.014 A 
ENDBRANCH  16  17
ENDBRANCH   1  16
BRANCH   1  27
ATOM     27  C   UNK d   0       9.886   1.584  -1.528  0.00  0.00     0.241 C 
ATOM     28  N   LEU d   1       9.213   1.980  -0.375  0.00  0.00    -0.345 N 
ATOM     29  H   LEU d   1       8.958   1.336   0.355  0.00  0.00     0.163 HD
ATOM     30  O   UNK d   0      10.199   2.384  -2.413  0.00  0.00    -0.271 OA
BRANCH  28  31
ATOM     31  CA  LEU d   1       8.831   3.376  -0.034  0.00  0.00     0.185 C 
BRANCH  31  32
ATOM     32  C   LEU d   1       9.303   3.946   1.365  0.00  0.00     0.196 C 
ATOM     33  O   LEU d   1       9.883   3.131   2.146  0.00  0.00    -0.646 OA
ATOM     34  OXT LEU d   1       9.012   5.159   1.585  0.00  0.00    -0.646 OA
ENDBRANCH  31  32
BRANCH  31  35
ATOM     35  CB  LEU d   1       7.293   3.403  -0.014  0.00  0.00     0.040 C 
BRANCH  35  36
ATOM     36  CG  LEU d   1       6.683   3.328  -1.429  0.00  0.00    -0.020 C 
ATOM     37  CD1 LEU d   1       7.003   2.057  -2.199  0.00  0.00     0.009 C 
ATOM     38  CD2 LEU d   1       5.170   3.382  -1.375  0.00  0.00     0.009 C 
ENDBRANCH  35  36
ENDBRANCH  31  35
ENDBRANCH  28  31
ENDBRANCH   1  27
TORSDOF 9
