@<TRIPOS>MOLECULE
*****
 45 46 0 0 0
SMALL
GASTEIGER

@<TRIPOS>ATOM
      1 C           2.4778   -0.0072   -0.0127 C.3     1  UNL1       -0.0397
      2 C           0.9776   -0.0060    0.0022 C.ar    1  UNL1       -0.0502
      3 C           0.2415   -1.1950    0.0038 C.ar    1  UNL1       -0.0554
      4 C          -1.1620   -1.1617   -0.0021 C.ar    1  UNL1       -0.0197
      5 C          -1.8505    0.0574   -0.0101 C.ar    1  UNL1        0.1205
      6 O          -3.2242   -0.0127   -0.0308 O.3     1  UNL1       -0.4920
      7 C          -3.9304    1.2412   -0.0542 C.3     1  UNL1        0.0900
      8 C          -5.4446    0.9915   -0.0883 C.3     1  UNL1       -0.0103
      9 C          -6.2891    2.2873   -0.1063 C.3     1  UNL1        0.0285
     10 C          -7.8035    2.0004   -0.1379 C.2     1  UNL1        0.2292
     11 O          -8.2566    0.8546   -0.1486 O.2     1  UNL1       -0.2743
     12 N          -8.6412    3.1097   -0.1537 N.am    1  UNL1       -0.2332
     13 N         -10.0657    2.9194   -0.1822 N.am    1  UNL1       -0.2182
     14 C         -10.9092    4.0177   -0.2075 C.2     1  UNL1        0.3160
     15 O         -10.4780    5.1725   -0.1989 O.2     1  UNL1       -0.2513
     16 N         -12.2578    3.7187   -0.2462 N.am    1  UNL1       -0.2980
     17 C         -13.2573    4.7777   -0.2936 C.3     1  UNL1        0.0159
     18 C         -14.6808    4.2811   -0.3088 C.3     1  UNL1       -0.0254
     19 C         -15.4955    4.4770   -1.5751 C.3     1  UNL1       -0.0485
     20 C         -15.1809    3.0912   -1.0974 C.3     1  UNL1       -0.0485
     21 C          -1.1102    1.2400    0.0000 C.ar    1  UNL1       -0.0197
     22 C           0.2883    1.2095    0.0046 C.ar    1  UNL1       -0.0554
     23 H           2.8825   -1.0240    0.0006 H       1  UNL1        0.0278
     24 H           2.8656    0.5215    0.8645 H       1  UNL1        0.0278
     25 H           2.8437    0.4890   -0.9180 H       1  UNL1        0.0278
     26 H           0.7533   -2.1556    0.0054 H       1  UNL1        0.0621
     27 H          -1.7128   -2.0996   -0.0037 H       1  UNL1        0.0654
     28 H          -3.6410    1.8049   -0.9491 H       1  UNL1        0.0696
     29 H          -3.6823    1.8115    0.8486 H       1  UNL1        0.0696
     30 H          -5.7190    0.3783    0.7790 H       1  UNL1        0.0302
     31 H          -5.6804    0.3792   -0.9678 H       1  UNL1        0.0302
     32 H          -6.0197    2.8821   -0.9874 H       1  UNL1        0.0360
     33 H          -6.0571    2.8818    0.7856 H       1  UNL1        0.0360
     34 H          -8.3224    4.0773   -0.1482 H       1  UNL1        0.1728
     35 H         -10.3868    1.9557   -0.1949 H       1  UNL1        0.1744
     36 H         -12.5712    2.7610   -0.2240 H       1  UNL1        0.1503
     37 H         -13.0584    5.4075   -1.1686 H       1  UNL1        0.0465
     38 H         -13.1174    5.4157    0.5882 H       1  UNL1        0.0465
     39 H         -15.1774    4.4731    0.6392 H       1  UNL1        0.0316
     40 H         -14.9983    4.8109   -2.4809 H       1  UNL1        0.0269
     41 H         -16.5145    4.8422   -1.4926 H       1  UNL1        0.0269
     42 H         -14.4801    2.5034   -1.6748 H       1  UNL1        0.0269
     43 H         -16.0004    2.5117   -0.6808 H       1  UNL1        0.0269
     44 H          -1.5881    2.2121    0.0014 H       1  UNL1        0.0654
     45 H           0.8364    2.1490    0.0058 H       1  UNL1        0.0621
@<TRIPOS>BOND
     1     1     2    1
     2     2     3   ar
     3     3     4   ar
     4     4     5   ar
     5     5     6    1
     6     6     7    1
     7     7     8    1
     8     8     9    1
     9     9    10    1
    10    10    11    2
    11    10    12   am
    12    12    13    1
    13    13    14   am
    14    14    15    2
    15    14    16   am
    16    16    17    1
    17    17    18    1
    18    18    19    1
    19    19    20    1
    20    18    20    1
    21     5    21   ar
    22    21    22   ar
    23     2    22   ar
    24     1    23    1
    25     1    24    1
    26     1    25    1
    27     3    26    1
    28     4    27    1
    29     7    28    1
    30     7    29    1
    31     8    30    1
    32     8    31    1
    33     9    32    1
    34     9    33    1
    35    12    34    1
    36    13    35    1
    37    16    36    1
    38    17    37    1
    39    17    38    1
    40    18    39    1
    41    19    40    1
    42    19    41    1
    43    20    42    1
    44    20    43    1
    45    21    44    1
    46    22    45    1
