@<TRIPOS>MOLECULE
*****
 83 85 0 0 0
SMALL
GASTEIGER

@<TRIPOS>ATOM
      1 C           0.8931   -0.0054    0.0723 C.3     1  UNL1       -0.0253
      2 C           2.4159   -0.0479    0.0489 C.3     1  UNL1        0.1068
      3 C           2.9092    1.2818   -0.6029 C.3     1  UNL1       -0.0253
      4 C           2.8930   -0.0930    1.5358 C.3     1  UNL1       -0.0253
      5 O           2.7717   -1.2771   -0.7246 O.3     1  UNL1       -0.4447
      6 C           4.1272   -1.4310   -0.7577 C.2     1  UNL1        0.4011
      7 O           4.7800   -0.5566   -0.2976 O.2     1  UNL1       -0.2265
      8 N           4.7040   -2.5664   -1.2925 N.am    1  UNL1       -0.2754
      9 C           6.2349   -2.7242   -1.3836 C.3     1  UNL1        0.0573
     10 C           6.9822   -2.8249   -0.1027 C.3     1  UNL1       -0.0066
     11 C           7.0816   -1.5293    0.6092 C.ar    1  UNL1       -0.0455
     12 C           7.0618   -0.2697   -0.0356 C.ar    1  UNL1       -0.0585
     13 C           6.8686    0.8820    0.7085 C.ar    1  UNL1       -0.0615
     14 C           6.8974    0.7871    2.0892 C.ar    1  UNL1       -0.0617
     15 C           7.0958   -0.4463    2.7186 C.ar    1  UNL1       -0.0615
     16 C           7.1343   -1.6135    1.9852 C.ar    1  UNL1       -0.0585
     17 C           6.6133   -3.9606   -2.1700 C.3     1  UNL1        0.0881
     18 O           6.0300   -3.4095   -3.2876 O.3     1  UNL1       -0.3886
     19 C           8.0727   -4.2581   -2.5855 C.3     1  UNL1        0.0449
     20 N           8.2206   -5.4071   -3.5297 N.3     1  UNL1       -0.2176
     21 C           7.5909   -5.2241   -4.9121 C.3     1  UNL1        0.0419
     22 C           6.0573   -5.1396   -5.0612 C.ar    1  UNL1       -0.0317
     23 C           5.4033   -3.9244   -5.3947 C.ar    1  UNL1       -0.0567
     24 C           4.1283   -3.6812   -4.8318 C.ar    1  UNL1       -0.0523
     25 C           3.3461   -4.7209   -4.3224 C.ar    1  UNL1        0.0004
     26 C           1.9518   -4.4544   -3.9685 C.ar    1  UNL1        0.0710
     27 C           1.3113   -4.9645   -2.8451 C.ar    1  UNL1       -0.0357
     28 C          -0.0619   -4.7604   -2.7185 C.ar    1  UNL1       -0.0583
     29 C          -0.7446   -4.0471   -3.6994 C.ar    1  UNL1       -0.0436
     30 C          -0.0236   -3.5383   -4.7603 C.ar    1  UNL1        0.0283
     31 N           1.2985   -3.7181   -4.9046 N.ar    1  UNL1       -0.2550
     32 C           3.9187   -5.9991   -4.2824 C.ar    1  UNL1       -0.0523
     33 C           5.2687   -6.2017   -4.6085 C.ar    1  UNL1       -0.0567
     34 N           9.6579   -5.7059   -3.6767 N.am    1  UNL1       -0.2132
     35 C          10.0661   -6.8630   -4.3224 C.2     1  UNL1        0.4148
     36 O           9.2773   -7.6771   -4.7852 O.2     1  UNL1       -0.2251
     37 O          11.4324   -6.9756   -4.4253 O.3     1  UNL1       -0.4438
     38 C          11.9398   -8.1291   -5.1762 C.3     1  UNL1        0.1068
     39 C          11.5036   -9.4497   -4.5231 C.3     1  UNL1       -0.0253
     40 C          11.4962   -8.0660   -6.6471 C.3     1  UNL1       -0.0253
     41 C          13.4830   -8.1064   -5.1666 C.3     1  UNL1       -0.0253
     42 H           0.5317    0.8630    0.6353 H       1  UNL1        0.0268
     43 H           0.5001   -0.9141    0.5366 H       1  UNL1        0.0268
     44 H           0.5001    0.0454   -0.9466 H       1  UNL1        0.0268
     45 H           2.5444    2.1529   -0.0450 H       1  UNL1        0.0268
     46 H           2.5867    1.3580   -1.6444 H       1  UNL1        0.0268
     47 H           3.9975    1.4041   -0.6179 H       1  UNL1        0.0268
     48 H           2.5166    0.7695    2.0984 H       1  UNL1        0.0268
     49 H           3.9789   -0.0487    1.6649 H       1  UNL1        0.0268
     50 H           2.5730   -1.0160    2.0267 H       1  UNL1        0.0268
     51 H           4.1538   -3.1098   -1.9453 H       1  UNL1        0.1524
     52 H           6.5942   -1.8634   -1.9754 H       1  UNL1        0.0528
     53 H           8.0238   -3.0986   -0.2826 H       1  UNL1        0.0332
     54 H           6.5127   -3.6333    0.4707 H       1  UNL1        0.0332
     55 H           6.8317   -0.1715   -1.1025 H       1  UNL1        0.0620
     56 H           6.5687    1.7962    0.2004 H       1  UNL1        0.0618
     57 H           6.7298    1.6768    2.6796 H       1  UNL1        0.0618
     58 H           7.1910   -0.5113    3.7921 H       1  UNL1        0.0618
     59 H           7.1676   -2.5908    2.4594 H       1  UNL1        0.0620
     60 H           6.0969   -4.8612   -1.8114 H       1  UNL1        0.0625
     61 H           6.6660   -2.8319   -3.7354 H       1  UNL1        0.2099
     62 H           8.6670   -4.4663   -1.6873 H       1  UNL1        0.0469
     63 H           8.5176   -3.3739   -3.0627 H       1  UNL1        0.0469
     64 H           7.8339   -6.1043   -5.5093 H       1  UNL1        0.0492
     65 H           8.0767   -4.3693   -5.3929 H       1  UNL1        0.0492
     66 H           5.9915   -3.0385   -5.6500 H       1  UNL1        0.0621
     67 H           3.8598   -2.6579   -4.5249 H       1  UNL1        0.0624
     68 H           1.8566   -5.5203   -2.0897 H       1  UNL1        0.0639
     69 H          -0.6005   -5.1682   -1.8683 H       1  UNL1        0.0619
     70 H          -1.8140   -3.8874   -3.6421 H       1  UNL1        0.0633
     71 H          -0.4953   -2.9690   -5.5545 H       1  UNL1        0.0830
     72 H           3.3261   -6.8482   -3.9580 H       1  UNL1        0.0624
     73 H           5.7234   -7.1760   -4.4548 H       1  UNL1        0.0621
     74 H          10.3609   -5.1158   -3.2419 H       1  UNL1        0.1726
     75 H          10.4192   -9.5664   -4.4940 H       1  UNL1        0.0268
     76 H          11.8489   -9.5000   -3.4852 H       1  UNL1        0.0268
     77 H          11.8944  -10.3124   -5.0715 H       1  UNL1        0.0268
     78 H          10.4099   -8.0798   -6.7560 H       1  UNL1        0.0268
     79 H          11.8840   -8.9186   -7.2149 H       1  UNL1        0.0268
     80 H          11.8449   -7.1415   -7.1200 H       1  UNL1        0.0268
     81 H          13.8816   -8.1533   -4.1478 H       1  UNL1        0.0268
     82 H          13.8791   -7.1953   -5.6272 H       1  UNL1        0.0268
     83 H          13.8895   -8.9635   -5.7226 H       1  UNL1        0.0268
@<TRIPOS>BOND
     1     1     2    1
     2     2     3    1
     3     2     4    1
     4     2     5    1
     5     5     6    1
     6     6     7    2
     7     6     8   am
     8     8     9    1
     9     9    10    1
    10    10    11    1
    11    11    12   ar
    12    12    13   ar
    13    13    14   ar
    14    14    15   ar
    15    15    16   ar
    16    11    16   ar
    17     9    17    1
    18    17    18    1
    19    17    19    1
    20    19    20    1
    21    20    21    1
    22    21    22    1
    23    22    23   ar
    24    23    24   ar
    25    24    25   ar
    26    25    26    1
    27    26    27   ar
    28    27    28   ar
    29    28    29   ar
    30    29    30   ar
    31    30    31   ar
    32    26    31   ar
    33    25    32   ar
    34    32    33   ar
    35    22    33   ar
    36    20    34    1
    37    34    35   am
    38    35    36    2
    39    35    37    1
    40    37    38    1
    41    38    39    1
    42    38    40    1
    43    38    41    1
    44     1    42    1
    45     1    43    1
    46     1    44    1
    47     3    45    1
    48     3    46    1
    49     3    47    1
    50     4    48    1
    51     4    49    1
    52     4    50    1
    53     8    51    1
    54     9    52    1
    55    10    53    1
    56    10    54    1
    57    12    55    1
    58    13    56    1
    59    14    57    1
    60    15    58    1
    61    16    59    1
    62    17    60    1
    63    18    61    1
    64    19    62    1
    65    19    63    1
    66    21    64    1
    67    21    65    1
    68    23    66    1
    69    24    67    1
    70    27    68    1
    71    28    69    1
    72    29    70    1
    73    30    71    1
    74    32    72    1
    75    33    73    1
    76    34    74    1
    77    39    75    1
    78    39    76    1
    79    39    77    1
    80    40    78    1
    81    40    79    1
    82    40    80    1
    83    41    81    1
    84    41    82    1
    85    41    83    1
