REMARK  8 active torsions:
REMARK  status: ('A' for Active; 'I' for Inactive)
REMARK    1  A    between atoms: C_6  and  C_7 
REMARK       I    between atoms: C_7  and  N_9 
REMARK    2  A    between atoms: N_9  and  C_10 
REMARK    3  A    between atoms: C_13  and  N_14 
REMARK       I    between atoms: N_14  and  C_15 
REMARK    4  A    between atoms: C_15  and  C_17 
REMARK    5  A    between atoms: C_17  and  N_18 
REMARK    6  A    between atoms: N_18  and  C_19 
REMARK    7  A    between atoms: C_22  and  N_23 
REMARK       I    between atoms: N_23  and  C_24 
REMARK    8  A    between atoms: C_24  and  C_26 
ROOT
ATOM      1  N   UNL d   1      -3.899   8.727   0.427  0.00  0.00    -0.326 N 
ATOM      2  C   UNL d   1      -5.056   8.878   1.198  0.00  0.00     0.239 C 
ATOM      3  O   UNL d   1      -5.572   8.002   1.899  0.00  0.00    -0.271 OA
ATOM      4  H   UNL d   1      -3.602   9.495  -0.164  0.00  0.00     0.169 HD
ENDROOT
BRANCH   1   5
ATOM      5  C   UNL d   1      -3.158   7.509   0.330  0.00  0.00     0.034 A 
ATOM      6  C   UNL d   1      -2.050   7.385  -0.524  0.00  0.00     0.032 A 
ATOM      7  C   UNL d   1      -1.397   6.134  -0.680  0.00  0.00     0.032 A 
ATOM      8  C   UNL d   1      -1.837   5.009   0.027  0.00  0.00     0.035 A 
ATOM      9  C   UNL d   1      -2.898   5.154   0.903  0.00  0.00     0.032 A 
ATOM     10  C   UNL d   1      -3.526   6.381   1.060  0.00  0.00     0.032 A 
BRANCH   8  11
ATOM     11  N   UNL d   1      -1.189   3.757  -0.075  0.00  0.00    -0.323 N 
ATOM     12  C   UNL d   1      -1.870   2.544   0.003  0.00  0.00     0.256 C 
ATOM     13  O   UNL d   1      -3.104   2.448   0.027  0.00  0.00    -0.267 OA
ATOM     14  H   UNL d   1      -0.199   3.781  -0.265  0.00  0.00     0.169 HD
BRANCH  12  15
ATOM     15  C   UNL d   1      -1.086   1.270  -0.001  0.00  0.00     0.032 A 
ATOM     16  C   UNL d   1      -1.793   0.053  -0.005  0.00  0.00     0.017 A 
ATOM     17  C   UNL d   1      -1.119  -1.170  -0.000  0.00  0.00     0.002 A 
ATOM     18  C   UNL d   1       0.273  -1.193   0.003  0.00  0.00     0.007 A 
ATOM     19  C   UNL d   1       0.996   0.004   0.003  0.00  0.00    -0.061 A 
ATOM     20  C   UNL d   1       2.495  -0.002  -0.012  0.00  0.00     0.048 C 
ATOM     21  C   UNL d   1       0.312   1.232   0.007  0.00  0.00     0.023 A 
ENDBRANCH  12  15
ENDBRANCH   8  11
ENDBRANCH   1   5
BRANCH   2  22
ATOM     22  C   UNL d   1      -5.755  10.244   1.154  0.00  0.00     0.223 C 
BRANCH  22  23
ATOM     23  N   UNL d   1      -6.787  10.266   2.209  0.00  0.00    -0.381 N 
ATOM     24  H   UNL d   1      -7.040   9.330   2.545  0.00  0.00     0.160 HD
BRANCH  23  25
ATOM     25  C   UNL d   1      -7.783  11.215   2.284  0.00  0.00     0.028 A 
ATOM     26  C   UNL d   1      -8.349  11.542   3.526  0.00  0.00     0.031 A 
ATOM     27  C   UNL d   1      -9.343  12.540   3.656  0.00  0.00     0.032 A 
ATOM     28  C   UNL d   1      -9.764  13.257   2.533  0.00  0.00     0.034 A 
ATOM     29  C   UNL d   1      -9.230  12.877   1.300  0.00  0.00     0.032 A 
ATOM     30  C   UNL d   1      -8.258  11.889   1.175  0.00  0.00     0.031 A 
BRANCH  28  31
ATOM     31  N   UNL d   1     -10.670  14.354   2.653  0.00  0.00    -0.327 N 
ATOM     32  C   UNL d   1     -11.049  15.166   1.588  0.00  0.00     0.225 C 
ATOM     33  O   UNL d   1     -10.698  14.998   0.419  0.00  0.00    -0.273 OA
ATOM     34  H   UNL d   1     -10.987  14.588   3.587  0.00  0.00     0.169 HD
BRANCH  32  35
ATOM     35  C   UNL d   1     -11.975  16.342   1.889  0.00  0.00     0.070 C 
ATOM     36  C   UNL d   1     -11.331  17.354   2.826  0.00  0.00     0.019 C 
ATOM     37  C   UNL d   1     -12.302  17.041   0.554  0.00  0.00     0.019 C 
ENDBRANCH  32  35
ENDBRANCH  28  31
ENDBRANCH  23  25
ENDBRANCH  22  23
ENDBRANCH   2  22
TORSDOF 8
