@<TRIPOS>MOLECULE
*****
 44 45 0 0 0
SMALL
GASTEIGER

@<TRIPOS>ATOM
      1 C          14.7146    3.6661    8.6536 C.3     1  UNL1       -0.0390
      2 C          14.8470    2.2372    9.0742 C.ar    1  UNL1       -0.0384
      3 C          15.5355    2.0160   10.2857 C.ar    1  UNL1       -0.0581
      4 C          15.7405    0.7341   10.7803 C.ar    1  UNL1       -0.0615
      5 C          15.2567   -0.3548   10.0692 C.ar    1  UNL1       -0.0610
      6 C          14.5617   -0.1546    8.8658 C.ar    1  UNL1       -0.0494
      7 C          14.3402    1.1401    8.3374 C.ar    1  UNL1        0.0396
      8 C          13.5771    1.2228    7.0185 C.2     1  UNL1        0.2443
      9 O          13.1920    0.1822    6.4759 O.2     1  UNL1       -0.2702
     10 N          13.3259    2.4577    6.4466 N.am    1  UNL1       -0.3109
     11 C          12.6196    2.6793    5.1972 C.3     1  UNL1        0.0202
     12 C          12.5109    4.1780    4.8404 C.3     1  UNL1        0.0409
     13 C          11.7639    4.3466    3.5223 C.2     1  UNL1        0.2306
     14 O          11.3236    3.3910    2.8841 O.2     1  UNL1       -0.2742
     15 N          11.6000    5.6425    3.0728 N.am    1  UNL1       -0.2343
     16 N          10.9426    5.8579    1.8248 N.am    1  UNL1       -0.2323
     17 C          10.8164    7.1592    1.3778 C.2     1  UNL1        0.2579
     18 O          11.3293    8.0825    2.0200 O.2     1  UNL1       -0.2714
     19 C           9.9488    7.4062    0.1007 C.3     1  UNL1        0.1358
     20 C           9.3185    8.7931    0.2378 C.3     1  UNL1       -0.0159
     21 C          10.2740    9.6664   -0.5406 C.3     1  UNL1       -0.0266
     22 C          10.6581    8.7620   -1.6840 C.3     1  UNL1        0.0487
     23 O          10.6486    7.4200   -1.1551 O.3     1  UNL1       -0.3673
     24 H          15.1701    4.3724    9.3489 H       1  UNL1        0.0278
     25 H          13.6520    3.9299    8.6072 H       1  UNL1        0.0278
     26 H          15.2320    3.8043    7.6971 H       1  UNL1        0.0278
     27 H          15.9228    2.8617   10.8522 H       1  UNL1        0.0620
     28 H          16.2780    0.5940   11.7152 H       1  UNL1        0.0618
     29 H          15.4216   -1.3604   10.4510 H       1  UNL1        0.0618
     30 H          14.1929   -1.0354    8.3390 H       1  UNL1        0.0625
     31 H          13.6461    3.2979    6.8677 H       1  UNL1        0.1490
     32 H          11.6253    2.2356    5.3048 H       1  UNL1        0.0467
     33 H          13.1629    2.1366    4.4177 H       1  UNL1        0.0467
     34 H          13.5119    4.6226    4.7569 H       1  UNL1        0.0374
     35 H          11.9855    4.7219    5.6372 H       1  UNL1        0.0374
     36 H          11.9387    6.4798    3.5478 H       1  UNL1        0.1728
     37 H          10.5757    5.0345    1.3487 H       1  UNL1        0.1729
     38 H           9.1790    6.6272    0.0409 H       1  UNL1        0.0693
     39 H           9.2109    9.1220    1.2753 H       1  UNL1        0.0296
     40 H           8.3227    8.8155   -0.2192 H       1  UNL1        0.0296
     41 H          11.1662    9.8816    0.0587 H       1  UNL1        0.0288
     42 H           9.8425   10.6202   -0.8542 H       1  UNL1        0.0288
     43 H          11.6499    8.9905   -2.0863 H       1  UNL1        0.0560
     44 H           9.9339    8.8406   -2.5059 H       1  UNL1        0.0560
@<TRIPOS>BOND
     1     1     2    1
     2     2     3   ar
     3     3     4   ar
     4     4     5   ar
     5     5     6   ar
     6     6     7   ar
     7     2     7   ar
     8     7     8    1
     9     8     9    2
    10     8    10   am
    11    10    11    1
    12    11    12    1
    13    12    13    1
    14    13    14    2
    15    13    15   am
    16    15    16    1
    17    16    17   am
    18    17    18    2
    19    19    20    1
    20    20    21    1
    21    21    22    1
    22    22    23    1
    23    19    23    1
    24    19    17    1
    25     1    24    1
    26     1    25    1
    27     1    26    1
    28     3    27    1
    29     4    28    1
    30     5    29    1
    31     6    30    1
    32    10    31    1
    33    11    32    1
    34    11    33    1
    35    12    34    1
    36    12    35    1
    37    15    36    1
    38    16    37    1
    39    19    38    1
    40    20    39    1
    41    20    40    1
    42    21    41    1
    43    21    42    1
    44    22    43    1
    45    22    44    1
