REMARK  8 active torsions:
REMARK  status: ('A' for Active; 'I' for Inactive)
REMARK    1  A    between atoms: O_2  and  C_3 
REMARK    2  A    between atoms: C_6  and  C_7 
REMARK       I    between atoms: C_7  and  N_9 
REMARK    3  A    between atoms: N_9  and  C_10 
REMARK    4  A    between atoms: C_10  and  N_12 
REMARK    5  A    between atoms: N_12  and  C_13 
REMARK    6  A    between atoms: C_16  and  N_17 
REMARK       I    between atoms: N_17  and  C_18 
REMARK    7  A    between atoms: C_18  and  C_20 
REMARK    8  A    between atoms: C_30  and  N_31 
ROOT
ATOM      1  N   UNL d   1       5.405  -7.619  -3.415  0.00  0.00    -0.333 N 
ATOM      2  H   UNL d   1       4.727  -7.264  -4.077  0.00  0.00     0.168 HD
ENDROOT
BRANCH   1   3
ATOM      3  C   UNL d   1       5.936  -6.773  -2.399  0.00  0.00     0.179 C 
ATOM      4  S   UNL d   1       7.407  -7.082  -1.618  0.00  0.00    -0.040 SA
BRANCH   3   5
ATOM      5  N   UNL d   1       5.162  -5.614  -2.132  0.00  0.00    -0.299 N 
ATOM      6  C   UNL d   1       5.480  -4.639  -1.147  0.00  0.00     0.257 C 
ATOM      7  O   UNL d   1       6.417  -4.725  -0.363  0.00  0.00    -0.267 OA
ATOM      8  H   UNL d   1       4.332  -5.484  -2.689  0.00  0.00     0.171 HD
BRANCH   6   9
ATOM      9  C   UNL d   1       4.646  -3.418  -0.929  0.00  0.00     0.035 A 
ATOM     10  C   UNL d   1       5.005  -2.546   0.118  0.00  0.00     0.020 A 
ATOM     11  C   UNL d   1       4.200  -1.450   0.468  0.00  0.00     0.040 A 
ATOM     12  C   UNL d   1       3.044  -1.135  -0.268  0.00  0.00     0.101 A 
ATOM     13  C   UNL d   1       2.728  -1.965  -1.357  0.00  0.00     0.137 A 
ATOM     14  C   UNL d   1       3.521  -3.102  -1.670  0.00  0.00     0.056 A 
BRANCH  12  15
ATOM     15  O   UNL d   1       2.476   0.056   0.088  0.00  0.00    -0.353 OA
ATOM     16  C   UNL d   1       1.077   0.098   0.353  0.00  0.00     0.210 C 
ENDBRANCH  12  15
BRANCH  13  17
ATOM     17  N   UNL d   1       1.626  -1.725  -2.295  0.00  0.00    -0.113 N 
ATOM     18  O   UNL d   1       1.228  -2.708  -2.944  0.00  0.00    -0.532 OA
ATOM     19  O   UNL d   1       1.188  -0.585  -2.449  0.00  0.00    -0.532 OA
ENDBRANCH  13  17
ENDBRANCH   6   9
ENDBRANCH   3   5
ENDBRANCH   1   3
BRANCH   1  20
ATOM     20  C   UNL d   1       5.967  -8.907  -3.742  0.00  0.00     0.034 A 
ATOM     21  C   UNL d   1       6.190  -9.354  -5.052  0.00  0.00     0.032 A 
ATOM     22  C   UNL d   1       6.795 -10.627  -5.295  0.00  0.00     0.032 A 
ATOM     23  C   UNL d   1       7.227 -11.441  -4.233  0.00  0.00     0.035 A 
ATOM     24  C   UNL d   1       6.945 -10.993  -2.950  0.00  0.00     0.032 A 
ATOM     25  C   UNL d   1       6.304  -9.780  -2.714  0.00  0.00     0.032 A 
BRANCH  23  26
ATOM     26  N   UNL d   1       7.939 -12.659  -4.457  0.00  0.00    -0.323 N 
ATOM     27  C   UNL d   1       8.422 -13.483  -3.433  0.00  0.00     0.256 C 
ATOM     28  O   UNL d   1       8.304 -13.311  -2.230  0.00  0.00    -0.267 OA
ATOM     29  H   UNL d   1       8.110 -12.927  -5.417  0.00  0.00     0.169 HD
BRANCH  27  30
ATOM     30  C   UNL d   1       9.171 -14.709  -3.796  0.00  0.00     0.034 A 
ATOM     31  C   UNL d   1       8.961 -15.849  -2.996  0.00  0.00     0.017 A 
ATOM     32  C   UNL d   1       9.792 -16.962  -3.112  0.00  0.00     0.003 A 
ATOM     33  C   UNL d   1      10.800 -16.965  -4.072  0.00  0.00     0.024 A 
ATOM     34  C   UNL d   1      11.006 -15.833  -4.866  0.00  0.00     0.035 A 
ATOM     35 CL   UNL d   1      12.310 -15.820  -5.990  0.00  0.00    -0.084 Cl
ATOM     36  C   UNL d   1      10.204 -14.696  -4.730  0.00  0.00     0.041 A 
ENDBRANCH  27  30
ENDBRANCH  23  26
ENDBRANCH   1  20
TORSDOF 8
