@<TRIPOS>MOLECULE
*****
 50 52 0 0 0
SMALL
GASTEIGER

@<TRIPOS>ATOM
      1 N           0.9872   -0.1035    0.0239 N.3     1  UNL1       -0.2544
      2 N           2.3967   -0.0451    0.0709 N.am    1  UNL1       -0.2525
      3 C           3.0377    0.3388    1.2643 C.2     1  UNL1        0.2402
      4 O           2.4293    0.7715    2.2398 O.2     1  UNL1       -0.2731
      5 C           4.5743    0.1704    1.1692 C.3     1  UNL1        0.0751
      6 N           5.2780    0.5512    2.3811 N.3     1  UNL1       -0.2976
      7 C           6.7497    0.6961    2.3837 C.3     1  UNL1        0.0606
      8 C           7.3989    1.2516    1.1186 C.ar    1  UNL1       -0.0260
      9 C           8.2679    0.8538    0.1165 C.ar    1  UNL1       -0.0568
     10 C           8.6964    1.8081   -0.9227 C.ar    1  UNL1       -0.0614
     11 C           8.3576    3.1335   -0.8119 C.ar    1  UNL1       -0.0617
     12 C           7.8082    3.3008    0.3779 C.ar    1  UNL1       -0.0614
     13 C           6.8815    2.3563    0.6375 C.ar    1  UNL1       -0.0568
     14 C           7.1053    1.4941    3.7228 C.ar    1  UNL1       -0.0038
     15 C           7.4191    0.6261    4.8300 C.ar    1  UNL1       -0.0410
     16 C           7.5730    1.1064    6.1371 C.ar    1  UNL1        0.0183
     17 BR          7.6548   -0.0920    7.6057 Br      1  UNL1       -0.0503
     18 C           7.5603    2.4685    6.3840 C.ar    1  UNL1       -0.0460
     19 C           7.3145    3.3546    5.3263 C.ar    1  UNL1       -0.0391
     20 C           7.0322    2.9187    4.0010 C.ar    1  UNL1        0.0387
     21 N           6.7249    4.0317    3.0944 N.am    1  UNL1       -0.2812
     22 C           5.6186    4.0829    2.2284 C.2     1  UNL1        0.2497
     23 O           4.6679    3.2991    2.4158 O.2     1  UNL1       -0.2698
     24 C           5.6240    4.9381    0.8430 C.ar    1  UNL1        0.0553
     25 C           4.8471    4.3564   -0.2441 C.ar    1  UNL1       -0.0482
     26 C           4.9224    4.7834   -1.5856 C.ar    1  UNL1       -0.0610
     27 C           5.7176    5.8669   -1.9015 C.ar    1  UNL1       -0.0603
     28 C           6.5924    6.3689   -0.9374 C.ar    1  UNL1       -0.0427
     29 C           6.5591    5.9280    0.4173 C.ar    1  UNL1        0.0531
     30 CL          7.9211    6.5120    1.3525 Cl      1  UNL1       -0.0828
     31 H           0.6569   -0.3860   -0.8983 H       1  UNL1        0.1405
     32 H           0.6241    0.8383    0.2044 H       1  UNL1        0.1405
     33 H           2.9427   -0.4210   -0.7005 H       1  UNL1        0.1687
     34 H           4.8470    0.8257    0.3436 H       1  UNL1        0.0520
     35 H           4.8193   -0.8546    0.8903 H       1  UNL1        0.0520
     36 H           4.8563    0.2136    3.2462 H       1  UNL1        0.1233
     37 H           7.1673   -0.3120    2.4710 H       1  UNL1        0.0561
     38 H           8.5350   -0.1827    0.0280 H       1  UNL1        0.0621
     39 H           9.3208    1.5464   -1.7602 H       1  UNL1        0.0618
     40 H           8.5726    3.9819   -1.4492 H       1  UNL1        0.0618
     41 H           7.9349    4.1384    1.0134 H       1  UNL1        0.0618
     42 H           5.8387    2.4935    0.7668 H       1  UNL1        0.0621
     43 H           7.5022   -0.4515    4.6763 H       1  UNL1        0.0632
     44 H           7.6971    2.8523    7.3942 H       1  UNL1        0.0629
     45 H           7.2405    4.4106    5.5831 H       1  UNL1        0.0636
     46 H           7.0073    4.9483    3.4269 H       1  UNL1        0.1551
     47 H           4.2867    3.4223   -0.1102 H       1  UNL1        0.0625
     48 H           4.3966    4.2510   -2.3826 H       1  UNL1        0.0618
     49 H           5.6832    6.2959   -2.9003 H       1  UNL1        0.0618
     50 H           7.3623    7.0663   -1.2744 H       1  UNL1        0.0632
@<TRIPOS>BOND
     1     1     2    1
     2     2     3   am
     3     3     4    2
     4     3     5    1
     5     5     6    1
     6     6     7    1
     7     7     8    1
     8     8     9   ar
     9     9    10   ar
    10    10    11   ar
    11    11    12   ar
    12    12    13   ar
    13     8    13   ar
    14     7    14    1
    15    14    15   ar
    16    15    16   ar
    17    16    17    1
    18    16    18   ar
    19    18    19   ar
    20    19    20   ar
    21    14    20   ar
    22    20    21    1
    23    21    22   am
    24    22    23    2
    25    22    24    1
    26    24    25   ar
    27    25    26   ar
    28    26    27   ar
    29    27    28   ar
    30    28    29   ar
    31    24    29   ar
    32    29    30    1
    33     1    31    1
    34     1    32    1
    35     2    33    1
    36     5    34    1
    37     5    35    1
    38     6    36    1
    39     7    37    1
    40     9    38    1
    41    10    39    1
    42    11    40    1
    43    12    41    1
    44    13    42    1
    45    15    43    1
    46    18    44    1
    47    19    45    1
    48    21    46    1
    49    25    47    1
    50    26    48    1
    51    27    49    1
    52    28    50    1
