@<TRIPOS>MOLECULE
*****
 43 46 0 0 0
SMALL
GASTEIGER

@<TRIPOS>ATOM
      1 C           2.2091    0.1838   -0.0197 C.3     1  UNL1        0.0152
      2 N           0.7887    0.0190   -0.0598 N.ar    1  UNL1       -0.3114
      3 C          -0.0858    1.0670   -0.0291 C.ar    1  UNL1        0.1202
      4 N          -1.3135    0.6142    0.0155 N.ar    1  UNL1       -0.1370
      5 N          -1.2406   -0.7622    0.0022 N.ar    1  UNL1       -0.1224
      6 C           0.0308   -1.1198   -0.0543 C.ar    1  UNL1        0.1959
      7 S           0.5190   -2.7888   -0.1596 S.3     1  UNL1       -0.0500
      8 C           2.2948   -2.8749   -0.1275 C.ar    1  UNL1        0.0157
      9 C           3.0087   -3.4708   -1.1761 C.ar    1  UNL1       -0.0461
     10 C           4.4096   -3.6249   -1.1079 C.ar    1  UNL1       -0.0383
     11 C           5.1362   -3.0541   -0.0641 C.ar    1  UNL1        0.0481
     12 N           6.5680   -3.1662   -0.0594 N.pl3   1  UNL1       -0.2163
     13 S           7.4398   -2.3686    1.1195 S.O2    1  UNL1        0.0724
     14 O           7.0415   -0.9706    1.0248 O.2     1  UNL1       -0.1500
     15 O           7.2960   -3.0649    2.3771 O.2     1  UNL1       -0.1500
     16 C           9.1469   -2.4438    0.6326 C.ar    1  UNL1        0.1105
     17 C          10.0756   -3.4912    0.5538 C.ar    1  UNL1       -0.0315
     18 C          11.5480   -3.1689    0.3637 C.ar    1  UNL1       -0.0162
     19 C          11.9885   -1.7960    0.2824 C.ar    1  UNL1        0.1424
     20 C          10.9962   -1.0295    0.7489 C.ar    1  UNL1        0.0776
     21 C           9.6600   -1.1915    0.6495 C.ar    1  UNL1       -0.0102
     22 N          11.4346   -0.0560    1.6218 N.am    1  UNL1       -0.2797
     23 C          11.5139    1.0271    0.8165 C.2     1  UNL1        0.2549
     24 O          10.5819    1.8011    0.5276 O.2     1  UNL1       -0.2717
     25 C          12.8749    0.8515    0.2583 C.3     1  UNL1        0.1656
     26 O          13.1343   -0.8695    0.1060 O.3     1  UNL1       -0.4809
     27 C           4.4186   -2.4662    0.9797 C.ar    1  UNL1       -0.0383
     28 C           3.0207   -2.4547    0.9835 C.ar    1  UNL1       -0.0461
     29 H           2.4954    1.2283   -0.1285 H       1  UNL1        0.0457
     30 H           2.6526   -0.3952   -0.8303 H       1  UNL1        0.0457
     31 H           2.5310   -0.1159    0.9752 H       1  UNL1        0.0457
     32 H           0.2205    2.1045   -0.0310 H       1  UNL1        0.1048
     33 H           2.4820   -3.8437   -2.0531 H       1  UNL1        0.0629
     34 H           4.9127   -4.2082   -1.8740 H       1  UNL1        0.0637
     35 H           7.0609   -3.4668   -0.8938 H       1  UNL1        0.1737
     36 H           9.6885   -4.5155    0.6585 H       1  UNL1        0.0638
     37 H          12.1723   -4.0766    0.4372 H       1  UNL1        0.0655
     38 H           9.0903   -0.2970    0.8440 H       1  UNL1        0.0657
     39 H          12.4084   -0.3576    1.8247 H       1  UNL1        0.1550
     40 H          13.4656    1.2552    1.1177 H       1  UNL1        0.0795
     41 H          13.0524    1.4871   -0.6261 H       1  UNL1        0.0795
     42 H           4.9099   -1.9946    1.8272 H       1  UNL1        0.0637
     43 H           2.5177   -2.0245    1.8466 H       1  UNL1        0.0629
@<TRIPOS>BOND
     1     1     2    1
     2     2     3   ar
     3     3     4   ar
     4     4     5   ar
     5     5     6   ar
     6     2     6   ar
     7     6     7    1
     8     7     8    1
     9     8     9   ar
    10     9    10   ar
    11    10    11   ar
    12    11    12    1
    13    12    13    1
    14    13    14    2
    15    13    15    2
    16    13    16    1
    17    16    17   ar
    18    17    18   ar
    19    18    19   ar
    20    19    20   ar
    21    20    21   ar
    22    16    21   ar
    23    20    22    1
    24    22    23   am
    25    23    24    2
    26    23    25    1
    27    25    26    1
    28    19    26    1
    29    11    27   ar
    30    27    28   ar
    31     8    28   ar
    32     1    29    1
    33     1    30    1
    34     1    31    1
    35     3    32    1
    36     9    33    1
    37    10    34    1
    38    12    35    1
    39    17    36    1
    40    18    37    1
    41    21    38    1
    42    22    39    1
    43    25    40    1
    44    25    41    1
    45    27    42    1
    46    28    43    1
