REMARK  8 active torsions:
REMARK  status: ('A' for Active; 'I' for Inactive)
REMARK    1  A    between atoms: O_2  and  C_3 
REMARK    2  A    between atoms: C_3  and  C_5 
REMARK    3  A    between atoms: C_8  and  N_9 
REMARK    4  A    between atoms: N_9  and  C_10 
REMARK    5  A    between atoms: C_10  and  C_11 
REMARK       I    between atoms: C_11  and  N_13 
REMARK    6  A    between atoms: N_13  and  C_14 
REMARK    7  A    between atoms: C_17  and  N_18 
REMARK       I    between atoms: N_18  and  C_19 
REMARK    8  A    between atoms: C_19  and  C_21 
ROOT
ATOM      1  C   UNL d   1      13.486   1.259   0.644  0.00  0.00     0.034 A 
ATOM      2  C   UNL d   1      14.381   2.265   1.029  0.00  0.00     0.032 A 
ATOM      3  C   UNL d   1      15.784   2.046   0.968  0.00  0.00     0.032 A 
ATOM      4  C   UNL d   1      16.299   0.811   0.541  0.00  0.00     0.035 A 
ATOM      5  C   UNL d   1      15.382  -0.147   0.118  0.00  0.00     0.032 A 
ATOM      6  C   UNL d   1      14.008   0.063   0.178  0.00  0.00     0.032 A 
ENDROOT
BRANCH   1   7
ATOM      7  N   UNL d   1      12.079   1.441   0.664  0.00  0.00    -0.326 N 
ATOM      8  C   UNL d   1      11.197   0.407   1.001  0.00  0.00     0.239 C 
ATOM      9  O   UNL d   1      11.553  -0.706   1.395  0.00  0.00    -0.271 OA
ATOM     10  H   UNL d   1      11.729   2.377   0.507  0.00  0.00     0.169 HD
BRANCH   8  11
ATOM     11  C   UNL d   1       9.696   0.742   0.889  0.00  0.00     0.223 C 
BRANCH  11  12
ATOM     12  N   UNL d   1       8.878  -0.354   1.442  0.00  0.00    -0.381 N 
ATOM     13  H   UNL d   1       9.399  -1.219   1.600  0.00  0.00     0.160 HD
BRANCH  12  14
ATOM     14  C   UNL d   1       7.502  -0.430   1.302  0.00  0.00     0.028 A 
ATOM     15  C   UNL d   1       6.806  -1.581   1.704  0.00  0.00     0.030 A 
ATOM     16  C   UNL d   1       5.407  -1.681   1.570  0.00  0.00     0.020 A 
ATOM     17  C   UNL d   1       4.660  -0.591   1.107  0.00  0.00     0.039 A 
ATOM     18  C   UNL d   1       5.332   0.577   0.748  0.00  0.00     0.020 A 
ATOM     19  C   UNL d   1       6.731   0.650   0.855  0.00  0.00     0.030 A 
BRANCH  17  20
ATOM     20  C   UNL d   1       3.176  -0.639   1.154  0.00  0.00     0.292 C 
ATOM     21  O   UNL d   1       2.562  -1.181   2.071  0.00  0.00    -0.259 OA
BRANCH  20  22
ATOM     22  O   UNL d   1       2.614  -0.022   0.084  0.00  0.00    -0.323 OA
ATOM     23  C   UNL d   1       1.178  -0.037   0.086  0.00  0.00     0.213 C 
ENDBRANCH  20  22
ENDBRANCH  17  20
ENDBRANCH  12  14
ENDBRANCH  11  12
ENDBRANCH   8  11
ENDBRANCH   1   7
BRANCH   4  24
ATOM     24  N   UNL d   1      17.701   0.541   0.574  0.00  0.00    -0.323 N 
ATOM     25  C   UNL d   1      18.275  -0.673   0.196  0.00  0.00     0.256 C 
ATOM     26  O   UNL d   1      17.690  -1.659  -0.247  0.00  0.00    -0.267 OA
ATOM     27  H   UNL d   1      18.308   1.274   0.919  0.00  0.00     0.169 HD
BRANCH  25  28
ATOM     28  C   UNL d   1      19.738  -0.846   0.332  0.00  0.00     0.032 A 
ATOM     29  C   UNL d   1      20.401  -1.586  -0.663  0.00  0.00     0.017 A 
ATOM     30  C   UNL d   1      21.720  -1.994  -0.481  0.00  0.00     0.002 A 
ATOM     31  C   UNL d   1      22.403  -1.618   0.672  0.00  0.00     0.007 A 
ATOM     32  C   UNL d   1      21.752  -0.882   1.673  0.00  0.00    -0.061 A 
ATOM     33  C   UNL d   1      22.458  -0.564   2.957  0.00  0.00     0.048 C 
ATOM     34  C   UNL d   1      20.411  -0.499   1.503  0.00  0.00     0.023 A 
ENDBRANCH  25  28
ENDBRANCH   4  24
TORSDOF 8
