@<TRIPOS>MOLECULE
*****
 56 59 0 0 0
SMALL
GASTEIGER

@<TRIPOS>ATOM
      1 O           0.9449    0.2208   -0.2223 O.2     1  UNL1       -0.2513
      2 C           2.1340    0.1505    0.0180 C.2     1  UNL1        0.3167
      3 N           2.6409   -0.6887    0.9577 N.am    1  UNL1       -0.2954
      4 C           1.9780   -1.7437    1.7707 C.3     1  UNL1        0.0246
      5 C           2.4425   -3.1553    1.3863 C.3     1  UNL1       -0.0345
      6 C           2.1060   -4.3262    2.3048 C.3     1  UNL1       -0.0514
      7 C           2.4886   -4.0102    3.7521 C.3     1  UNL1       -0.0529
      8 C           1.9613   -2.6343    4.1468 C.3     1  UNL1       -0.0514
      9 C           2.4450   -1.5237    3.2253 C.3     1  UNL1       -0.0345
     10 N           3.0773    0.9558   -0.6226 N.am    1  UNL1       -0.2081
     11 N           4.5560    0.8749   -0.7326 N.am    1  UNL1       -0.1460
     12 C           5.4404    0.0134   -0.0242 C.2     1  UNL1        0.3291
     13 O           6.6469    0.2586    0.1100 O.2     1  UNL1       -0.2503
     14 N           4.9565   -1.1422    0.5399 N.am    1  UNL1       -0.2678
     15 C           5.6784   -1.9576    1.4492 C.ar    1  UNL1        0.0349
     16 C           6.4983   -1.4107    2.4265 C.ar    1  UNL1       -0.0391
     17 C           7.2241   -2.2730    3.2488 C.ar    1  UNL1       -0.0416
     18 C           6.9888   -3.6524    3.2222 C.ar    1  UNL1        0.0411
     19 CL          7.9889   -4.7285    4.1068 Cl      1  UNL1       -0.0835
     20 C           6.0294   -4.1867    2.3871 C.ar    1  UNL1       -0.0416
     21 C           5.4904   -3.3508    1.4238 C.ar    1  UNL1       -0.0391
     22 C           5.2080    1.9372   -1.4659 C.ar    1  UNL1        0.1860
     23 N           4.8349    3.2027   -1.6419 N.ar    1  UNL1       -0.2232
     24 C           5.8246    3.9176   -2.3713 C.ar    1  UNL1        0.0803
     25 C           5.7946    5.3694   -2.6222 C.ar    1  UNL1        0.0011
     26 C           5.8326    6.2856   -1.5591 C.ar    1  UNL1       -0.0498
     27 C           5.7827    7.6703   -1.7976 C.ar    1  UNL1       -0.0258
     28 C           5.7168    8.1472   -3.1009 C.ar    1  UNL1        0.1234
     29 F           5.6453    9.4670   -3.3252 F       1  UNL1       -0.2055
     30 C           5.7214    7.2657   -4.1733 C.ar    1  UNL1       -0.0258
     31 C           5.7689    5.8818   -3.9357 C.ar    1  UNL1       -0.0498
     32 C           6.8560    3.1390   -2.8569 C.ar    1  UNL1        0.0049
     33 S           6.6063    1.5092   -2.4173 S.2     1  UNL1       -0.0582
     34 H           3.4026   -0.2087    1.4242 H       1  UNL1        0.1506
     35 H           0.8969   -1.6929    1.6491 H       1  UNL1        0.0499
     36 H           3.4652   -3.0471    1.6170 H       1  UNL1        0.0283
     37 H           2.3934   -3.4133    0.3229 H       1  UNL1        0.0283
     38 H           2.6582   -5.2289    1.9966 H       1  UNL1        0.0266
     39 H           1.0416   -4.5453    2.2265 H       1  UNL1        0.0266
     40 H           3.5792   -4.0469    3.8916 H       1  UNL1        0.0265
     41 H           2.0780   -4.7796    4.4146 H       1  UNL1        0.0265
     42 H           2.2597   -2.4104    5.1744 H       1  UNL1        0.0266
     43 H           0.8705   -2.6573    4.0966 H       1  UNL1        0.0266
     44 H           3.5455   -1.4802    3.2910 H       1  UNL1        0.0283
     45 H           2.0973   -0.5456    3.5642 H       1  UNL1        0.0283
     46 H           2.6661    1.6222   -1.2783 H       1  UNL1        0.1751
     47 H           4.0814   -1.5211    0.1894 H       1  UNL1        0.1564
     48 H           6.6058   -0.3329    2.5316 H       1  UNL1        0.0636
     49 H           8.0073   -1.8607    3.8741 H       1  UNL1        0.0633
     50 H           5.7404   -5.2352    2.4124 H       1  UNL1        0.0633
     51 H           4.8513   -3.8233    0.6803 H       1  UNL1        0.0636
     52 H           5.9069    5.9323   -0.5338 H       1  UNL1        0.0625
     53 H           5.7832    8.3802   -0.9751 H       1  UNL1        0.0646
     54 H           5.6726    7.6612   -5.1844 H       1  UNL1        0.0646
     55 H           5.7664    5.2117   -4.7924 H       1  UNL1        0.0625
     56 H           7.7213    3.4332   -3.4396 H       1  UNL1        0.0716
@<TRIPOS>BOND
     1     1     2    2
     2     2     3   am
     3     3     4    1
     4     4     5    1
     5     5     6    1
     6     6     7    1
     7     7     8    1
     8     8     9    1
     9     4     9    1
    10     2    10   am
    11    10    11    1
    12    11    12   am
    13    12    13    2
    14    12    14   am
    15    14    15    1
    16    15    16   ar
    17    16    17   ar
    18    17    18   ar
    19    18    19    1
    20    18    20   ar
    21    20    21   ar
    22    15    21   ar
    23    11    22    1
    24    22    23   ar
    25    23    24   ar
    26    24    25    1
    27    25    26   ar
    28    26    27   ar
    29    27    28   ar
    30    28    29    1
    31    28    30   ar
    32    30    31   ar
    33    25    31   ar
    34    24    32   ar
    35    32    33   ar
    36    22    33   ar
    37     3    34    1
    38     4    35    1
    39     5    36    1
    40     5    37    1
    41     6    38    1
    42     6    39    1
    43     7    40    1
    44     7    41    1
    45     8    42    1
    46     8    43    1
    47     9    44    1
    48     9    45    1
    49    10    46    1
    50    14    47    1
    51    16    48    1
    52    17    49    1
    53    20    50    1
    54    21    51    1
    55    26    52    1
    56    27    53    1
    57    30    54    1
    58    31    55    1
    59    32    56    1
