@<TRIPOS>MOLECULE
*****
 69 72 0 0 0
SMALL
GASTEIGER

@<TRIPOS>ATOM
      1 C           6.9039   -7.9549   -3.2415 C.3     1  UNL1       -0.0587
      2 C           7.7614   -6.7594   -2.8259 C.3     1  UNL1       -0.0215
      3 C           8.7675   -7.1595   -1.7441 C.3     1  UNL1       -0.0587
      4 C           8.4776   -6.1722   -4.0292 C.ar    1  UNL1       -0.0447
      5 C           9.4154   -6.9070   -4.7709 C.ar    1  UNL1       -0.0566
      6 C          10.1050   -6.3401   -5.8659 C.ar    1  UNL1       -0.0402
      7 C           9.8046   -5.0463   -6.3121 C.ar    1  UNL1        0.0348
      8 N          10.4073   -4.5247   -7.5239 N.am    1  UNL1       -0.2692
      9 C           9.9242   -3.4159   -8.2229 C.2     1  UNL1        0.3081
     10 O           8.8793   -2.8379   -7.9096 O.2     1  UNL1       -0.2522
     11 N          10.6865   -2.9663   -9.3183 N.am    1  UNL1       -0.2692
     12 C          10.3807   -1.6804   -9.9264 C.ar    1  UNL1        0.0356
     13 C           9.9909   -1.4191  -11.2172 C.ar    1  UNL1       -0.0386
     14 C           9.7060   -0.0683  -11.6118 C.ar    1  UNL1       -0.0382
     15 C           9.7412    1.0702  -10.7487 C.ar    1  UNL1        0.0420
     16 N           9.3541    2.2942  -11.2659 N.pl3   1  UNL1       -0.3293
     17 C          10.0283    3.5817  -11.0842 C.3     1  UNL1        0.0123
     18 C           8.8850    4.5749  -10.8731 C.3     1  UNL1       -0.0358
     19 C           7.8202    4.0481  -11.8219 C.3     1  UNL1       -0.0358
     20 C           8.0112    2.5186  -11.8190 C.3     1  UNL1        0.0123
     21 C          10.1994    0.8011   -9.4492 C.ar    1  UNL1        0.0594
     22 C          10.2227    1.8491   -8.3394 C.2     1  UNL1        0.2464
     23 O           9.8749    3.0207   -8.4707 O.2     1  UNL1       -0.2701
     24 N          10.6076    1.5691   -7.0506 N.am    1  UNL1       -0.3047
     25 C          10.5743    0.2992   -6.3703 C.3     1  UNL1        0.0458
     26 C           9.2058   -0.3751   -6.5513 C.3     1  UNL1       -0.0424
     27 C          10.8445    0.2918   -4.8961 C.ar    1  UNL1       -0.0275
     28 C          10.9248   -0.9623   -4.2513 C.ar    1  UNL1       -0.0568
     29 C          10.8925   -1.0288   -2.8712 C.ar    1  UNL1       -0.0614
     30 C          10.9131    0.1531   -2.1375 C.ar    1  UNL1       -0.0617
     31 C          10.9316    1.3919   -2.7770 C.ar    1  UNL1       -0.0614
     32 C          10.8955    1.4630   -4.1553 C.ar    1  UNL1       -0.0568
     33 C          10.5711   -0.5481   -9.1504 C.ar    1  UNL1       -0.0265
     34 C           8.8844   -4.3216   -5.5396 C.ar    1  UNL1       -0.0402
     35 C           8.2292   -4.8628   -4.4227 C.ar    1  UNL1       -0.0566
     36 H           6.3708   -8.3750   -2.3824 H       1  UNL1        0.0235
     37 H           7.5143   -8.7534   -3.6759 H       1  UNL1        0.0235
     38 H           6.1623   -7.6583   -3.9916 H       1  UNL1        0.0235
     39 H           7.0906   -6.0045   -2.3892 H       1  UNL1        0.0343
     40 H           9.4719   -7.9140   -2.1100 H       1  UNL1        0.0235
     41 H           8.2597   -7.5773   -0.8688 H       1  UNL1        0.0235
     42 H           9.3524   -6.2928   -1.4156 H       1  UNL1        0.0235
     43 H           9.6081   -7.9447   -4.5013 H       1  UNL1        0.0621
     44 H          10.8555   -6.9558   -6.3525 H       1  UNL1        0.0636
     45 H          11.0507   -5.1461   -7.9943 H       1  UNL1        0.1564
     46 H          11.0873   -3.6773   -9.9102 H       1  UNL1        0.1564
     47 H           9.8504   -2.2194  -11.9332 H       1  UNL1        0.0637
     48 H           9.4772    0.1122  -12.6612 H       1  UNL1        0.0637
     49 H          10.5334    3.8189  -12.0269 H       1  UNL1        0.0464
     50 H          10.8044    3.6357  -10.3205 H       1  UNL1        0.0464
     51 H           9.1784    5.6055  -11.0993 H       1  UNL1        0.0281
     52 H           8.5034    4.5578   -9.8453 H       1  UNL1        0.0281
     53 H           7.9931    4.4501  -12.8275 H       1  UNL1        0.0281
     54 H           6.8100    4.3487  -11.5214 H       1  UNL1        0.0281
     55 H           7.9609    2.1455  -12.8468 H       1  UNL1        0.0464
     56 H           7.2240    2.0410  -11.2250 H       1  UNL1        0.0464
     57 H          10.5449    2.4147   -6.5047 H       1  UNL1        0.1496
     58 H          11.4662   -0.2218   -6.7259 H       1  UNL1        0.0545
     59 H           8.4141    0.1322   -5.9975 H       1  UNL1        0.0251
     60 H           9.2649   -1.3956   -6.1868 H       1  UNL1        0.0251
     61 H           8.8262   -0.4220   -7.5724 H       1  UNL1        0.0251
     62 H          10.9362   -1.8907   -4.8269 H       1  UNL1        0.0621
     63 H          10.8195   -1.9935   -2.3787 H       1  UNL1        0.0618
     64 H          10.9135    0.1141   -1.0555 H       1  UNL1        0.0618
     65 H          10.9331    2.3172   -2.2138 H       1  UNL1        0.0618
     66 H          10.8700    2.4370   -4.6264 H       1  UNL1        0.0621
     67 H          11.0267   -0.8299   -8.2339 H       1  UNL1        0.0644
     68 H           8.6255   -3.2996   -5.7733 H       1  UNL1        0.0636
     69 H           7.5110   -4.2430   -3.8874 H       1  UNL1        0.0621
@<TRIPOS>BOND
     1     1     2    1
     2     2     3    1
     3     2     4    1
     4     4     5   ar
     5     5     6   ar
     6     6     7   ar
     7     7     8    1
     8     8     9   am
     9     9    10    2
    10     9    11   am
    11    11    12    1
    12    12    13   ar
    13    13    14   ar
    14    14    15   ar
    15    15    16    1
    16    16    17    1
    17    17    18    1
    18    18    19    1
    19    19    20    1
    20    16    20    1
    21    15    21   ar
    22    21    22    1
    23    22    23    2
    24    22    24   am
    25    25    27    1
    26    27    28   ar
    27    28    29   ar
    28    29    30   ar
    29    30    31   ar
    30    31    32   ar
    31    27    32   ar
    32    21    33   ar
    33    12    33   ar
    34     7    34   ar
    35    34    35   ar
    36     4    35   ar
    37    25    26    1
    38    25    24    1
    39     1    36    1
    40     1    37    1
    41     1    38    1
    42     2    39    1
    43     3    40    1
    44     3    41    1
    45     3    42    1
    46     5    43    1
    47     6    44    1
    48     8    45    1
    49    11    46    1
    50    13    47    1
    51    14    48    1
    52    17    49    1
    53    17    50    1
    54    18    51    1
    55    18    52    1
    56    19    53    1
    57    19    54    1
    58    20    55    1
    59    20    56    1
    60    24    57    1
    61    25    58    1
    62    26    59    1
    63    26    60    1
    64    26    61    1
    65    28    62    1
    66    29    63    1
    67    30    64    1
    68    31    65    1
    69    32    66    1
    70    33    67    1
    71    34    68    1
    72    35    69    1
