REMARK  11 active torsions:
REMARK  status: ('A' for Active; 'I' for Inactive)
REMARK    1  A    between atoms: C_2  and  C_3 
REMARK    2  A    between atoms: C_3  and  C_4 
REMARK    3  A    between atoms: C_4  and  C_5 
REMARK    4  A    between atoms: C_11  and  C_12 
REMARK    5  A    between atoms: C_15  and  O_16 
REMARK    6  A    between atoms: O_16  and  C_17 
REMARK    7  A    between atoms: C_17  and  C_18 
REMARK    8  A    between atoms: C_18  and  O_19 
REMARK    9  A    between atoms: O_19  and  C_20 
REMARK   10  A    between atoms: C_28  and  O_29 
REMARK   11  A    between atoms: O_29  and  C_30 
ROOT
ATOM      1  C   UNL d   1       4.812   4.303   6.368  0.00  0.00    -0.032 C 
ATOM      2  C   UNL d   1       3.526   4.827   6.488  0.00  0.00     0.014 C 
ATOM      3  C   UNL d   1       2.474   3.979   6.864  0.00  0.00     0.040 C 
ATOM      4  C   UNL d   1       2.661   2.586   6.949  0.00  0.00     0.102 C 
ATOM      5  C   UNL d   1       3.939   2.053   6.745  0.00  0.00     0.102 C 
ATOM      6  C   UNL d   1       5.004   2.928   6.566  0.00  0.00     0.051 C 
ENDROOT
BRANCH   1   7
ATOM      7  C   UNL d   1       5.939   5.093   5.834  0.00  0.00     0.032 C 
ATOM      8  C   UNL d   1       6.556   4.756   4.686  0.00  0.00     0.076 C 
ATOM      9  C   UNL d   1       6.160   3.558   3.886  0.00  0.00     0.140 C 
ATOM     10  C   UNL d   1       7.508   5.685   3.956  0.00  0.00     0.282 C 
ATOM     11  N   UNL d   1       6.884   3.341   2.721  0.00  0.00    -0.094 NA
ATOM     12  N   UNL d   1       5.030   2.934   4.053  0.00  0.00    -0.286 NA
ATOM     13  N   UNL d   1       6.429   2.245   2.005  0.00  0.00    -0.183 NA
ATOM     14  C   UNL d   1       6.827   4.561   2.072  0.00  0.00     0.179 C 
ATOM     15  C   UNL d   1       5.467   2.627   1.217  0.00  0.00     0.093 C 
ATOM     16  S   UNL d   1       5.421   4.382   0.911  0.00  0.00    -0.039 SA
ATOM     17  N   UNL d   1       7.232   5.701   2.563  0.00  0.00    -0.188 NA
ATOM     18  H   UNL d   1       4.895   2.209   3.355  0.00  0.00     0.188 HD
ATOM     19  O   UNL d   1       8.244   6.431   4.560  0.00  0.00    -0.265 OA
BRANCH  15  20
ATOM     20  C   UNL d   1       4.583   1.509   0.650  0.00  0.00     0.068 C 
BRANCH  20  21
ATOM     21  C   UNL d   1       3.050   1.418   0.773  0.00  0.00     0.006 C 
BRANCH  21  22
ATOM     22  C   UNL d   1       2.511   0.171   0.013  0.00  0.00    -0.004 C 
ATOM     23  C   UNL d   1       0.988   0.113  -0.002  0.00  0.00     0.005 C 
ENDBRANCH  21  22
ENDBRANCH  20  21
ENDBRANCH  15  20
ENDBRANCH   1   7
BRANCH   5  24
ATOM     24  O   UNL d   1       4.103   0.699   6.687  0.00  0.00    -0.349 OA
BRANCH  24  25
ATOM     25  C   UNL d   1       5.372   0.151   6.365  0.00  0.00     0.171 C 
ATOM     26  C   UNL d   1       5.295  -1.342   6.608  0.00  0.00     0.034 C 
ENDBRANCH  24  25
ENDBRANCH   5  24
BRANCH   4  27
ATOM     27  O   UNL d   1       1.524   1.867   7.230  0.00  0.00    -0.346 OA
BRANCH  27  28
ATOM     28  C   UNL d   1       1.670   0.440   7.230  0.00  0.00     0.202 C 
BRANCH  28  29
ATOM     29  C   UNL d   1       0.348  -0.195   7.574  0.00  0.00     0.202 C 
BRANCH  29  30
ATOM     30  O   UNL d   1       0.468  -1.616   7.570  0.00  0.00    -0.348 OA
BRANCH  30  31
ATOM     31  C   UNL d   1      -0.674  -2.347   7.795  0.00  0.00     0.080 A 
ATOM     32  C   UNL d   1      -0.526  -3.499   8.599  0.00  0.00    -0.028 A 
ATOM     33  C   UNL d   1       0.691  -3.739   9.453  0.00  0.00     0.051 C 
ATOM     34  C   UNL d   1      -1.588  -4.417   8.704  0.00  0.00     0.009 A 
ATOM     35  C   UNL d   1      -2.818  -4.146   8.118  0.00  0.00     0.001 A 
ATOM     36  C   UNL d   1      -2.981  -2.987   7.372  0.00  0.00     0.009 A 
ATOM     37  C   UNL d   1      -1.919  -2.089   7.186  0.00  0.00    -0.028 A 
ATOM     38  C   UNL d   1      -2.204  -0.881   6.351  0.00  0.00     0.051 C 
ENDBRANCH  30  31
ENDBRANCH  29  30
ENDBRANCH  28  29
ENDBRANCH  27  28
ENDBRANCH   4  27
TORSDOF 11
