REMARK  9 active torsions:
REMARK  status: ('A' for Active; 'I' for Inactive)
REMARK    1  A    between atoms: C_3  and  C_4 
REMARK    2  A    between atoms: C_7  and  O_8 
REMARK    3  A    between atoms: O_8  and  C_9 
REMARK    4  A    between atoms: C_9  and  C_10 
REMARK       I    between atoms: C_10  and  N_12 
REMARK    5  A    between atoms: N_12  and  N_13 
REMARK       I    between atoms: N_13  and  C_14 
REMARK       I    between atoms: C_14  and  N_16 
REMARK    6  A    between atoms: N_16  and  C_17 
REMARK    7  A    between atoms: C_17  and  C_18 
REMARK    8  A    between atoms: C_18  and  C_19 
REMARK    9  A    between atoms: C_21  and  O_22 
ROOT
ATOM      1  C   UNL d   1      11.205   1.065   0.081  0.00  0.00     0.260 C 
ATOM      2  O   UNL d   1      11.687   0.824   1.190  0.00  0.00    -0.269 OA
ATOM      3  N   UNL d   1      12.028   1.286  -1.028  0.00  0.00    -0.264 N 
ATOM      4  H   UNL d   1      11.692   1.490  -1.969  0.00  0.00     0.190 HD
ENDROOT
BRANCH   1   5
ATOM      5  C   UNL d   1       9.673   1.149  -0.177  0.00  0.00     0.280 C 
BRANCH   5   6
ATOM      6  O   UNL d   1       8.873   0.974   1.006  0.00  0.00    -0.339 OA
BRANCH   6   7
ATOM      7  C   UNL d   1       7.497   0.922   0.896  0.00  0.00     0.102 A 
ATOM      8  C   UNL d   1       6.818   0.605   2.090  0.00  0.00     0.040 A 
ATOM      9  C   UNL d   1       5.421   0.433   2.121  0.00  0.00     0.014 A 
ATOM     10  C   UNL d   1       4.668   0.639   0.967  0.00  0.00    -0.034 A 
ATOM     11  C   UNL d   1       5.336   1.002  -0.207  0.00  0.00     0.051 A 
ATOM     12  C   UNL d   1       6.732   1.146  -0.259  0.00  0.00     0.102 A 
BRANCH  10  13
ATOM     13  C   UNL d   1       3.199   0.593   0.986  0.00  0.00     0.007 C 
ATOM     14  C   UNL d   1       2.473   0.061  -0.011  0.00  0.00    -0.030 C 
ATOM     15  C   UNL d   1       0.981   0.079  -0.036  0.00  0.00     0.036 C 
ENDBRANCH  10  13
BRANCH  12  16
ATOM     16  O   UNL d   1       7.384   1.531  -1.398  0.00  0.00    -0.353 OA
ATOM     17  C   UNL d   1       6.605   1.803  -2.551  0.00  0.00     0.210 C 
ENDBRANCH  12  16
ENDBRANCH   6   7
ENDBRANCH   5   6
ENDBRANCH   1   5
BRANCH   3  18
ATOM     18  N   UNL d   1      13.457   1.245  -0.867  0.00  0.00    -0.249 N 
ATOM     19  C   UNL d   1      14.287   1.470  -1.955  0.00  0.00     0.334 C 
ATOM     20  O   UNL d   1      13.841   1.707  -3.080  0.00  0.00    -0.246 OA
ATOM     21  N   UNL d   1      15.641   1.407  -1.680  0.00  0.00    -0.342 N 
ATOM     22  H   UNL d   1      15.953   1.209  -0.740  0.00  0.00     0.164 HD
ATOM     23  H   UNL d   1      13.789   1.051   0.074  0.00  0.00     0.192 HD
BRANCH  21  24
ATOM     24  C   UNL d   1      16.648   1.619  -2.727  0.00  0.00     0.124 C 
BRANCH  24  25
ATOM     25  C   UNL d   1      18.102   1.511  -2.240  0.00  0.00     0.019 C 
BRANCH  25  26
ATOM     26  C   UNL d   1      19.117   1.741  -3.374  0.00  0.00    -0.003 C 
ATOM     27  C   UNL d   1      20.553   1.630  -2.876  0.00  0.00     0.005 C 
ENDBRANCH  25  26
ENDBRANCH  24  25
ENDBRANCH  21  24
ENDBRANCH   3  18
TORSDOF 9
