@<TRIPOS>MOLECULE
*****
 56 58 0 0 0
SMALL
GASTEIGER

@<TRIPOS>ATOM
      1 C           1.0425   -0.0300   -0.0130 C.3     1  UNL1        0.0788
      2 O           2.4560    0.1447    0.0575 O.3     1  UNL1       -0.4951
      3 C           3.1174   -0.8131    0.7684 C.ar    1  UNL1        0.1202
      4 C           4.3444   -0.4675    1.3374 C.ar    1  UNL1       -0.0182
      5 C           5.1382   -1.4523    1.9560 C.ar    1  UNL1       -0.0370
      6 C           4.6621   -2.7786    2.0558 C.ar    1  UNL1        0.0328
      7 N           5.3896   -3.7626    2.7694 N.am    1  UNL1       -0.2967
      8 C           5.1220   -5.0967    3.1327 C.2     1  UNL1        0.1375
      9 S           3.7321   -5.9721    2.7014 S.2     1  UNL1       -0.0183
     10 N           6.1031   -5.7475    3.9412 N.am    1  UNL1       -0.3058
     11 C           7.3397   -5.1754    4.4441 C.3     1  UNL1        0.0373
     12 C           7.8031   -3.7551    4.2220 C.3     1  UNL1        0.0599
     13 O           9.0275   -3.4463    4.8589 O.3     1  UNL1       -0.3935
     14 C           5.8711   -7.1941    4.3462 C.3     1  UNL1        0.0440
     15 C           6.8118   -8.0005    5.2326 C.ar    1  UNL1        0.0347
     16 C           6.6647   -9.3456    5.3470 C.ar    1  UNL1       -0.0427
     17 C           7.5309  -10.1132    6.2589 C.ar    1  UNL1        0.0025
     18 C           7.8732  -11.4451    6.0654 C.ar    1  UNL1       -0.0072
     19 C           8.6485  -12.1141    7.0284 C.ar    1  UNL1        0.1622
     20 O           8.7763  -13.4638    6.7866 O.3     1  UNL1       -0.4914
     21 C           9.3222  -14.2597    7.8369 C.3     1  UNL1        0.0790
     22 C           9.1921  -11.4025    8.1239 C.ar    1  UNL1        0.1635
     23 O          10.0825  -12.0701    8.9138 O.3     1  UNL1       -0.4914
     24 C          10.7232  -11.4210    9.9929 C.3     1  UNL1        0.0790
     25 C           8.8397  -10.0667    8.3214 C.ar    1  UNL1        0.0077
     26 C           8.0094   -9.4449    7.3921 C.ar    1  UNL1        0.0529
     27 N           7.7527   -8.0607    7.4564 N.ar    1  UNL1       -0.3217
     28 C           7.8089   -7.4710    6.2160 C.ar    1  UNL1        0.2539
     29 O           8.7170   -6.6690    5.9914 O.2     1  UNL1       -0.2675
     30 C           3.4607   -3.0739    1.4611 C.ar    1  UNL1       -0.0370
     31 C           2.6808   -2.1199    0.8511 C.ar    1  UNL1       -0.0182
     32 H           0.6584    0.6825   -0.7447 H       1  UNL1        0.0660
     33 H           0.6072    0.1902    0.9655 H       1  UNL1        0.0660
     34 H           0.7205   -1.0187   -0.3582 H       1  UNL1        0.0660
     35 H           4.6746    0.5693    1.2977 H       1  UNL1        0.0655
     36 H           6.1176   -1.1476    2.3279 H       1  UNL1        0.0637
     37 H           6.2051   -3.3147    3.1016 H       1  UNL1        0.1538
     38 H           8.1269   -5.8257    4.0503 H       1  UNL1        0.0487
     39 H           7.2094   -5.2325    5.5265 H       1  UNL1        0.0487
     40 H           7.0571   -3.0772    4.6505 H       1  UNL1        0.0573
     41 H           7.9644   -3.6047    3.1516 H       1  UNL1        0.0573
     42 H           8.8937   -3.5803    5.8123 H       1  UNL1        0.2095
     43 H           5.7700   -7.7493    3.3999 H       1  UNL1        0.0515
     44 H           4.8900   -7.2264    4.8426 H       1  UNL1        0.0515
     45 H           5.8533   -9.8867    4.8682 H       1  UNL1        0.0629
     46 H           7.5570  -11.9667    5.1656 H       1  UNL1        0.0662
     47 H           9.1825  -15.3150    7.5935 H       1  UNL1        0.0660
     48 H           8.8167  -14.0849    8.7964 H       1  UNL1        0.0660
     49 H          10.4022  -14.0938    7.9044 H       1  UNL1        0.0660
     50 H          11.3905  -12.1555   10.4569 H       1  UNL1        0.0660
     51 H           9.9928  -11.1113   10.7437 H       1  UNL1        0.0660
     52 H          11.3365  -10.5857    9.6450 H       1  UNL1        0.0660
     53 H           9.2360   -9.4970    9.1530 H       1  UNL1        0.0676
     54 H           8.2333   -7.5450    8.1795 H       1  UNL1        0.1689
     55 H           3.0730   -4.0676    1.3995 H       1  UNL1        0.0637
     56 H           1.7588   -2.4909    0.4287 H       1  UNL1        0.0655
@<TRIPOS>BOND
     1     1     2    1
     2     2     3    1
     3     3     4   ar
     4     4     5   ar
     5     5     6   ar
     6     6     7    1
     7     7     8    1
     8     8     9    2
     9     8    10    1
    10    10    11    1
    11    11    12    1
    12    12    13    1
    13    10    14    1
    14    14    15    1
    15    15    16   ar
    16    16    17   ar
    17    17    18   ar
    18    18    19   ar
    19    19    20    1
    20    20    21    1
    21    19    22   ar
    22    22    23    1
    23    23    24    1
    24    22    25   ar
    25    25    26   ar
    26    17    26   ar
    27    26    27   ar
    28    27    28   ar
    29    15    28   ar
    30    28    29    2
    31     6    30   ar
    32    30    31   ar
    33     3    31   ar
    34     1    32    1
    35     1    33    1
    36     1    34    1
    37     4    35    1
    38     5    36    1
    39     7    37    1
    40    11    38    1
    41    11    39    1
    42    12    40    1
    43    12    41    1
    44    13    42    1
    45    14    43    1
    46    14    44    1
    47    16    45    1
    48    18    46    1
    49    21    47    1
    50    21    48    1
    51    21    49    1
    52    24    50    1
    53    24    51    1
    54    24    52    1
    55    25    53    1
    56    27    54    1
    57    30    55    1
    58    31    56    1
