REMARK  6 active torsions:
REMARK  status: ('A' for Active; 'I' for Inactive)
REMARK       I    between atoms: C_2  and  N_3 
REMARK    1  A    between atoms: C_2  and  C_17 
REMARK    2  A    between atoms: N_3  and  C_4 
REMARK    3  A    between atoms: C_4  and  C_5 
REMARK    4  A    between atoms: C_5  and  N_6 
REMARK    5  A    between atoms: C_5  and  C_14 
REMARK       I    between atoms: N_6  and  C_7 
REMARK    6  A    between atoms: C_7  and  C_9 
ROOT
ATOM      1  C   UNL d   1       3.387   0.561  -3.563  0.00  0.00     0.106 C 
ENDROOT
BRANCH   1   2
ATOM      2  C   UNL d   1       2.352   0.468  -2.395  0.00  0.00     0.148 C 
BRANCH   2   3
ATOM      3  N   UNL d   1       2.941   0.439  -1.064  0.00  0.00    -0.354 N 
ATOM      4  C   UNL d   1       2.231   0.113   0.067  0.00  0.00     0.272 C 
ATOM      5  O   UNL d   1       1.010  -0.030   0.054  0.00  0.00    -0.266 OA
ATOM      6  H   UNL d   1       3.958   0.366  -0.975  0.00  0.00     0.162 HD
BRANCH   4   7
ATOM      7  C   UNL d   1       3.033  -0.133   1.287  0.00  0.00     0.145 A 
ATOM      8  C   UNL d   1       2.728  -1.104   2.281  0.00  0.00     0.058 A 
ATOM      9  C   UNL d   1       3.682  -0.960   3.257  0.00  0.00     0.112 A 
ATOM     10  N   UNL d   1       4.491   0.050   2.830  0.00  0.00    -0.289 N 
ATOM     11  N   UNL d   1       4.143   0.555   1.628  0.00  0.00    -0.170 NA
ATOM     12  H   UNL d   1       5.293   0.444   3.312  0.00  0.00     0.188 HD
ENDBRANCH   4   7
ENDBRANCH   2   3
ENDBRANCH   1   2
BRANCH   1  13
ATOM     13  N   UNL d   1       4.257  -0.624  -3.630  0.00  0.00    -0.349 N 
ATOM     14  C   UNL d   1       5.125  -0.974  -2.611  0.00  0.00     0.272 C 
ATOM     15  O   UNL d   1       5.293  -0.271  -1.611  0.00  0.00    -0.266 OA
ATOM     16  H   UNL d   1       4.173  -1.244  -4.424  0.00  0.00     0.163 HD
BRANCH  14  17
ATOM     17  C   UNL d   1       5.871  -2.219  -2.789  0.00  0.00     0.145 A 
ATOM     18  C   UNL d   1       6.668  -2.568  -3.905  0.00  0.00     0.058 A 
ATOM     19  C   UNL d   1       7.294  -3.738  -3.553  0.00  0.00     0.112 A 
ATOM     20  N   UNL d   1       6.846  -4.043  -2.302  0.00  0.00    -0.289 N 
ATOM     21  N   UNL d   1       5.972  -3.148  -1.819  0.00  0.00    -0.170 NA
ATOM     22  H   UNL d   1       7.105  -4.831  -1.714  0.00  0.00     0.188 HD
ENDBRANCH  14  17
ENDBRANCH   1  13
BRANCH   1  23
ATOM     23  C   UNL d   1       2.662   0.754  -4.895  0.00  0.00     0.010 A 
ATOM     24  C   UNL d   1       3.116   1.823  -5.873  0.00  0.00     0.007 A 
ATOM     25  C   UNL d   1       3.284   0.376  -6.226  0.00  0.00     0.007 A 
ENDBRANCH   1  23
TORSDOF 6
