REMARK  15 active torsions:
REMARK  status: ('A' for Active; 'I' for Inactive)
REMARK    1  A    between atoms: C_2  and  O_5 
REMARK    2  A    between atoms: O_5  and  C_6 
REMARK       I    between atoms: C_6  and  N_8 
REMARK    3  A    between atoms: N_8  and  C_9 
REMARK    4  A    between atoms: C_9  and  C_10 
REMARK    5  A    between atoms: C_9  and  C_17 
REMARK    6  A    between atoms: C_10  and  C_11 
REMARK    7  A    between atoms: C_17  and  O_18 
REMARK    8  A    between atoms: C_17  and  C_19 
REMARK    9  A    between atoms: C_19  and  N_20 
REMARK   10  A    between atoms: N_20  and  C_21 
REMARK   11  A    between atoms: N_20  and  N_34 
REMARK   12  A    between atoms: C_21  and  C_22 
REMARK   13  A    between atoms: C_25  and  C_26 
REMARK       I    between atoms: N_34  and  C_35 
REMARK   14  A    between atoms: C_35  and  O_37 
REMARK   15  A    between atoms: O_37  and  C_38 
ROOT
ATOM      1  N   UNL d   1       8.221  -5.407  -3.530  0.00  0.00    -0.220 NA
ENDROOT
BRANCH   1   2
ATOM      2  C   UNL d   1       8.073  -4.258  -2.586  0.00  0.00     0.148 C 
BRANCH   2   3
ATOM      3  C   UNL d   1       6.613  -3.961  -2.170  0.00  0.00     0.156 C 
BRANCH   3   4
ATOM      4  C   UNL d   1       6.235  -2.724  -1.384  0.00  0.00     0.120 C 
BRANCH   4   5
ATOM      5  N   UNL d   1       4.704  -2.566  -1.292  0.00  0.00    -0.329 N 
ATOM      6  C   UNL d   1       4.127  -1.431  -0.758  0.00  0.00     0.361 C 
ATOM      7  O   UNL d   1       4.780  -0.557  -0.298  0.00  0.00    -0.238 OA
ATOM      8  H   UNL d   1       4.154  -3.110  -1.945  0.00  0.00     0.165 HD
BRANCH   6   9
ATOM      9  O   UNL d   1       2.772  -1.277  -0.725  0.00  0.00    -0.294 OA
BRANCH   9  10
ATOM     10  C   UNL d   1       2.416  -0.048   0.049  0.00  0.00     0.061 C 
ATOM     11  C   UNL d   1       0.893  -0.005   0.072  0.00  0.00     0.046 C 
ATOM     12  C   UNL d   1       2.909   1.282  -0.603  0.00  0.00     0.046 C 
ATOM     13  C   UNL d   1       2.893  -0.093   1.536  0.00  0.00     0.046 C 
ENDBRANCH   9  10
ENDBRANCH   6   9
ENDBRANCH   4   5
BRANCH   4  14
ATOM     14  C   UNL d   1       6.982  -2.825  -0.103  0.00  0.00     0.066 C 
BRANCH  14  15
ATOM     15  C   UNL d   1       7.082  -1.529   0.609  0.00  0.00    -0.056 C 
ATOM     16  C   UNL d   1       7.062  -0.270  -0.036  0.00  0.00     0.007 C 
ATOM     17  C   UNL d   1       6.869   0.882   0.709  0.00  0.00     0.001 C 
ATOM     18  C   UNL d   1       6.897   0.787   2.089  0.00  0.00     0.000 C 
ATOM     19  C   UNL d   1       7.096  -0.446   2.719  0.00  0.00     0.001 C 
ATOM     20  C   UNL d   1       7.134  -1.613   1.985  0.00  0.00     0.007 C 
ENDBRANCH  14  15
ENDBRANCH   4  14
ENDBRANCH   3   4
BRANCH   3  21
ATOM     21  O   UNL d   1       6.030  -3.409  -3.288  0.00  0.00    -0.392 OA
ATOM     22  H   UNL d   1       6.666  -2.832  -3.735  0.00  0.00     0.210 HD
ENDBRANCH   3  21
ENDBRANCH   2   3
ENDBRANCH   1   2
BRANCH   1  23
ATOM     23  C   UNL d   1       7.591  -5.224  -4.912  0.00  0.00     0.152 C 
BRANCH  23  24
ATOM     24  C   UNL d   1       6.057  -5.140  -5.061  0.00  0.00    -0.043 C 
ATOM     25  C   UNL d   1       5.403  -3.924  -5.395  0.00  0.00     0.009 C 
ATOM     26  C   UNL d   1       4.128  -3.681  -4.832  0.00  0.00     0.014 C 
ATOM     27  C   UNL d   1       3.346  -4.721  -4.322  0.00  0.00    -0.007 C 
ATOM     28  C   UNL d   1       3.919  -5.999  -4.282  0.00  0.00     0.014 C 
ATOM     29  C   UNL d   1       5.269  -6.202  -4.609  0.00  0.00     0.009 C 
BRANCH  27  30
ATOM     30  C   UNL d   1       1.952  -4.454  -3.969  0.00  0.00     0.066 A 
ATOM     31  C   UNL d   1       1.311  -4.965  -2.845  0.00  0.00     0.032 A 
ATOM     32  C   UNL d   1      -0.062  -4.760  -2.719  0.00  0.00     0.004 A 
ATOM     33  C   UNL d   1      -0.745  -4.047  -3.699  0.00  0.00     0.019 A 
ATOM     34  C   UNL d   1      -0.024  -3.538  -4.760  0.00  0.00     0.117 A 
ATOM     35  N   UNL d   1       1.298  -3.718  -4.905  0.00  0.00    -0.260 NA
ENDBRANCH  27  30
ENDBRANCH  23  24
ENDBRANCH   1  23
BRANCH   1  36
ATOM     36  N   UNL d   1       9.658  -5.706  -3.677  0.00  0.00    -0.264 N 
ATOM     37  C   UNL d   1      10.066  -6.863  -4.322  0.00  0.00     0.376 C 
ATOM     38  O   UNL d   1       9.277  -7.677  -4.785  0.00  0.00    -0.237 OA
ATOM     39  H   UNL d   1      10.361  -5.116  -3.242  0.00  0.00     0.186 HD
BRANCH  37  40
ATOM     40  O   UNL d   1      11.432  -6.976  -4.425  0.00  0.00    -0.293 OA
BRANCH  40  41
ATOM     41  C   UNL d   1      11.940  -8.129  -5.176  0.00  0.00     0.061 C 
ATOM     42  C   UNL d   1      11.504  -9.450  -4.523  0.00  0.00     0.046 C 
ATOM     43  C   UNL d   1      11.496  -8.066  -6.647  0.00  0.00     0.046 C 
ATOM     44  C   UNL d   1      13.483  -8.106  -5.167  0.00  0.00     0.046 C 
ENDBRANCH  40  41
ENDBRANCH  37  40
ENDBRANCH   1  36
TORSDOF 15
