REMARK  7 active torsions:
REMARK  status: ('A' for Active; 'I' for Inactive)
REMARK    1  A    between atoms: C_2  and  C_3 
REMARK       I    between atoms: C_2  and  N_20 
REMARK    2  A    between atoms: C_3  and  N_4 
REMARK    3  A    between atoms: N_4  and  C_5 
REMARK    4  A    between atoms: C_8  and  C_9 
REMARK       I    between atoms: C_9  and  N_11 
REMARK    5  A    between atoms: N_11  and  C_12 
REMARK    6  A    between atoms: C_12  and  C_13 
REMARK    7  A    between atoms: N_20  and  C_21 
ROOT
ATOM      1  C   UNL d   1       2.614   2.549  -2.684  0.00  0.00     0.028 A 
ATOM      2  C   UNL d   1       2.181   3.874  -2.793  0.00  0.00     0.030 A 
ATOM      3  C   UNL d   1       2.739   4.734  -3.766  0.00  0.00     0.019 A 
ATOM      4  C   UNL d   1       3.803   4.310  -4.583  0.00  0.00     0.032 A 
ATOM      5  C   UNL d   1       4.250   2.999  -4.449  0.00  0.00     0.019 A 
ATOM      6  C   UNL d   1       3.673   2.151  -3.504  0.00  0.00     0.030 A 
ENDROOT
BRANCH   1   7
ATOM      7  N   UNL d   1       2.077   1.645  -1.778  0.00  0.00    -0.381 N 
ATOM      8  H   UNL d   1       1.114   1.706  -1.465  0.00  0.00     0.160 HD
BRANCH   7   9
ATOM      9  C   UNL d   1       3.005   0.880  -0.945  0.00  0.00     0.223 C 
BRANCH   9  10
ATOM     10  C   UNL d   1       2.316  -0.040   0.076  0.00  0.00     0.239 C 
ATOM     11  O   UNL d   1       1.087  -0.114   0.174  0.00  0.00    -0.271 OA
ATOM     12  N   UNL d   1       3.103  -0.905   0.818  0.00  0.00    -0.323 N 
ATOM     13  H   UNL d   1       2.579  -1.623   1.306  0.00  0.00     0.169 HD
BRANCH  12  14
ATOM     14  C   UNL d   1       4.508  -0.910   0.943  0.00  0.00     0.073 A 
ATOM     15  C   UNL d   1       5.189  -2.128   1.043  0.00  0.00     0.033 A 
ATOM     16  C   UNL d   1       6.584  -2.140   1.200  0.00  0.00     0.002 A 
ATOM     17  C   UNL d   1       7.310  -0.947   1.191  0.00  0.00     0.003 A 
ATOM     18  C   UNL d   1       6.638   0.264   1.113  0.00  0.00     0.044 A 
ATOM     19  C   UNL d   1       5.253   0.269   1.049  0.00  0.00     0.143 A 
ATOM     20  F   UNL d   1       4.645   1.449   1.222  0.00  0.00    -0.204 F 
ENDBRANCH  12  14
ENDBRANCH   9  10
ENDBRANCH   7   9
ENDBRANCH   1   7
BRANCH   4  21
ATOM     21  C   UNL d   1       4.465   5.273  -5.522  0.00  0.00     0.251 C 
ATOM     22  O   UNL d   1       4.050   6.434  -5.599  0.00  0.00    -0.268 OA
ATOM     23  N   UNL d   1       5.555   4.837  -6.256  0.00  0.00    -0.351 N 
ATOM     24  H   UNL d   1       5.910   3.894  -6.205  0.00  0.00     0.163 HD
BRANCH  23  25
ATOM     25  C   UNL d   1       6.245   5.736  -7.151  0.00  0.00     0.187 C 
BRANCH  25  26
ATOM     26  C   UNL d   1       7.401   5.103  -7.851  0.00  0.00     0.070 A 
ATOM     27  C   UNL d   1       8.493   5.673  -8.476  0.00  0.00     0.036 A 
ATOM     28  C   UNL d   1       9.246   4.617  -9.036  0.00  0.00     0.027 A 
ATOM     29  C   UNL d   1       8.574   3.461  -8.713  0.00  0.00     0.142 A 
ATOM     30  O   UNL d   1       7.453   3.741  -7.989  0.00  0.00    -0.325 OA
ENDBRANCH  25  26
ENDBRANCH  23  25
ENDBRANCH   4  21
TORSDOF 7
