@<TRIPOS>MOLECULE
*****
 57 61 0 0 0
SMALL
GASTEIGER

@<TRIPOS>ATOM
      1 C           5.6415   -6.4477    1.3438 C.3     1  UNL1       -0.0201
      2 C           5.1787   -5.0708    0.9901 C.2     1  UNL1        0.0702
      3 N           6.0044   -4.0879    0.7600 N.2     1  UNL1       -0.1788
      4 N           5.2205   -2.9997    0.3394 N.am    1  UNL1       -0.1578
      5 C           5.7803   -1.6644    0.1488 C.3     1  UNL1        0.1640
      6 N           6.8290   -1.7501   -0.8494 N.pl3   1  UNL1       -0.3149
      7 C           8.1026   -1.6211   -0.3086 C.ar    1  UNL1        0.0428
      8 C           9.2672   -1.9651   -0.9812 C.ar    1  UNL1       -0.0397
      9 C          10.4929   -1.9194   -0.3070 C.ar    1  UNL1       -0.0599
     10 C          10.5527   -1.5196    1.0337 C.ar    1  UNL1       -0.0606
     11 C           9.3819   -1.1943    1.7222 C.ar    1  UNL1       -0.0464
     12 C           8.1703   -1.2781    1.0470 C.ar    1  UNL1        0.0321
     13 S           6.5423   -1.0346    1.7045 S.3     1  UNL1       -0.0798
     14 C           3.8797   -3.3178    0.1753 C.2     1  UNL1        0.2715
     15 O           2.9711   -2.6661   -0.3277 O.2     1  UNL1       -0.2680
     16 C           3.7705   -4.6581    0.8200 C.2     1  UNL1        0.0774
     17 C           2.6286   -5.2099    1.2826 C.2     1  UNL1        0.0148
     18 C           2.6127   -6.4698    2.1415 C.3     1  UNL1       -0.0260
     19 N           1.3658   -4.6472    1.0749 N.pl3   1  UNL1       -0.3464
     20 C           0.1677   -5.1500    1.6966 C.3     1  UNL1        0.0128
     21 C          -1.0736   -4.3123    1.4624 C.3     1  UNL1       -0.0090
     22 C          -2.2937   -4.9224    2.1043 C.2     1  UNL1        0.0119
     23 C          -2.4034   -5.5995    3.2587 C.ar    1  UNL1        0.0512
     24 C          -1.4987   -5.9830    4.2952 C.ar    1  UNL1       -0.0482
     25 C          -1.9459   -6.6720    5.3499 C.ar    1  UNL1       -0.0608
     26 C          -3.3451   -7.0102    5.4881 C.ar    1  UNL1       -0.0555
     27 C          -4.2791   -6.6829    4.5731 C.ar    1  UNL1        0.0098
     28 C          -3.8366   -5.9496    3.3652 C.ar    1  UNL1        0.2088
     29 N          -4.5102   -5.5383    2.3574 N.2     1  UNL1       -0.2345
     30 C          -3.6237   -4.8309    1.3963 C.3     1  UNL1        0.1732
     31 C          -3.6114   -5.5492    0.0540 C.3     1  UNL1        0.0017
     32 H           6.7186   -6.5457    1.2038 H       1  UNL1        0.0293
     33 H           5.1396   -7.1828    0.7038 H       1  UNL1        0.0293
     34 H           5.4456   -6.6558    2.3977 H       1  UNL1        0.0293
     35 H           4.9927   -0.9637   -0.1502 H       1  UNL1        0.0852
     36 H           6.6339   -1.6572   -1.8303 H       1  UNL1        0.1487
     37 H           9.2292   -2.3114   -2.0087 H       1  UNL1        0.0636
     38 H          11.4041   -2.2139   -0.8231 H       1  UNL1        0.0618
     39 H          11.5133   -1.4855    1.5434 H       1  UNL1        0.0618
     40 H           9.4240   -0.9103    2.7686 H       1  UNL1        0.0629
     41 H           3.5667   -6.9425    2.3023 H       1  UNL1        0.0290
     42 H           1.9840   -7.2391    1.6847 H       1  UNL1        0.0290
     43 H           2.2394   -6.2538    3.1510 H       1  UNL1        0.0290
     44 H           1.3455   -3.7260    0.6256 H       1  UNL1        0.1458
     45 H           0.3802   -5.1612    2.7572 H       1  UNL1        0.0464
     46 H          -0.0184   -6.1777    1.3580 H       1  UNL1        0.0464
     47 H          -1.2127   -4.2170    0.3811 H       1  UNL1        0.0328
     48 H          -0.9475   -3.2944    1.8455 H       1  UNL1        0.0328
     49 H          -0.4498   -5.7359    4.2862 H       1  UNL1        0.0626
     50 H          -1.2454   -6.9632    6.1311 H       1  UNL1        0.0618
     51 H          -3.6033   -7.5408    6.4030 H       1  UNL1        0.0620
     52 H          -5.3176   -6.9461    4.7305 H       1  UNL1        0.0683
     53 H          -5.5173   -5.6625    2.2668 H       1  UNL1        0.4462
     54 H          -3.9636   -3.7935    1.3121 H       1  UNL1        0.1111
     55 H          -3.3435   -6.6079    0.1551 H       1  UNL1        0.0297
     56 H          -2.8787   -5.0986   -0.6259 H       1  UNL1        0.0297
     57 H          -4.5835   -5.4883   -0.4435 H       1  UNL1        0.0297
@<TRIPOS>UNITY_ATOM_ATTR
29 1
charge 1
@<TRIPOS>BOND
     1     1     2    1
     2     2     3    2
     3     3     4    1
     4     5     6    1
     5     6     7    1
     6     7     8   ar
     7     8     9   ar
     8     9    10   ar
     9    10    11   ar
    10    11    12   ar
    11     7    12   ar
    12    12    13    1
    13     5    13    1
    14     4    14   am
    15    14    15    2
    16    14    16    1
    17     2    16    1
    18    16    17    2
    19    17    18    1
    20    17    19    1
    21    19    20    1
    22    20    21    1
    23    21    22    1
    24    22    23    2
    25    23    24   ar
    26    24    25   ar
    27    25    26   ar
    28    26    27   ar
    29    27    28   ar
    30    23    28   ar
    31    28    29    2
    32    29    30    1
    33    22    30    1
    34    30    31    1
    35     5     4    1
    36     1    32    1
    37     1    33    1
    38     1    34    1
    39     5    35    1
    40     6    36    1
    41     8    37    1
    42     9    38    1
    43    10    39    1
    44    11    40    1
    45    18    41    1
    46    18    42    1
    47    18    43    1
    48    19    44    1
    49    20    45    1
    50    20    46    1
    51    21    47    1
    52    21    48    1
    53    24    49    1
    54    25    50    1
    55    26    51    1
    56    27    52    1
    57    29    53    1
    58    30    54    1
    59    31    55    1
    60    31    56    1
    61    31    57    1
