@<TRIPOS>MOLECULE
*****
 34 34 0 0 0
SMALL
GASTEIGER

@<TRIPOS>ATOM
      1 C           1.0329   -0.0670   -0.0460 C.3     1  UNL1       -0.0649
      2 C           2.5422   -0.0667   -0.0456 C.3     1  UNL1       -0.0504
      3 C           3.1461   -1.4753    0.0357 C.3     1  UNL1       -0.0089
      4 C           4.6406   -1.4097    0.0387 C.ar    1  UNL1        0.0635
      5 C           5.4293   -0.2367    0.0398 C.ar    1  UNL1       -0.0089
      6 C           6.7360   -0.6517    0.0443 C.ar    1  UNL1        0.1204
      7 C           7.9719    0.0764    0.0477 C.2     1  UNL1        0.2622
      8 O           9.0463   -0.5197    0.0528 O.2     1  UNL1       -0.2685
      9 N           7.8663    1.4621    0.0452 N.am    1  UNL1       -0.3054
     10 C           9.0337    2.3606    0.0487 C.3     1  UNL1        0.0265
     11 C           9.8712    2.1293    1.3149 C.3     1  UNL1       -0.0442
     12 C           9.8815    2.1257   -1.2100 C.3     1  UNL1       -0.0442
     13 C           8.5946    3.8418    0.0448 C.3     1  UNL1       -0.0442
     14 N           6.6644   -2.0226    0.0459 N.ar    1  UNL1       -0.2723
     15 N           5.4036   -2.5084    0.0421 N.ar    1  UNL1       -0.1782
     16 H           0.6677    0.9635   -0.1044 H       1  UNL1        0.0230
     17 H           0.6479   -0.5174    0.8724 H       1  UNL1        0.0230
     18 H           0.6471   -0.6198   -0.9060 H       1  UNL1        0.0230
     19 H           2.8888    0.5340    0.8059 H       1  UNL1        0.0266
     20 H           2.8965    0.4346   -0.9564 H       1  UNL1        0.0266
     21 H           2.8012   -2.0744   -0.8163 H       1  UNL1        0.0329
     22 H           2.7979   -1.9737    0.9489 H       1  UNL1        0.0329
     23 H           5.0777    0.7818    0.0366 H       1  UNL1        0.0659
     24 H           6.9474    1.8833    0.0409 H       1  UNL1        0.1496
     25 H          10.2261    1.0982    1.3896 H       1  UNL1        0.0250
     26 H           9.2801    2.3345    2.2153 H       1  UNL1        0.0250
     27 H          10.7535    2.7770    1.3302 H       1  UNL1        0.0250
     28 H          10.2369    1.0944   -1.2789 H       1  UNL1        0.0250
     29 H          10.7639    2.7733   -1.2200 H       1  UNL1        0.0250
     30 H           9.2976    2.3282   -2.1157 H       1  UNL1        0.0250
     31 H           7.9938    4.0920    0.9263 H       1  UNL1        0.0250
     32 H           8.0009    4.0895   -0.8423 H       1  UNL1        0.0250
     33 H           9.4704    4.5052    0.0474 H       1  UNL1        0.0250
     34 H           7.4437   -2.6752    0.0502 H       1  UNL1        0.1891
@<TRIPOS>BOND
     1     1     2    1
     2     2     3    1
     3     3     4    1
     4     4     5   ar
     5     5     6   ar
     6     6     7    1
     7     7     8    2
     8     7     9   am
     9     9    10    1
    10    10    11    1
    11    10    12    1
    12    10    13    1
    13     6    14   ar
    14    14    15   ar
    15     4    15   ar
    16     1    16    1
    17     1    17    1
    18     1    18    1
    19     2    19    1
    20     2    20    1
    21     3    21    1
    22     3    22    1
    23     5    23    1
    24     9    24    1
    25    11    25    1
    26    11    26    1
    27    11    27    1
    28    12    28    1
    29    12    29    1
    30    12    30    1
    31    13    31    1
    32    13    32    1
    33    13    33    1
    34    14    34    1
