@<TRIPOS>MOLECULE
*****
 57 60 0 0 0
SMALL
GASTEIGER

@<TRIPOS>ATOM
      1 C           0.8745    0.0058    0.1592 C.3     1  UNL1       -0.0653
      2 C           2.3653   -0.0249    0.4019 C.3     1  UNL1       -0.0559
      3 C           2.7792    1.3441    1.1158 C.3     1  UNL1       -0.0533
      4 C           4.3080    1.4150    1.5242 C.3     1  UNL1       -0.0515
      5 C           5.0673    2.7905    1.8943 C.3     1  UNL1       -0.0348
      6 C           6.7029    3.1400    1.7577 C.3     1  UNL1        0.0271
      7 N           7.1065    4.5175    1.8904 N.ar    1  UNL1       -0.3021
      8 C           6.6473    5.6930    1.3286 C.ar    1  UNL1        0.1921
      9 S           5.1728    6.1370    0.4339 S.3     1  UNL1       -0.0787
     10 C           4.1254    4.9178   -0.6637 C.3     1  UNL1        0.0772
     11 C           3.1676    3.5384   -1.2991 C.3     1  UNL1        0.2866
     12 N           3.8557    1.8551   -1.1957 N.2     1  UNL1       -0.2201
     13 C           4.8368    1.2047   -1.7871 C.ar    1  UNL1        0.2727
     14 C           5.9929    0.5170   -1.0606 C.ar    1  UNL1        0.0160
     15 C           6.5983    1.5296   -0.4358 C.ar    1  UNL1       -0.0551
     16 C           6.3578    2.8853   -0.9803 C.ar    1  UNL1       -0.0551
     17 C           5.8990    3.1319   -2.2352 C.ar    1  UNL1        0.0159
     18 C           5.0283    2.0996   -2.9196 C.ar    1  UNL1        0.2734
     19 N           3.9060    2.2935   -3.5858 N.am    1  UNL1       -0.1377
     20 C           2.7387    3.2300   -2.7717 C.2     1  UNL1        0.4508
     21 O           1.7561    3.4851   -3.3599 O.2     1  UNL1       -0.2116
     22 N           7.4113    6.6428    1.8519 N.ar    1  UNL1       -0.1222
     23 N           8.4170    6.0668    2.6292 N.ar    1  UNL1       -0.1283
     24 C           8.3418    4.7602    2.4910 C.ar    1  UNL1        0.1649
     25 C           9.1601    3.6750    3.1119 C.ar    1  UNL1        0.0194
     26 C           9.8460    2.6559    2.3929 C.ar    1  UNL1       -0.0497
     27 C          10.4006    1.5370    3.0551 C.ar    1  UNL1       -0.0427
     28 C          10.3788    1.4877    4.4447 C.ar    1  UNL1        0.0410
     29 CL         11.1071    0.1729    5.2811 Cl      1  UNL1       -0.0835
     30 C           9.7519    2.5023    5.1615 C.ar    1  UNL1       -0.0427
     31 C           9.0677    3.5263    4.4964 C.ar    1  UNL1       -0.0497
     32 H           0.5383   -0.9497   -0.2512 H       1  UNL1        0.0230
     33 H           0.6119    0.7885   -0.5684 H       1  UNL1        0.0230
     34 H           0.3831    0.2127    1.1063 H       1  UNL1        0.0230
     35 H           2.7415   -0.3156   -0.5975 H       1  UNL1        0.0263
     36 H           2.7347   -0.8599    0.9916 H       1  UNL1        0.0263
     37 H           2.1523    1.5394    1.9761 H       1  UNL1        0.0265
     38 H           2.4649    2.1599    0.4487 H       1  UNL1        0.0265
     39 H           4.6914    1.2078    0.5798 H       1  UNL1        0.0266
     40 H           4.6407    0.4992    2.0136 H       1  UNL1        0.0266
     41 H           4.7713    3.0955    2.8968 H       1  UNL1        0.0282
     42 H           4.5493    3.4834    1.2645 H       1  UNL1        0.0282
     43 H           7.3736    3.0221    0.8754 H       1  UNL1        0.0493
     44 H           7.2769    2.4300    2.3579 H       1  UNL1        0.0493
     45 H           3.7932    4.7405    0.3214 H       1  UNL1        0.0453
     46 H           4.7754    5.3192   -1.4333 H       1  UNL1        0.0453
     47 H           3.3540    4.3048   -2.0842 H       1  UNL1        0.1228
     48 H           3.1033    1.1588   -1.2144 H       1  UNL1        0.4468
     49 H           6.0451   -0.3847   -0.4305 H       1  UNL1        0.0685
     50 H           6.7852    1.2522    0.6436 H       1  UNL1        0.0620
     51 H           6.0620    3.6652   -0.2682 H       1  UNL1        0.0620
     52 H           5.4063    4.0605   -2.3254 H       1  UNL1        0.0685
     53 H           3.2293    1.5126   -3.7244 H       1  UNL1        0.4475
     54 H           9.9391    2.6826    1.3089 H       1  UNL1        0.0625
     55 H          10.8747    0.7244    2.5012 H       1  UNL1        0.0632
     56 H           9.8031    2.5211    6.2465 H       1  UNL1        0.0632
     57 H           8.4470    4.2121    5.0694 H       1  UNL1        0.0625
@<TRIPOS>UNITY_ATOM_ATTR
12 1
charge 1
19 1
charge 1
@<TRIPOS>BOND
     1     1     2    1
     2     2     3    1
     3     3     4    1
     4     4     5    1
     5     5     6    1
     6     6     7    1
     7     7     8   ar
     8     8     9    1
     9     9    10    1
    10    10    11    1
    11    11    12    1
    12    12    13    2
    13    13    14   ar
    14    14    15   ar
    15    15    16   ar
    16    16    17   ar
    17    17    18   ar
    18    13    18   ar
    19    18    19    2
    20    19    20   am
    21    11    20    1
    22    20    21    2
    23     8    22   ar
    24    22    23   ar
    25    23    24   ar
    26     7    24   ar
    27    24    25    1
    28    25    26   ar
    29    26    27   ar
    30    27    28   ar
    31    28    29    1
    32    28    30   ar
    33    30    31   ar
    34    25    31   ar
    35     1    32    1
    36     1    33    1
    37     1    34    1
    38     2    35    1
    39     2    36    1
    40     3    37    1
    41     3    38    1
    42     4    39    1
    43     4    40    1
    44     5    41    1
    45     5    42    1
    46     6    43    1
    47     6    44    1
    48    10    45    1
    49    10    46    1
    50    11    47    1
    51    12    48    1
    52    14    49    1
    53    15    50    1
    54    16    51    1
    55    17    52    1
    56    19    53    1
    57    26    54    1
    58    27    55    1
    59    30    56    1
    60    31    57    1
