@<TRIPOS>MOLECULE
*****
 62 66 0 0 0
SMALL
GASTEIGER

@<TRIPOS>ATOM
      1 O           1.0116    0.0022   -0.1837 O.2     1  UNL1       -0.2749
      2 C           2.2349    0.0615   -0.0536 C.2     1  UNL1        0.2233
      3 C           2.9377    0.3820    1.2895 C.3     1  UNL1        0.0735
      4 S           1.6606    0.7007    2.5954 S.3     1  UNL1       -0.1085
      5 C           2.6387    0.9357    4.1273 C.3     1  UNL1        0.1563
      6 N           2.3872    2.2887    4.5899 N.pl3   1  UNL1       -0.3156
      7 C           2.3921    2.5928    5.9434 C.ar    1  UNL1        0.0414
      8 C           2.3707    3.9145    6.3999 C.ar    1  UNL1       -0.0400
      9 C           2.4610    4.2146    7.7728 C.ar    1  UNL1       -0.0600
     10 C           2.5537    3.1990    8.7198 C.ar    1  UNL1       -0.0609
     11 C           2.5982    1.8864    8.2864 C.ar    1  UNL1       -0.0478
     12 C           2.5522    1.6046    6.9117 C.ar    1  UNL1        0.0593
     13 C           2.6361    0.2114    6.4815 C.2     1  UNL1        0.2669
     14 O           3.0129   -0.6036    7.3248 O.2     1  UNL1       -0.2683
     15 N           2.2570   -0.0429    5.1610 N.am    1  UNL1       -0.1859
     16 N           2.1341   -1.4315    4.7184 N.am    1  UNL1       -0.2292
     17 C           1.5782   -2.3610    5.5954 C.2     1  UNL1        0.2296
     18 O           1.3079   -2.1894    6.7797 O.2     1  UNL1       -0.2743
     19 C           1.2228   -3.6939    4.9903 C.3     1  UNL1        0.0293
     20 C           0.9162   -4.6323    6.1685 C.3     1  UNL1       -0.0165
     21 C           0.5801   -6.0127    5.7578 C.2     1  UNL1        0.0081
     22 C           1.0904   -7.1225    6.2918 C.ar    1  UNL1        0.0509
     23 C           2.0099   -7.3717    7.3492 C.ar    1  UNL1       -0.0482
     24 C           2.3505   -8.6423    7.6052 C.ar    1  UNL1       -0.0608
     25 C           1.8031   -9.7456    6.8285 C.ar    1  UNL1       -0.0555
     26 C           0.9193   -9.5877    5.8226 C.ar    1  UNL1        0.0098
     27 C           0.4973   -8.2132    5.5046 C.ar    1  UNL1        0.2086
     28 N          -0.3134   -7.7829    4.6133 N.2     1  UNL1       -0.2369
     29 C          -0.3958   -6.3118    4.6660 C.3     1  UNL1        0.1660
     30 N           2.9954   -0.1959   -1.1625 N.am    1  UNL1       -0.3075
     31 C           4.4364   -0.2374   -1.2513 C.3     1  UNL1        0.0698
     32 C           4.8757   -0.4226   -2.6572 C.ar    1  UNL1        0.1218
     33 C           5.3307    0.4751   -3.6004 C.ar    1  UNL1       -0.0192
     34 C           5.6375   -0.2714   -4.7600 C.ar    1  UNL1       -0.0236
     35 C           5.3626   -1.5836   -4.4529 C.ar    1  UNL1        0.0921
     36 O           4.8976   -1.6882   -3.1753 O.2     1  UNL1       -0.4662
     37 H           3.5666    1.2676    1.1570 H       1  UNL1        0.0472
     38 H           3.5505   -0.4803    1.5705 H       1  UNL1        0.0472
     39 H           3.7128    0.8424    3.9252 H       1  UNL1        0.0847
     40 H           1.8683    2.8943    3.9653 H       1  UNL1        0.1487
     41 H           2.3036    4.7387    5.6950 H       1  UNL1        0.0636
     42 H           2.4612    5.2492    8.1071 H       1  UNL1        0.0618
     43 H           2.5985    3.4178    9.7836 H       1  UNL1        0.0618
     44 H           2.6659    1.0759    9.0107 H       1  UNL1        0.0626
     45 H           1.8557   -1.5081    3.7414 H       1  UNL1        0.1731
     46 H           2.0412   -4.0878    4.3789 H       1  UNL1        0.0362
     47 H           0.3314   -3.5592    4.3682 H       1  UNL1        0.0362
     48 H           0.0872   -4.2465    6.7773 H       1  UNL1        0.0317
     49 H           1.7939   -4.6518    6.8302 H       1  UNL1        0.0317
     50 H           2.4131   -6.5497    7.9340 H       1  UNL1        0.0626
     51 H           3.0505   -8.8657    8.4078 H       1  UNL1        0.0618
     52 H           2.1525  -10.7371    7.1101 H       1  UNL1        0.0620
     53 H           0.5386  -10.4351    5.2670 H       1  UNL1        0.0683
     54 H          -0.8051   -8.3848    3.9575 H       1  UNL1        0.4459
     55 H          -1.4177   -6.0140    4.9172 H       1  UNL1        0.1077
     56 H          -0.0798   -5.9055    3.7020 H       1  UNL1        0.1077
     57 H           2.4568   -0.3938   -2.0018 H       1  UNL1        0.1492
     58 H           4.8055   -1.0310   -0.5961 H       1  UNL1        0.0542
     59 H           4.8112    0.7203   -0.8787 H       1  UNL1        0.0542
     60 H           5.4306    1.5413   -3.4562 H       1  UNL1        0.0652
     61 H           6.0161    0.1026   -5.7018 H       1  UNL1        0.0649
     62 H           5.4427   -2.5076   -5.0115 H       1  UNL1        0.1029
@<TRIPOS>UNITY_ATOM_ATTR
28 1
charge 1
@<TRIPOS>BOND
     1     1     2    2
     2     2     3    1
     3     3     4    1
     4     4     5    1
     5     5     6    1
     6     6     7    1
     7     7     8   ar
     8     8     9   ar
     9     9    10   ar
    10    10    11   ar
    11    11    12   ar
    12     7    12   ar
    13    12    13    1
    14    13    14    2
    15    13    15   am
    16     5    15    1
    17    15    16    1
    18    16    17   am
    19    17    18    2
    20    17    19    1
    21    19    20    1
    22    20    21    1
    23    21    22    2
    24    22    23   ar
    25    23    24   ar
    26    24    25   ar
    27    25    26   ar
    28    26    27   ar
    29    22    27   ar
    30    27    28    2
    31    28    29    1
    32    21    29    1
    33     2    30   am
    34    30    31    1
    35    31    32    1
    36    32    33   ar
    37    33    34   ar
    38    34    35   ar
    39    35    36   ar
    40    32    36   ar
    41     3    37    1
    42     3    38    1
    43     5    39    1
    44     6    40    1
    45     8    41    1
    46     9    42    1
    47    10    43    1
    48    11    44    1
    49    16    45    1
    50    19    46    1
    51    19    47    1
    52    20    48    1
    53    20    49    1
    54    23    50    1
    55    24    51    1
    56    25    52    1
    57    26    53    1
    58    28    54    1
    59    29    55    1
    60    29    56    1
    61    30    57    1
    62    31    58    1
    63    31    59    1
    64    33    60    1
    65    34    61    1
    66    35    62    1
