@<TRIPOS>MOLECULE
*****
 50 52 0 0 0
SMALL
GASTEIGER

@<TRIPOS>ATOM
      1 C           1.9042    0.1393    0.8757 C.3     1  UNL1       -0.0610
      2 C           1.1419    0.0274   -0.4465 C.3     1  UNL1       -0.0280
      3 C           0.3547   -1.2913   -0.5560 C.3     1  UNL1       -0.0476
      4 C          -0.8702   -1.3036    0.3572 C.3     1  UNL1       -0.0368
      5 C          -1.7403   -0.0669    0.1218 C.3     1  UNL1        0.0150
      6 N          -0.9573    1.1565    0.2750 N.am    1  UNL1       -0.2972
      7 C          -1.2192    2.1856    1.1952 C.2     1  UNL1        0.2502
      8 O          -0.5564    3.2214    1.2506 O.2     1  UNL1       -0.2699
      9 C          -2.3637    2.0659    2.1536 C.ar    1  UNL1        0.0800
     10 C          -3.3894    3.0468    2.1698 C.ar    1  UNL1       -0.0237
     11 C          -4.4742    2.9415    3.0643 C.ar    1  UNL1        0.0490
     12 N          -5.5365    3.9252    3.0475 N.pl3   1  UNL1       -0.2162
     13 S          -6.8467    3.8011    4.1090 S.O2    1  UNL1        0.0726
     14 O          -7.5710    2.5935    3.7564 O.2     1  UNL1       -0.1500
     15 O          -6.3659    4.0098    5.4555 O.2     1  UNL1       -0.1500
     16 C          -7.9485    5.1629    3.7704 C.ar    1  UNL1        0.1149
     17 C          -7.4790    6.4794    3.8006 C.ar    1  UNL1       -0.0347
     18 C          -8.3944    7.5400    3.7643 C.ar    1  UNL1       -0.0535
     19 C          -9.7661    7.2943    3.6401 C.ar    1  UNL1        0.0157
     20 C         -10.2289    5.9731    3.6064 C.ar    1  UNL1        0.2750
     21 N         -11.6755    5.7091    3.5618 N.pl3   1  UNL1        0.0797
     22 O         -12.4386    6.6842    3.5126 O.2     1  UNL1        0.0414
     23 O         -12.0453    4.5271    3.5814 O.co2   1  UNL1       -0.5760
     24 C          -9.3260    4.9027    3.6736 C.ar    1  UNL1        0.0422
     25 C          -4.4915    1.8551    3.9491 C.ar    1  UNL1       -0.0358
     26 C          -3.4684    0.9042    3.9640 C.ar    1  UNL1       -0.0176
     27 C          -2.4005    1.0218    3.0837 C.ar    1  UNL1        0.1291
     28 O          -1.3867    0.1105    3.1393 O.3     1  UNL1       -0.5060
     29 C           0.1967    1.2329   -0.6303 C.3     1  UNL1        0.0175
     30 H           2.5755   -0.7140    1.0165 H       1  UNL1        0.0233
     31 H           1.2320    0.1867    1.7373 H       1  UNL1        0.0233
     32 H           2.5137    1.0494    0.8812 H       1  UNL1        0.0233
     33 H           1.8892    0.0351   -1.2512 H       1  UNL1        0.0313
     34 H           0.9986   -2.1500   -0.3304 H       1  UNL1        0.0269
     35 H           0.0170   -1.4182   -1.5928 H       1  UNL1        0.0269
     36 H          -0.5275   -1.3482    1.3955 H       1  UNL1        0.0280
     37 H          -1.4601   -2.2091    0.1821 H       1  UNL1        0.0280
     38 H          -2.6166   -0.0823    0.7685 H       1  UNL1        0.0464
     39 H          -2.1182   -0.0733   -0.9074 H       1  UNL1        0.0464
     40 H          -3.3204    3.8822    1.4774 H       1  UNL1        0.0645
     41 H          -5.5000    4.6980    2.3894 H       1  UNL1        0.1737
     42 H          -6.4174    6.6939    3.8976 H       1  UNL1        0.0637
     43 H          -8.0449    8.5663    3.8693 H       1  UNL1        0.0620
     44 H         -10.4562    8.1362    3.5907 H       1  UNL1        0.0685
     45 H          -9.6909    3.8763    3.6979 H       1  UNL1        0.0705
     46 H          -5.2956    1.7123    4.6662 H       1  UNL1        0.0638
     47 H          -3.5284    0.0889    4.6791 H       1  UNL1        0.0655
     48 H          -1.6139   -0.6109    3.7476 H       1  UNL1        0.2922
     49 H           0.7420    2.1750   -0.5189 H       1  UNL1        0.0467
     50 H          -0.2024    1.2097   -1.6531 H       1  UNL1        0.0467
@<TRIPOS>UNITY_ATOM_ATTR
21 1
charge 1
23 1
charge -1
@<TRIPOS>BOND
     1     1     2    1
     2     2     3    1
     3     3     4    1
     4     4     5    1
     5     5     6    1
     6     6     7   am
     7     7     8    2
     8     7     9    1
     9     9    10   ar
    10    10    11   ar
    11    11    12    1
    12    12    13    1
    13    13    14    2
    14    13    15    2
    15    13    16    1
    16    16    17   ar
    17    17    18   ar
    18    18    19   ar
    19    19    20   ar
    20    20    21    1
    21    21    22    2
    22    21    23    1
    23    20    24   ar
    24    16    24   ar
    25    11    25   ar
    26    25    26   ar
    27    26    27   ar
    28     9    27   ar
    29    27    28    1
    30     6    29    1
    31     2    29    1
    32     1    30    1
    33     1    31    1
    34     1    32    1
    35     2    33    1
    36     3    34    1
    37     3    35    1
    38     4    36    1
    39     4    37    1
    40     5    38    1
    41     5    39    1
    42    10    40    1
    43    12    41    1
    44    17    42    1
    45    18    43    1
    46    19    44    1
    47    24    45    1
    48    25    46    1
    49    26    47    1
    50    28    48    1
    51    29    49    1
    52    29    50    1
