@<TRIPOS>MOLECULE
*****
 43 43 0 0 0
SMALL
GASTEIGER

@<TRIPOS>ATOM
      1 C           1.0793    0.0660    0.0918 C.3     1  UNL1       -0.0495
      2 C           2.6008    0.0673    0.1101 C.3     1  UNL1        0.0088
      3 N           3.1603   -0.0840    1.4470 N.am    1  UNL1       -0.3141
      4 C           4.5346   -0.1221    1.6538 C.2     1  UNL1        0.2331
      5 O           5.3326    0.0106    0.7241 O.2     1  UNL1       -0.2738
      6 C           5.0145   -0.3300    3.1282 C.3     1  UNL1        0.0969
      7 C           4.4470   -1.6349    3.6778 C.3     1  UNL1       -0.0381
      8 N           6.4861   -0.3517    3.2144 N.am    1  UNL1       -0.3002
      9 C           7.1841   -0.4700    4.4046 C.2     1  UNL1        0.2482
     10 O           6.6438   -0.6013    5.5045 O.2     1  UNL1       -0.2701
     11 C           8.6736   -0.4651    4.3485 C.ar    1  UNL1        0.0798
     12 C           9.4213   -1.3954    5.1310 C.ar    1  UNL1       -0.0248
     13 C          10.8298   -1.3624    5.1386 C.ar    1  UNL1        0.0343
     14 N          11.6057   -2.3113    5.8894 N.am    1  UNL1       -0.2855
     15 C          13.0016   -2.3315    5.9230 C.2     1  UNL1        0.2169
     16 O          13.7299   -1.5405    5.3239 O.2     1  UNL1       -0.2755
     17 C          13.6664   -3.4157    6.7605 C.3     1  UNL1        0.0215
     18 C          15.1917   -3.2502    6.6599 C.3     1  UNL1       -0.0570
     19 C          11.4425   -0.3581    4.3793 C.ar    1  UNL1       -0.0370
     20 C          10.7214    0.5668    3.6251 C.ar    1  UNL1       -0.0177
     21 C           9.3390    0.5084    3.5997 C.ar    1  UNL1        0.1291
     22 O           8.6454    1.4238    2.8618 O.3     1  UNL1       -0.5060
     23 H           0.7075    0.1848   -0.9329 H       1  UNL1        0.0245
     24 H           0.6744    0.8862    0.6933 H       1  UNL1        0.0245
     25 H           0.6775   -0.8724    0.4876 H       1  UNL1        0.0245
     26 H           2.9758    1.0052   -0.3135 H       1  UNL1        0.0459
     27 H           2.9777   -0.7519   -0.5127 H       1  UNL1        0.0459
     28 H           2.5255   -0.1722    2.2303 H       1  UNL1        0.1487
     29 H           4.6636    0.5240    3.7207 H       1  UNL1        0.0592
     30 H           4.8041   -2.4828    3.0834 H       1  UNL1        0.0252
     31 H           3.3547   -1.6433    3.6686 H       1  UNL1        0.0252
     32 H           4.7576   -1.8084    4.7115 H       1  UNL1        0.0252
     33 H           6.9971   -0.1397    2.3590 H       1  UNL1        0.1498
     34 H           8.8749   -2.1285    5.7217 H       1  UNL1        0.0645
     35 H          11.0985   -3.0133    6.4174 H       1  UNL1        0.1548
     36 H          13.3852   -4.4042    6.3850 H       1  UNL1        0.0356
     37 H          13.3609   -3.3218    7.8068 H       1  UNL1        0.0356
     38 H          15.5250   -3.3284    5.6165 H       1  UNL1        0.0234
     39 H          15.7285   -4.0024    7.2423 H       1  UNL1        0.0234
     40 H          15.5011   -2.2595    7.0183 H       1  UNL1        0.0234
     41 H          12.5166   -0.2359    4.3359 H       1  UNL1        0.0637
     42 H          11.2815    1.3202    3.0801 H       1  UNL1        0.0655
     43 H           9.2697    2.0290    2.4265 H       1  UNL1        0.2922
@<TRIPOS>BOND
     1     1     2    1
     2     2     3    1
     3     3     4   am
     4     4     5    2
     5     4     6    1
     6     6     7    1
     7     6     8    1
     8     8     9   am
     9     9    10    2
    10     9    11    1
    11    11    12   ar
    12    12    13   ar
    13    13    14    1
    14    14    15   am
    15    15    16    2
    16    15    17    1
    17    17    18    1
    18    13    19   ar
    19    19    20   ar
    20    20    21   ar
    21    11    21   ar
    22    21    22    1
    23     1    23    1
    24     1    24    1
    25     1    25    1
    26     2    26    1
    27     2    27    1
    28     3    28    1
    29     6    29    1
    30     7    30    1
    31     7    31    1
    32     7    32    1
    33     8    33    1
    34    12    34    1
    35    14    35    1
    36    17    36    1
    37    17    37    1
    38    18    38    1
    39    18    39    1
    40    18    40    1
    41    19    41    1
    42    20    42    1
    43    22    43    1
