@<TRIPOS>MOLECULE
*****
 39 41 0 0 0
SMALL
GASTEIGER

@<TRIPOS>ATOM
      1 O           0.9592   -0.1106   -0.1074 O.2     1  UNL1       -0.2738
      2 C           2.1952   -0.1291   -0.1286 C.2     1  UNL1        0.2353
      3 N           2.9306   -1.0749   -0.8447 N.am    1  UNL1       -0.2068
      4 N           2.2417   -2.0064   -1.6138 N.2     1  UNL1       -0.1876
      5 C           2.9167   -2.9293   -2.2237 C.2     1  UNL1        0.0548
      6 C           2.2361   -3.9440   -3.0283 C.ar    1  UNL1        0.0195
      7 C           2.6412   -5.2653   -3.1386 C.ar    1  UNL1        0.0114
      8 N           1.7815   -5.9242   -3.9845 N.ar    1  UNL1       -0.3600
      9 C           0.8604   -5.0450   -4.5032 C.ar    1  UNL1        0.0471
     10 C          -0.1488   -5.2462   -5.4590 C.ar    1  UNL1       -0.0378
     11 C          -0.9198   -4.1397   -5.8285 C.ar    1  UNL1       -0.0598
     12 C          -0.7100   -2.8955   -5.2400 C.ar    1  UNL1       -0.0611
     13 C           0.2827   -2.7212   -4.2685 C.ar    1  UNL1       -0.0520
     14 C           1.1005   -3.8066   -3.8976 C.ar    1  UNL1        0.0083
     15 C           2.9958    0.9208    0.6741 C.3     1  UNL1        0.0372
     16 C           2.5015    2.3324    0.2874 C.3     1  UNL1       -0.0419
     17 C           3.0767    3.4459    1.1651 C.3     1  UNL1       -0.0524
     18 C           2.8183    3.1871    2.6438 C.3     1  UNL1       -0.0530
     19 C           3.3648    1.8228    3.0473 C.3     1  UNL1       -0.0524
     20 C           2.7803    0.6991    2.1851 C.3     1  UNL1       -0.0419
     21 H           3.9446   -1.0853   -0.8357 H       1  UNL1        0.1772
     22 H           4.0154   -3.0078   -2.1582 H       1  UNL1        0.0852
     23 H           3.4534   -5.8065   -2.6727 H       1  UNL1        0.0813
     24 H           1.8352   -6.9044   -4.2305 H       1  UNL1        0.1654
     25 H          -0.3222   -6.2150   -5.9190 H       1  UNL1        0.0638
     26 H          -1.6931   -4.2492   -6.5863 H       1  UNL1        0.0618
     27 H          -1.3166   -2.0442   -5.5375 H       1  UNL1        0.0618
     28 H           0.4389   -1.7475   -3.8132 H       1  UNL1        0.0624
     29 H           4.0664    0.8410    0.4472 H       1  UNL1        0.0395
     30 H           1.4067    2.3743    0.3631 H       1  UNL1        0.0272
     31 H           2.7447    2.5353   -0.7616 H       1  UNL1        0.0272
     32 H           2.6315    4.4072    0.8815 H       1  UNL1        0.0265
     33 H           4.1563    3.5314    0.9940 H       1  UNL1        0.0265
     34 H           1.7410    3.2339    2.8489 H       1  UNL1        0.0265
     35 H           3.2877    3.9732    3.2480 H       1  UNL1        0.0265
     36 H           3.1363    1.6387    4.1038 H       1  UNL1        0.0265
     37 H           4.4574    1.8294    2.9533 H       1  UNL1        0.0265
     38 H           1.7050    0.6269    2.3972 H       1  UNL1        0.0272
     39 H           3.2192   -0.2574    2.4900 H       1  UNL1        0.0272
@<TRIPOS>BOND
     1     1     2    2
     2     2     3   am
     3     3     4    1
     4     4     5    2
     5     5     6    1
     6     6     7   ar
     7     7     8   ar
     8     8     9   ar
     9     9    10   ar
    10    10    11   ar
    11    11    12   ar
    12    12    13   ar
    13    13    14   ar
    14     6    14   ar
    15     9    14   ar
    16     2    15    1
    17    15    16    1
    18    16    17    1
    19    17    18    1
    20    18    19    1
    21    19    20    1
    22    15    20    1
    23     3    21    1
    24     5    22    1
    25     7    23    1
    26     8    24    1
    27    10    25    1
    28    11    26    1
    29    12    27    1
    30    13    28    1
    31    15    29    1
    32    16    30    1
    33    16    31    1
    34    17    32    1
    35    17    33    1
    36    18    34    1
    37    18    35    1
    38    19    36    1
    39    19    37    1
    40    20    38    1
    41    20    39    1
