REMARK  7 active torsions:
REMARK  status: ('A' for Active; 'I' for Inactive)
REMARK    1  A    between atoms: C_6  and  C_7 
REMARK    2  A    between atoms: C_12  and  O_13 
REMARK    3  A    between atoms: C_15  and  C_16 
REMARK    4  A    between atoms: N_23  and  C_24 
REMARK    5  A    between atoms: C_24  and  C_25 
REMARK    6  A    between atoms: C_25  and  C_26 
REMARK    7  A    between atoms: C_26  and  O_27 
ROOT
ATOM      1  O   UNL d   1       0.990   0.163   0.007  0.00  0.00    -0.266 OA
ATOM      2  C   UNL d   1       2.213   0.129   0.002  0.00  0.00     0.273 A 
ATOM      3  C   UNL d   1       3.054  -1.014  -0.000  0.00  0.00     0.129 A 
ATOM      4  N   UNL d   1       2.978  -2.356   0.009  0.00  0.00    -0.272 N 
ATOM      5  N   UNL d   1       4.212  -2.935  -0.043  0.00  0.00    -0.173 NA
ATOM      6  C   UNL d   1       5.086  -1.901   0.018  0.00  0.00     0.101 A 
ATOM      7  C   UNL d   1       4.378  -0.687   0.023  0.00  0.00     0.034 A 
ATOM      8  C   UNL d   1       4.537   0.777   0.021  0.00  0.00     0.162 A 
ATOM      9  N   UNL d   1       3.109   1.215  -0.023  0.00  0.00    -0.333 N 
ATOM     10  H   UNL d   1       2.155  -2.951   0.028  0.00  0.00     0.189 HD
ENDROOT
BRANCH   6  11
ATOM     11  C   UNL d   1       6.536  -2.093   0.048  0.00  0.00     0.028 A 
ATOM     12  C   UNL d   1       7.193  -2.741  -1.005  0.00  0.00     0.017 A 
ATOM     13  C   UNL d   1       8.588  -2.870  -0.996  0.00  0.00     0.001 A 
ATOM     14  C   UNL d   1       9.341  -2.348   0.057  0.00  0.00     0.003 A 
ATOM     15  C   UNL d   1       8.702  -1.706   1.113  0.00  0.00     0.037 A 
ATOM     16  C   UNL d   1       7.311  -1.609   1.112  0.00  0.00     0.078 A 
BRANCH  16  17
ATOM     17  O   UNL d   1       6.695  -1.093   2.212  0.00  0.00    -0.360 OA
ATOM     18  H   UNL d   1       7.320  -0.571   2.738  0.00  0.00     0.217 HD
ENDBRANCH  16  17
ENDBRANCH   6  11
BRANCH   8  19
ATOM     19  C   UNL d   1       5.245   1.206   1.275  0.00  0.00     0.008 A 
ATOM     20  C   UNL d   1       6.396   2.013   1.164  0.00  0.00     0.012 A 
ATOM     21  C   UNL d   1       7.013   2.532   2.302  0.00  0.00     0.001 A 
ATOM     22  C   UNL d   1       6.522   2.213   3.567  0.00  0.00     0.003 A 
ATOM     23  C   UNL d   1       5.405   1.390   3.696  0.00  0.00     0.043 A 
ATOM     24  C   UNL d   1       4.762   0.913   2.558  0.00  0.00     0.125 A 
ATOM     25  F   UNL d   1       3.688   0.129   2.727  0.00  0.00    -0.205 F 
ENDBRANCH   8  19
BRANCH   9  26
ATOM     26  C   UNL d   1       2.682   2.617  -0.011  0.00  0.00     0.129 C 
BRANCH  26  27
ATOM     27  C   UNL d   1       3.822   3.633  -0.014  0.00  0.00     0.046 C 
BRANCH  27  28
ATOM     28  C   UNL d   1       3.378   5.080  -0.019  0.00  0.00     0.165 C 
BRANCH  28  29
ATOM     29  O   UNL d   1       4.534   5.916  -0.021  0.00  0.00    -0.401 OA
ATOM     30  H   UNL d   1       5.039   5.733   0.792  0.00  0.00     0.209 HD
ENDBRANCH  28  29
ENDBRANCH  27  28
ENDBRANCH  26  27
ENDBRANCH   9  26
TORSDOF 7
