@<TRIPOS>MOLECULE
*****
 65 69 0 0 0
SMALL
GASTEIGER

@<TRIPOS>ATOM
      1 O           1.0278   -0.2191   -0.0443 O.2     1  UNL1       -0.2749
      2 C           2.2493   -0.0704   -0.0570 C.2     1  UNL1        0.2233
      3 C           2.9550    1.2784    0.1914 C.3     1  UNL1        0.0734
      4 S           1.7076    2.6273    0.4500 S.3     1  UNL1       -0.1085
      5 C           2.7418    4.0791    0.8640 C.3     1  UNL1        0.1563
      6 N           2.0809    5.2656    0.3472 N.pl3   1  UNL1       -0.3156
      7 C           2.4314    6.5188    0.8258 C.ar    1  UNL1        0.0414
      8 C           2.1356    7.7019    0.1472 C.ar    1  UNL1       -0.0400
      9 C           2.5107    8.9557    0.6740 C.ar    1  UNL1       -0.0600
     10 C           3.1655    9.0543    1.8990 C.ar    1  UNL1       -0.0609
     11 C           3.4946    7.8940    2.5690 C.ar    1  UNL1       -0.0478
     12 C           3.1607    6.6544    2.0069 C.ar    1  UNL1        0.0593
     13 C           3.5582    5.4499    2.7207 C.2     1  UNL1        0.2669
     14 O           4.3821    5.5841    3.6286 O.2     1  UNL1       -0.2683
     15 N           2.9456    4.2722    2.3048 N.am    1  UNL1       -0.1859
     16 N           3.0637    3.1127    3.1286 N.am    1  UNL1       -0.2292
     17 C           3.0749    3.2712    4.5199 C.2     1  UNL1        0.2296
     18 O           3.1207    4.2908    5.1930 O.2     1  UNL1       -0.2743
     19 C           3.0554    1.9733    5.2303 C.3     1  UNL1        0.0293
     20 C           3.3806    2.1685    6.7118 C.3     1  UNL1       -0.0165
     21 C           3.3364    0.8989    7.4863 C.2     1  UNL1        0.0081
     22 C           3.4458   -0.3516    7.0248 C.ar    1  UNL1        0.0509
     23 C           3.6327   -0.9401    5.7385 C.ar    1  UNL1       -0.0482
     24 C           3.7362   -2.2634    5.6199 C.ar    1  UNL1       -0.0608
     25 C           3.6561   -3.1175    6.7799 C.ar    1  UNL1       -0.0555
     26 C           3.4740   -2.6560    8.0338 C.ar    1  UNL1        0.0098
     27 C           3.3573   -1.1954    8.2278 C.ar    1  UNL1        0.2086
     28 N           3.1944   -0.5079    9.2953 N.2     1  UNL1       -0.2369
     29 C           3.1544    0.9349    8.9781 C.3     1  UNL1        0.1660
     30 N           3.0130   -1.1870   -0.2668 N.am    1  UNL1       -0.3105
     31 C           4.4593   -1.3003   -0.2940 C.3     1  UNL1        0.0369
     32 C           4.9287   -2.7040   -0.5925 C.ar    1  UNL1       -0.0303
     33 C           5.9441   -2.9262   -1.5358 C.ar    1  UNL1       -0.0571
     34 C           6.2653   -4.2247   -1.9403 C.ar    1  UNL1       -0.0615
     35 C           5.6673   -5.3174   -1.3187 C.ar    1  UNL1       -0.0617
     36 C           4.7729   -5.1124   -0.2719 C.ar    1  UNL1       -0.0615
     37 C           4.3778   -3.8156    0.0649 C.ar    1  UNL1       -0.0571
     38 H           3.5812    1.5095   -0.6751 H       1  UNL1        0.0472
     39 H           3.5765    1.1682    1.0843 H       1  UNL1        0.0472
     40 H           3.7103    3.9841    0.3567 H       1  UNL1        0.0847
     41 H           1.3935    5.1595   -0.3863 H       1  UNL1        0.1487
     42 H           1.6192    7.6777   -0.8079 H       1  UNL1        0.0636
     43 H           2.2836    9.8680    0.1284 H       1  UNL1        0.0618
     44 H           3.4258   10.0160    2.3328 H       1  UNL1        0.0618
     45 H           4.0008    7.9403    3.5320 H       1  UNL1        0.0626
     46 H           2.5674    2.3015    2.7623 H       1  UNL1        0.1731
     47 H           3.8564    1.4127    4.7534 H       1  UNL1        0.0362
     48 H           2.0743    1.4995    5.0967 H       1  UNL1        0.0362
     49 H           2.6848    2.8908    7.1583 H       1  UNL1        0.0317
     50 H           4.3863    2.5986    6.8151 H       1  UNL1        0.0317
     51 H           3.6933   -0.3866    4.8191 H       1  UNL1        0.0626
     52 H           3.8790   -2.6904    4.6294 H       1  UNL1        0.0618
     53 H           3.7516   -4.1786    6.5672 H       1  UNL1        0.0620
     54 H           3.4199   -3.3384    8.8701 H       1  UNL1        0.0683
     55 H           3.1106   -0.9149   10.2242 H       1  UNL1        0.4459
     56 H           3.9731    1.4409    9.4985 H       1  UNL1        0.1077
     57 H           2.1820    1.3388    9.2783 H       1  UNL1        0.1077
     58 H           2.4627   -2.0128   -0.4874 H       1  UNL1        0.1490
     59 H           4.8457   -0.9769    0.6770 H       1  UNL1        0.0512
     60 H           4.8172   -0.6033   -1.0586 H       1  UNL1        0.0512
     61 H           6.4799   -2.0935   -1.9871 H       1  UNL1        0.0621
     62 H           6.9776   -4.3857   -2.7468 H       1  UNL1        0.0618
     63 H           5.9037   -6.3272   -1.6459 H       1  UNL1        0.0618
     64 H           4.3660   -5.9652    0.2656 H       1  UNL1        0.0618
     65 H           3.6182   -3.6842    0.8314 H       1  UNL1        0.0621
@<TRIPOS>UNITY_ATOM_ATTR
28 1
charge 1
@<TRIPOS>BOND
     1     1     2    2
     2     2     3    1
     3     3     4    1
     4     4     5    1
     5     5     6    1
     6     6     7    1
     7     7     8   ar
     8     8     9   ar
     9     9    10   ar
    10    10    11   ar
    11    11    12   ar
    12     7    12   ar
    13    12    13    1
    14    13    14    2
    15    13    15   am
    16     5    15    1
    17    15    16    1
    18    16    17   am
    19    17    18    2
    20    17    19    1
    21    19    20    1
    22    20    21    1
    23    21    22    2
    24    22    23   ar
    25    23    24   ar
    26    24    25   ar
    27    25    26   ar
    28    26    27   ar
    29    22    27   ar
    30    27    28    2
    31    28    29    1
    32    21    29    1
    33     2    30   am
    34    30    31    1
    35    31    32    1
    36    32    33   ar
    37    33    34   ar
    38    34    35   ar
    39    35    36   ar
    40    36    37   ar
    41    32    37   ar
    42     3    38    1
    43     3    39    1
    44     5    40    1
    45     6    41    1
    46     8    42    1
    47     9    43    1
    48    10    44    1
    49    11    45    1
    50    16    46    1
    51    19    47    1
    52    19    48    1
    53    20    49    1
    54    20    50    1
    55    23    51    1
    56    24    52    1
    57    25    53    1
    58    26    54    1
    59    28    55    1
    60    29    56    1
    61    29    57    1
    62    30    58    1
    63    31    59    1
    64    31    60    1
    65    33    61    1
    66    34    62    1
    67    35    63    1
    68    36    64    1
    69    37    65    1
