REMARK  10 active torsions:
REMARK  status: ('A' for Active; 'I' for Inactive)
REMARK    1  A    between atoms: C_5  and  N_6 
REMARK       I    between atoms: N_6  and  C_7 
REMARK    2  A    between atoms: C_18  and  N_6 
REMARK    3  A    between atoms: C_7  and  C_9 
REMARK    4  A    between atoms: C_12  and  C_13 
REMARK       I    between atoms: C_13  and  N_14 
REMARK    5  A    between atoms: C_16  and  N_17 
REMARK    6  A    between atoms: C_18  and  C_27 
REMARK    7  A    between atoms: C_18  and  C_19 
REMARK       I    between atoms: C_19  and  N_21 
REMARK    8  A    between atoms: N_21  and  C_22 
REMARK    9  A    between atoms: C_22  and  C_23 
REMARK   10  A    between atoms: C_23  and  C_24 
ROOT
ATOM      1  N   UNL d   1      -1.614  -3.732   1.341  0.00  0.00    -0.295 N 
ATOM      2  C   UNL d   1      -0.743  -2.743   2.123  0.00  0.00     0.269 C 
ATOM      3  O   UNL d   1      -0.688  -1.542   1.817  0.00  0.00    -0.266 OA
ENDROOT
BRANCH   1   4
ATOM      4  C   UNL d   1      -1.659  -5.229   1.522  0.00  0.00     0.044 C 
ATOM      5  C   UNL d   1      -1.857  -6.132   0.465  0.00  0.00     0.031 C 
ATOM      6  C   UNL d   1      -2.231  -7.498   0.696  0.00  0.00     0.009 C 
ATOM      7  C   UNL d   1      -2.002  -8.091   1.918  0.00  0.00    -0.061 C 
ATOM      8  C   UNL d   1      -2.153  -9.525   2.265  0.00  0.00     0.048 C 
ATOM      9  C   UNL d   1      -1.542  -7.279   2.902  0.00  0.00     0.015 C 
ATOM     10  C   UNL d   1      -1.580  -5.894   2.746  0.00  0.00    -0.035 C 
ATOM     11  C   UNL d   1      -1.360  -5.247   4.021  0.00  0.00     0.050 C 
ENDBRANCH   1   4
BRANCH   1  12
ATOM     12  C   UNL d   1      -2.511  -3.211   0.164  0.00  0.00     0.218 C 
BRANCH  12  13
ATOM     13  C   UNL d   1      -4.035  -3.782   0.127  0.00  0.00    -0.026 A 
ATOM     14  C   UNL d   1      -4.444  -5.113  -0.045  0.00  0.00     0.013 A 
ATOM     15  C   UNL d   1      -5.759  -5.578  -0.089  0.00  0.00     0.043 A 
ATOM     16  C   UNL d   1      -6.775  -4.671  -0.079  0.00  0.00     0.116 A 
ATOM     17  F   UNL d   1      -8.040  -5.095  -0.124  0.00  0.00    -0.206 F 
ATOM     18  C   UNL d   1      -6.472  -3.332   0.018  0.00  0.00     0.043 A 
ATOM     19  C   UNL d   1      -5.140  -2.918   0.186  0.00  0.00     0.013 A 
ENDBRANCH  12  13
BRANCH  12  20
ATOM     20  C   UNL d   1      -2.637  -1.637  -0.089  0.00  0.00     0.245 C 
ATOM     21  O   UNL d   1      -2.484  -0.738   0.733  0.00  0.00    -0.271 OA
ATOM     22  N   UNL d   1      -3.294  -1.292  -1.274  0.00  0.00    -0.359 N 
ATOM     23  H   UNL d   1      -3.706  -2.047  -1.808  0.00  0.00     0.162 HD
BRANCH  22  24
ATOM     24  C   UNL d   1      -4.080  -0.081  -1.145  0.00  0.00     0.123 C 
BRANCH  24  25
ATOM     25  C   UNL d   1      -5.216  -0.049  -2.140  0.00  0.00     0.023 C 
BRANCH  25  26
ATOM     26  C   UNL d   1      -5.944   1.295  -2.097  0.00  0.00    -0.021 C 
ATOM     27  C   UNL d   1      -4.962   2.443  -2.326  0.00  0.00     0.009 C 
ATOM     28  C   UNL d   1      -7.025   1.308  -3.170  0.00  0.00     0.009 C 
ENDBRANCH  25  26
ENDBRANCH  24  25
ENDBRANCH  22  24
ENDBRANCH  12  20
ENDBRANCH   1  12
BRANCH   2  29
ATOM     29  C   UNL d   1       0.158  -3.086   3.247  0.00  0.00     0.115 C 
ATOM     30  S   UNL d   1      -0.067  -2.396   4.840  0.00  0.00     0.019 SA
ATOM     31  N   UNL d   1       0.759  -3.610   5.681  0.00  0.00    -0.203 NA
ATOM     32  C   UNL d   1       1.362  -4.417   4.788  0.00  0.00     0.155 C 
ATOM     33  C   UNL d   1       1.109  -4.074   3.373  0.00  0.00     0.065 C 
BRANCH  32  34
ATOM     34  C   UNL d   1       1.894  -5.763   5.170  0.00  0.00     0.270 C 
ATOM     35  N   UNL d   1       2.087  -6.069   6.489  0.00  0.00    -0.365 N 
ATOM     36  H   UNL d   1       1.846  -5.443   7.242  0.00  0.00     0.159 HD
ATOM     37  H   UNL d   1       2.522  -6.962   6.689  0.00  0.00     0.159 HD
ATOM     38  O   UNL d   1       2.084  -6.656   4.340  0.00  0.00    -0.266 OA
ENDBRANCH  32  34
BRANCH  33  39
ATOM     39  N   UNL d   1       1.389  -4.898   2.326  0.00  0.00    -0.299 NA
ATOM     40  H   UNL d   1       1.529  -5.881   2.593  0.00  0.00     0.124 HD
ATOM     41  H   UNL d   1       0.723  -4.893   1.555  0.00  0.00     0.124 HD
ENDBRANCH  33  39
ENDBRANCH   2  29
TORSDOF 10
