REMARK  11 active torsions:
REMARK  status: ('A' for Active; 'I' for Inactive)
REMARK    1  A    between atoms: CA_4  and  CB_2 
REMARK    2  A    between atoms: CA_4  and  C_31 
REMARK    3  A    between atoms: CA_4  and  N_5 
REMARK       I    between atoms: N_5  and  C_6 
REMARK    4  A    between atoms: C_8  and  C_6 
REMARK    5  A    between atoms: C_8  and  N_19 
REMARK    6  A    between atoms: C_8  and  C_9 
REMARK    7  A    between atoms: C_9  and  C_10 
REMARK       I    between atoms: C_31  and  N_33 
REMARK    8  A    between atoms: CA_34  and  N_33 
REMARK    9  A    between atoms: CA_34  and  CB_38 
REMARK   10  A    between atoms: CA_34  and  C_35 
REMARK   11  A    between atoms: CB_38  and  OG1_40 
ROOT
ATOM      1  C   UNK d   0       3.142   4.057 -11.912  0.00  0.00     0.188 C 
ENDROOT
BRANCH   1   2
ATOM      2  N   UNK d   0       2.345   2.977 -12.461  0.00  0.00    -0.252 N 
ATOM      3  C   UNK d   0       2.264   1.816 -11.703  0.00  0.00     0.330 C 
ATOM      4  O   UNK d   0       2.844   1.642 -10.631  0.00  0.00    -0.246 OA
ATOM      5  N   UNK d   0       1.467   0.826 -12.202  0.00  0.00    -0.307 N 
ATOM      6  C   UNK d   0       0.677   0.990 -13.336  0.00  0.00     0.052 C 
ATOM      7  H   UNK d   0       1.398  -0.006 -11.631  0.00  0.00     0.170 HD
ATOM      8  C   UNK d   0      -0.204   0.003 -13.736  0.00  0.00     0.030 C 
ATOM      9  C   UNK d   0       0.712   2.182 -14.042  0.00  0.00     0.059 C 
ATOM     10  C   UNK d   0      -1.129   0.296 -14.743  0.00  0.00     0.002 C 
ATOM     11  C   UNK d   0      -1.012   1.456 -15.512  0.00  0.00     0.001 C 
ATOM     12  C   UNK d   0      -0.051   2.389 -15.188  0.00  0.00     0.019 C 
ATOM     13  C   UNK d   0       1.516   3.264 -13.532  0.00  0.00     0.264 C 
ATOM     14  O   UNK d   0       1.388   4.358 -14.105  0.00  0.00    -0.267 OA
ENDBRANCH   1   2
BRANCH   1  15
ATOM     15  C   UNK d   0       3.660   5.051 -12.948  0.00  0.00     0.076 C 
BRANCH  15  16
ATOM     16  C   UNK d   0       5.113   5.315 -12.917  0.00  0.00    -0.028 A 
ATOM     17  C   UNK d   0       6.053   4.906 -12.002  0.00  0.00     0.096 A 
ATOM     18  N   UNK d   0       7.268   5.346 -12.437  0.00  0.00    -0.365 N 
ATOM     19  C   UNK d   0       7.124   6.090 -13.585  0.00  0.00     0.042 A 
ATOM     20  H   UNK d   0       8.138   5.174 -11.959  0.00  0.00     0.165 HD
ATOM     21  C   UNK d   0       8.067   6.782 -14.345  0.00  0.00     0.030 A 
ATOM     22  C   UNK d   0       5.776   6.077 -13.918  0.00  0.00    -0.002 A 
ATOM     23  C   UNK d   0       7.602   7.492 -15.460  0.00  0.00     0.002 A 
ATOM     24  C   UNK d   0       6.256   7.481 -15.823  0.00  0.00     0.001 A 
ATOM     25  C   UNK d   0       5.332   6.763 -15.068  0.00  0.00     0.014 A 
ENDBRANCH  15  16
ENDBRANCH   1  15
BRANCH   1  26
ATOM     26  C   UNK d   0       2.186   4.795 -10.997  0.00  0.00     0.222 C 
ATOM     27  N   VAL d   1       2.552   4.718  -9.670  0.00  0.00    -0.247 NA
ATOM     28  H   VAL d   1       2.580   3.736  -9.394  0.00  0.00     0.131 HD
ATOM     29  O   UNK d   0       1.172   5.346 -11.409  0.00  0.00    -0.278 OA
BRANCH  27  30
ATOM     30  CA  VAL d   1       1.815   5.536  -8.684  0.00  0.00     0.158 C 
BRANCH  30  31
ATOM     31  C   VAL d   1       1.604   6.986  -9.234  0.00  0.00     0.236 C 
ATOM     32  O   VAL d   1       2.289   7.474 -10.144  0.00  0.00    -0.272 OA
ATOM     33  N   THR d   2       0.640   7.786  -8.695  0.00  0.00    -0.343 N 
ATOM     34  H   THR d   2       0.660   8.703  -9.128  0.00  0.00     0.163 HD
BRANCH  33  35
ATOM     35  CA  THR d   2       0.038   7.717  -7.340  0.00  0.00     0.214 C 
BRANCH  35  36
ATOM     36  CB  THR d   2      -1.301   8.448  -7.279  0.00  0.00     0.147 C 
ATOM     37  CG2 THR d   2      -1.844   8.573  -5.850  0.00  0.00     0.042 C 
BRANCH  36  38
ATOM     38  OG1 THR d   2      -1.143   9.791  -7.784  0.00  0.00    -0.393 OA
ATOM     39  HG1 THR d   2      -0.535  10.243  -7.175  0.00  0.00     0.210 HD
ENDBRANCH  36  38
ENDBRANCH  35  36
BRANCH  35  40
ATOM     40  C   THR d   2      -0.452   6.341  -6.721  0.00  0.00     0.199 C 
ATOM     41  O   THR d   2      -0.499   6.298  -5.452  0.00  0.00    -0.646 OA
ATOM     42  OXT THR d   2      -0.700   5.393  -7.508  0.00  0.00    -0.646 OA
ENDBRANCH  35  40
ENDBRANCH  33  35
ENDBRANCH  30  31
BRANCH  30  43
ATOM     43  CB  VAL d   1       2.666   5.590  -7.347  0.00  0.00     0.004 C 
ATOM     44  CG1 VAL d   1       3.322   4.252  -7.028  0.00  0.00     0.011 C 
ATOM     45  CG2 VAL d   1       2.119   5.967  -5.965  0.00  0.00     0.011 C 
ENDBRANCH  30  43
ENDBRANCH  27  30
ENDBRANCH   1  26
TORSDOF 11
