REMARK  5 active torsions:
REMARK  status: ('A' for Active; 'I' for Inactive)
REMARK    1  A    between atoms: C_5  and  C_6 
REMARK    2  A    between atoms: C_9  and  S_10 
REMARK    3  A    between atoms: S_10  and  C_11 
REMARK    4  A    between atoms: C_11  and  C_12 
REMARK       I    between atoms: C_12  and  N_14 
REMARK    5  A    between atoms: N_14  and  C_15 
ROOT
ATOM      1  C   UNL d   1      -6.936  -0.478  -4.623  0.00  0.00     0.229 C 
ATOM      2  O   UNL d   1      -7.003  -1.688  -4.418  0.00  0.00    -0.273 OA
ATOM      3  N   UNL d   1      -7.295   0.089  -5.834  0.00  0.00    -0.330 N 
ATOM      4  H   UNL d   1      -6.998   1.021  -6.081  0.00  0.00     0.165 HD
ENDROOT
BRANCH   1   5
ATOM      5  C   UNL d   1      -6.359   0.420  -3.533  0.00  0.00     0.180 C 
BRANCH   5   6
ATOM      6  S   UNL d   1      -6.307  -0.583  -1.950  0.00  0.00    -0.112 SA
BRANCH   6   7
ATOM      7  C   UNL d   1      -5.419   0.462  -0.786  0.00  0.00     0.267 C 
ATOM      8  N   UNL d   1      -5.356  -0.145   0.540  0.00  0.00    -0.279 N 
ATOM      9  N   UNL d   1      -4.066  -0.501   0.867  0.00  0.00    -0.158 NA
ATOM     10  H   UNL d   1      -6.129  -0.706   0.876  0.00  0.00     0.185 HD
ATOM     11  C   UNL d   1      -3.315   0.029  -0.084  0.00  0.00     0.157 C 
ATOM     12  N   UNL d   1      -4.027   0.600  -1.133  0.00  0.00    -0.337 N 
ATOM     13  C   UNL d   1      -3.550   1.541  -2.093  0.00  0.00     0.154 C 
BRANCH  11  14
ATOM     14  C   UNL d   1      -1.836   0.008  -0.012  0.00  0.00     0.011 A 
ATOM     15  C   UNL d   1      -1.150  -1.206   0.011  0.00  0.00     0.016 A 
ATOM     16  C   UNL d   1       0.251  -1.212   0.011  0.00  0.00     0.007 A 
ATOM     17  C   UNL d   1       0.973  -0.010   0.002  0.00  0.00    -0.062 A 
ATOM     18  C   UNL d   1       2.474  -0.003  -0.013  0.00  0.00     0.048 C 
ATOM     19  C   UNL d   1       0.273   1.203   0.006  0.00  0.00     0.007 A 
ATOM     20  C   UNL d   1      -1.124   1.212   0.007  0.00  0.00     0.016 A 
ENDBRANCH  11  14
ENDBRANCH   6   7
ENDBRANCH   5   6
ENDBRANCH   1   5
BRANCH   3  21
ATOM     21  C   UNL d   1      -8.026  -0.619  -6.881  0.00  0.00     0.264 C 
ATOM     22  O   UNL d   1      -7.181  -0.627  -8.063  0.00  0.00    -0.353 OA
ATOM     23  C   UNL d   1      -6.930  -2.009  -8.443  0.00  0.00     0.152 C 
ATOM     24  C   UNL d   1      -7.627  -2.824  -7.424  0.00  0.00    -0.017 C 
ATOM     25  C   UNL d   1      -5.434  -2.256  -8.507  0.00  0.00     0.044 C 
ATOM     26  C   UNL d   1      -8.319  -2.029  -6.619  0.00  0.00     0.066 C 
ATOM     27  C   UNL d   1      -7.561  -4.293  -7.284  0.00  0.00     0.105 C 
ATOM     28  C   UNL d   1      -9.102  -2.565  -5.513  0.00  0.00     0.266 C 
ATOM     29  O   UNL d   1      -9.825  -1.842  -4.821  0.00  0.00    -0.266 OA
ATOM     30  N   UNL d   1      -8.937  -3.908  -5.266  0.00  0.00    -0.287 N 
ATOM     31  N   UNL d   1      -8.267  -4.834  -6.105  0.00  0.00    -0.229 NA
ATOM     32  H   UNL d   1      -9.303  -4.232  -4.376  0.00  0.00     0.184 HD
ATOM     33  H   UNL d   1      -8.975  -5.498  -6.421  0.00  0.00     0.147 HD
ATOM     34  C   UNL d   1      -8.185  -4.902  -8.533  0.00  0.00     0.033 C 
ENDBRANCH   3  21
TORSDOF 5
