@<TRIPOS>MOLECULE
*****
 69 73 0 0 0
SMALL
GASTEIGER

@<TRIPOS>ATOM
      1 C           4.9096   -1.5725    2.1907 C.3     1  UNL1        0.0122
      2 C           5.2437   -1.4122    0.0571 C.2     1  UNL1        0.2104
      3 O           5.6819   -2.2387   -0.8327 O.2     1  UNL1       -0.2761
      4 N           5.2071   -0.1306   -0.8456 N.am    1  UNL1       -0.3043
      5 C           4.7988    1.3335   -0.5007 C.3     1  UNL1        0.1138
      6 C           5.4122    1.9257    0.8695 C.3     1  UNL1        0.2231
      7 O           5.2911    1.2123    2.0339 O.3     1  UNL1       -0.4616
      8 C           5.3702    0.0688    1.3742 C.ar    1  UNL1        0.1242
      9 C           6.7611   -1.1035    1.4107 C.ar    1  UNL1       -0.0195
     10 C           6.3550   -2.8259    1.2405 C.ar    1  UNL1       -0.0546
     11 C           4.6865   -3.3363    0.9190 C.ar    1  UNL1       -0.0406
     12 C           3.4150   -2.2000    0.8190 C.ar    1  UNL1       -0.0404
     13 C           3.6620   -0.4983    0.9958 C.ar    1  UNL1       -0.0164
     14 C           2.0300   -2.6413    0.7567 C.3     1  UNL1       -0.0270
     15 C           1.8785   -4.1296    0.8118 C.3     1  UNL1       -0.0454
     16 C           2.7966   -4.9857   -0.0178 C.3     1  UNL1       -0.0302
     17 C           2.0789   -6.6148   -0.0198 C.3     1  UNL1       -0.0252
     18 C           0.9435   -7.7952    0.9655 C.3     1  UNL1       -0.0424
     19 C           0.7614   -7.2164    2.2870 C.3     1  UNL1        0.0067
     20 C           2.1821   -6.8189    2.2248 C.2     1  UNL1        0.1395
     21 O           2.5910   -6.1382    3.1583 O.2     1  UNL1       -0.2968
     22 C           3.0384   -7.2840    0.8751 C.3     1  UNL1        0.0293
     23 C           3.0148   -8.6918    0.1435 C.3     1  UNL1       -0.0526
     24 C           4.4582   -6.9918    1.2012 C.3     1  UNL1       -0.0401
     25 C           4.7419   -5.5769    1.5809 C.3     1  UNL1       -0.0450
     26 C           4.3662   -4.7335    0.4174 C.3     1  UNL1       -0.0124
     27 O           4.7936    3.1317    1.1934 O.3     1  UNL1       -0.3318
     28 C           5.3559    4.0936    0.3567 C.3     1  UNL1        0.1140
     29 C           4.7796    5.4048    0.8362 C.3     1  UNL1        0.0731
     30 O           5.2786    6.4858    0.0826 O.3     1  UNL1       -0.3924
     31 C           4.9989    3.7655   -1.1021 C.3     1  UNL1        0.1113
     32 O           5.7398    4.6244   -1.9551 O.3     1  UNL1       -0.3865
     33 C           5.3276    2.3129   -1.5166 C.3     1  UNL1        0.1076
     34 O           4.7954    2.0027   -2.8011 O.3     1  UNL1       -0.3871
     35 H           4.8423   -2.4810    2.8178 H       1  UNL1        0.0322
     36 H           4.0577   -0.9691    2.7378 H       1  UNL1        0.0322
     37 H           5.5978   -0.9810    2.9666 H       1  UNL1        0.0322
     38 H           5.5070   -0.3177   -1.8069 H       1  UNL1        0.1493
     39 H           3.6948    1.3593   -0.5066 H       1  UNL1        0.0587
     40 H           6.5052    2.0124    0.7850 H       1  UNL1        0.1076
     41 H           7.8056   -0.8775    1.5859 H       1  UNL1        0.0654
     42 H           7.1179   -3.5616    0.9935 H       1  UNL1        0.0622
     43 H           2.7785    0.0805    1.2408 H       1  UNL1        0.0657
     44 H           1.6631   -2.1949   -0.1598 H       1  UNL1        0.0313
     45 H           1.5589   -2.2180    1.6503 H       1  UNL1        0.0313
     46 H           0.8622   -4.3685    0.5231 H       1  UNL1        0.0271
     47 H           2.0662   -4.4018    1.8418 H       1  UNL1        0.0271
     48 H           2.7923   -4.5517   -1.0451 H       1  UNL1        0.0310
     49 H           2.2299   -6.8768   -1.0865 H       1  UNL1        0.0313
     50 H           1.4602   -8.7131    1.4657 H       1  UNL1        0.0272
     51 H           0.2099   -8.5128    0.5439 H       1  UNL1        0.0272
     52 H           0.7630   -7.8240    3.2042 H       1  UNL1        0.0342
     53 H          -0.1431   -6.6362    2.1859 H       1  UNL1        0.0342
     54 H           2.0778   -8.8758   -0.4445 H       1  UNL1        0.0239
     55 H           3.1025   -9.4463    0.9137 H       1  UNL1        0.0239
     56 H           3.7272   -8.8157   -0.6661 H       1  UNL1        0.0239
     57 H           5.1078   -7.2837    0.3727 H       1  UNL1        0.0275
     58 H           4.6678   -7.6203    2.0657 H       1  UNL1        0.0275
     59 H           5.7770   -5.4819    1.9142 H       1  UNL1        0.0271
     60 H           4.1849   -5.1785    2.4254 H       1  UNL1        0.0271
     61 H           5.0614   -4.9108   -0.4229 H       1  UNL1        0.0352
     62 H           6.4477    4.1003    0.4987 H       1  UNL1        0.0647
     63 H           5.0277    5.5605    1.8929 H       1  UNL1        0.0584
     64 H           3.6861    5.3665    0.7725 H       1  UNL1        0.0584
     65 H           6.2466    6.4011    0.0636 H       1  UNL1        0.2095
     66 H           3.9211    3.9241   -1.2383 H       1  UNL1        0.0646
     67 H           6.6812    4.4169   -1.8226 H       1  UNL1        0.2100
     68 H           6.4159    2.1903   -1.5706 H       1  UNL1        0.0641
     69 H           3.8244    2.0326   -2.7293 H       1  UNL1        0.2100
@<TRIPOS>BOND
     1     1     2    1
     2     2     3    2
     3     2     4   am
     4     5     6    1
     5     6     7    1
     6     8     9   ar
     7     9    10   ar
     8    10    11   ar
     9    11    12   ar
    10    12    13   ar
    11     8    13   ar
    12    12    14    1
    13    14    15    1
    14    15    16    1
    15    16    17    1
    16    17    18    1
    17    18    19    1
    18    19    20    1
    19    20    22    1
    20    17    22    1
    21    22    24    1
    22    24    25    1
    23    25    26    1
    24    11    26    1
    25    16    26    1
    26     6    27    1
    27    27    28    1
    28    28    29    1
    29    29    30    1
    30    28    31    1
    31    31    32    1
    32    31    33    1
    33     5    33    1
    34    33    34    1
    35     7     8    1
    36    20    21    2
    37    22    23    1
    38     5     4    1
    39     1    35    1
    40     1    36    1
    41     1    37    1
    42     4    38    1
    43     5    39    1
    44     6    40    1
    45     9    41    1
    46    10    42    1
    47    13    43    1
    48    14    44    1
    49    14    45    1
    50    15    46    1
    51    15    47    1
    52    16    48    1
    53    17    49    1
    54    18    50    1
    55    18    51    1
    56    19    52    1
    57    19    53    1
    58    23    54    1
    59    23    55    1
    60    23    56    1
    61    24    57    1
    62    24    58    1
    63    25    59    1
    64    25    60    1
    65    26    61    1
    66    28    62    1
    67    29    63    1
    68    29    64    1
    69    30    65    1
    70    31    66    1
    71    32    67    1
    72    33    68    1
    73    34    69    1
