@<TRIPOS>MOLECULE
*****
 61 63 0 0 0
SMALL
GASTEIGER

@<TRIPOS>ATOM
      1 C           1.1525   -0.3836    0.2958 C.3     1  UNL1       -0.0494
      2 C           2.6302   -0.0972    0.0865 C.3     1  UNL1        0.0093
      3 N           3.0283    1.0814   -0.7173 N.pl3   1  UNL1       -0.3303
      4 C           2.1417    2.0833   -1.3568 C.3     1  UNL1        0.0093
      5 C           0.6362    1.9094   -1.2567 C.3     1  UNL1       -0.0494
      6 C           4.4239    1.3153   -0.8467 C.ar    1  UNL1        0.0332
      7 C           5.3382    0.2827   -1.1333 C.ar    1  UNL1       -0.0398
      8 C           6.7337    0.5124   -1.2764 C.ar    1  UNL1       -0.0479
      9 C           7.2694    1.7974   -1.1252 C.ar    1  UNL1        0.0361
     10 C           8.7497    2.0322   -1.2513 C.2     1  UNL1        0.0563
     11 N           9.2498    3.2219   -1.0838 N.2     1  UNL1       -0.1873
     12 N          10.6144    3.4039   -1.1917 N.am    1  UNL1       -0.2030
     13 C          11.1399    4.6849   -0.9527 C.2     1  UNL1        0.2633
     14 O          10.4643    5.6665   -0.6588 O.2     1  UNL1       -0.2685
     15 C          12.6193    4.8753   -1.0895 C.ar    1  UNL1        0.0401
     16 C          13.3208    5.7544   -0.2603 C.ar    1  UNL1       -0.0495
     17 C          14.6629    6.0621   -0.5346 C.ar    1  UNL1       -0.0593
     18 C          15.3282    5.4596   -1.6146 C.ar    1  UNL1       -0.0404
     19 C          14.6336    4.5821   -2.4561 C.ar    1  UNL1        0.0344
     20 N          15.2779    4.0321   -3.5990 N.am    1  UNL1       -0.2815
     21 C          14.6278    3.2376   -4.5413 C.2     1  UNL1        0.2483
     22 O          13.4645    2.8633   -4.5145 O.2     1  UNL1       -0.2699
     23 C          15.3883    2.7791   -5.7149 C.ar    1  UNL1        0.0370
     24 C          14.7135    2.7764   -6.9448 C.ar    1  UNL1       -0.0494
     25 C          15.2875    2.1693   -8.0559 C.ar    1  UNL1       -0.0581
     26 C          16.5725    1.6287   -7.9659 C.ar    1  UNL1       -0.0504
     27 C          17.2650    1.1338   -9.2007 C.3     1  UNL1       -0.0397
     28 C          17.2300    1.6090   -6.7244 C.ar    1  UNL1       -0.0581
     29 C          16.6373    2.1764   -5.5929 C.ar    1  UNL1       -0.0494
     30 C          13.2869    4.3067   -2.1691 C.ar    1  UNL1       -0.0283
     31 C           6.3764    2.8343   -0.8434 C.ar    1  UNL1        0.1272
     32 O           6.7789    4.1356   -0.6780 O.3     1  UNL1       -0.5061
     33 C           4.9908    2.5959   -0.7089 C.ar    1  UNL1        0.0015
     34 H           0.9788   -1.2778    0.9002 H       1  UNL1        0.0245
     35 H           0.6555   -0.5884   -0.6546 H       1  UNL1        0.0245
     36 H           0.6656    0.4252    0.8436 H       1  UNL1        0.0245
     37 H           3.0422   -1.0048   -0.3667 H       1  UNL1        0.0461
     38 H           3.0749   -0.0005    1.0851 H       1  UNL1        0.0461
     39 H           2.3812    2.1059   -2.4276 H       1  UNL1        0.0461
     40 H           2.3479    3.0808   -0.9561 H       1  UNL1        0.0461
     41 H           0.3128    0.9763   -1.7208 H       1  UNL1        0.0245
     42 H           0.0872    2.6936   -1.7848 H       1  UNL1        0.0245
     43 H           0.3032    1.9863   -0.2197 H       1  UNL1        0.0245
     44 H           4.9738   -0.7291   -1.2959 H       1  UNL1        0.0636
     45 H           7.3735   -0.3344   -1.5137 H       1  UNL1        0.0626
     46 H           9.3843    1.1564   -1.4786 H       1  UNL1        0.0852
     47 H          11.2134    2.6163   -1.4180 H       1  UNL1        0.1776
     48 H          12.8201    6.2166    0.5879 H       1  UNL1        0.0625
     49 H          15.1799    6.7989    0.0798 H       1  UNL1        0.0618
     50 H          16.3739    5.7101   -1.7849 H       1  UNL1        0.0636
     51 H          16.2361    4.3104   -3.7755 H       1  UNL1        0.1551
     52 H          13.7257    3.2274   -7.0291 H       1  UNL1        0.0625
     53 H          14.7246    2.1210   -8.9856 H       1  UNL1        0.0620
     54 H          16.6282    1.2444  -10.0854 H       1  UNL1        0.0278
     55 H          17.5412    0.0806   -9.1056 H       1  UNL1        0.0278
     56 H          18.1642    1.7353   -9.3708 H       1  UNL1        0.0278
     57 H          18.2057    1.1367   -6.6343 H       1  UNL1        0.0620
     58 H          17.1300    2.1031   -4.6284 H       1  UNL1        0.0625
     59 H          12.6899    3.6881   -2.8193 H       1  UNL1        0.0644
     60 H           7.7568    4.1827   -0.7969 H       1  UNL1        0.2922
     61 H           4.3704    3.4487   -0.4505 H       1  UNL1        0.0673
@<TRIPOS>BOND
     1     1     2    1
     2     2     3    1
     3     3     4    1
     4     4     5    1
     5     3     6    1
     6     6     7   ar
     7     7     8   ar
     8     8     9   ar
     9     9    10    1
    10    10    11    2
    11    11    12    1
    12    12    13   am
    13    13    14    2
    14    13    15    1
    15    15    16   ar
    16    16    17   ar
    17    17    18   ar
    18    18    19   ar
    19    19    20    1
    20    20    21   am
    21    21    22    2
    22    21    23    1
    23    23    24   ar
    24    24    25   ar
    25    25    26   ar
    26    26    27    1
    27    26    28   ar
    28    28    29   ar
    29    23    29   ar
    30    19    30   ar
    31    15    30   ar
    32     9    31   ar
    33    31    32    1
    34    31    33   ar
    35     6    33   ar
    36     1    34    1
    37     1    35    1
    38     1    36    1
    39     2    37    1
    40     2    38    1
    41     4    39    1
    42     4    40    1
    43     5    41    1
    44     5    42    1
    45     5    43    1
    46     7    44    1
    47     8    45    1
    48    10    46    1
    49    12    47    1
    50    16    48    1
    51    17    49    1
    52    18    50    1
    53    20    51    1
    54    24    52    1
    55    25    53    1
    56    27    54    1
    57    27    55    1
    58    27    56    1
    59    28    57    1
    60    29    58    1
    61    30    59    1
    62    32    60    1
    63    33    61    1
