@<TRIPOS>MOLECULE
*****
 51 54 0 0 0
SMALL
GASTEIGER

@<TRIPOS>ATOM
      1 N           1.0371   -0.0381   -0.0847 N.1     1  UNL1       -0.1905
      2 C           2.2980   -0.0381   -0.0847 C.1     1  UNL1        0.1108
      3 C           3.8180   -0.0381   -0.0847 C.2     1  UNL1        0.1838
      4 C           4.5579   -0.7797    1.0132 C.2     1  UNL1        0.2250
      5 O           5.7917   -0.8190    1.0838 O.2     1  UNL1       -0.2853
      6 C           3.7534   -1.5452    2.0729 C.3     1  UNL1        0.0335
      7 N           4.6550   -2.2716    3.1238 N.4     1  UNL1        0.2430
      8 C           4.6101   -1.5861    4.5157 C.3     1  UNL1       -0.0153
      9 C           5.3766   -2.3917    5.5914 C.3     1  UNL1        0.0527
     10 N           4.8845   -3.7705    5.5912 N.pl3   1  UNL1       -0.3146
     11 C           4.2208   -4.3320    6.6686 C.ar    1  UNL1        0.1082
     12 C           3.0775   -3.6716    7.1803 C.ar    1  UNL1       -0.0340
     13 C           2.3919   -4.1175    8.3214 C.ar    1  UNL1       -0.0596
     14 C           2.7629   -5.3035    8.9339 C.ar    1  UNL1       -0.0552
     15 C           3.8190   -6.0394    8.4054 C.ar    1  UNL1        0.0175
     16 C           4.5836   -5.5341    7.3247 C.ar    1  UNL1        0.2939
     17 N           5.8304   -6.2711    7.0208 N.pl3   1  UNL1        0.0815
     18 O           6.0135   -7.3498    7.5847 O.2     1  UNL1        0.0415
     19 O           6.6484   -5.7734    6.2224 O.co2   1  UNL1       -0.5760
     20 C           5.1256   -4.4838    4.3335 C.3     1  UNL1        0.0527
     21 C           4.3298   -3.7840    3.2130 C.3     1  UNL1       -0.0153
     22 C           4.5185    0.6063   -1.1036 C.2     1  UNL1        0.2867
     23 N           4.0813    1.3000   -2.2840 N.pl3   1  UNL1       -0.2007
     24 C           5.2182    1.7429   -3.0396 C.ar    1  UNL1        0.1634
     25 C           5.3947    2.4124   -4.2542 C.ar    1  UNL1       -0.0130
     26 C           6.7181    2.6897   -4.6977 C.ar    1  UNL1       -0.0577
     27 C           7.8314    2.3052   -3.9326 C.ar    1  UNL1       -0.0577
     28 C           7.6448    1.6367   -2.7186 C.ar    1  UNL1       -0.0130
     29 C           6.3530    1.3657   -2.2962 C.ar    1  UNL1        0.1634
     30 N           5.9199    0.6827   -1.1472 N.pl3   1  UNL1       -0.2007
     31 H           3.1628   -2.3206    1.5790 H       1  UNL1        0.0900
     32 H           3.1184   -0.8520    2.6277 H       1  UNL1        0.0900
     33 H           5.6287   -2.1858    2.7763 H       1  UNL1        0.2039
     34 H           3.5526   -1.5217    4.7896 H       1  UNL1        0.0830
     35 H           5.0309   -0.5828    4.4001 H       1  UNL1        0.0830
     36 H           5.3042   -1.9230    6.5798 H       1  UNL1        0.0516
     37 H           6.4455   -2.4059    5.3361 H       1  UNL1        0.0516
     38 H           2.6753   -2.7911    6.6851 H       1  UNL1        0.0638
     39 H           1.5584   -3.5447    8.7270 H       1  UNL1        0.0618
     40 H           2.2388   -5.6553    9.8216 H       1  UNL1        0.0620
     41 H           4.0573   -6.9960    8.8687 H       1  UNL1        0.0686
     42 H           4.8418   -5.5402    4.3881 H       1  UNL1        0.0516
     43 H           6.1959   -4.4355    4.0915 H       1  UNL1        0.0516
     44 H           3.2567   -3.8589    3.4174 H       1  UNL1        0.0830
     45 H           4.5635   -4.2285    2.2407 H       1  UNL1        0.0830
     46 H           3.1347    1.4177   -2.6127 H       1  UNL1        0.2983
     47 H           4.5807    2.7348   -4.8979 H       1  UNL1        0.0659
     48 H           6.9036    3.2074   -5.6442 H       1  UNL1        0.0619
     49 H           8.8420    2.5228   -4.2847 H       1  UNL1        0.0619
     50 H           8.5020    1.3378   -2.1297 H       1  UNL1        0.0659
     51 H           6.5412    0.3279   -0.4396 H       1  UNL1        0.2983
@<TRIPOS>UNITY_ATOM_ATTR
7 1
charge 1
17 1
charge 1
19 1
charge -1
@<TRIPOS>BOND
     1     1     2    3
     2     2     3    1
     3     3     4    1
     4     4     5    2
     5     4     6    1
     6     6     7    1
     7     7     8    1
     8     8     9    1
     9     9    10    1
    10    10    11    1
    11    11    12   ar
    12    12    13   ar
    13    13    14   ar
    14    14    15   ar
    15    15    16   ar
    16    11    16   ar
    17    16    17    1
    18    17    18    2
    19    17    19    1
    20    10    20    1
    21    20    21    1
    22     7    21    1
    23     3    22    2
    24    22    23    1
    25    23    24    1
    26    24    25   ar
    27    25    26   ar
    28    26    27   ar
    29    27    28   ar
    30    28    29   ar
    31    24    29   ar
    32    29    30    1
    33    22    30    1
    34     6    31    1
    35     6    32    1
    36     7    33    1
    37     8    34    1
    38     8    35    1
    39     9    36    1
    40     9    37    1
    41    12    38    1
    42    13    39    1
    43    14    40    1
    44    15    41    1
    45    20    42    1
    46    20    43    1
    47    21    44    1
    48    21    45    1
    49    23    46    1
    50    25    47    1
    51    26    48    1
    52    27    49    1
    53    28    50    1
    54    30    51    1
