REMARK  3 active torsions:
REMARK  status: ('A' for Active; 'I' for Inactive)
REMARK       I    between atoms: C_2  and  N_3 
REMARK    1  A    between atoms: C_2  and  C_12 
REMARK    2  A    between atoms: N_3  and  C_4 
REMARK    3  A    between atoms: C_17  and  O_18 
ROOT
ATOM      1  O   UNL d   1       1.072   0.052  -0.173  0.00  0.00    -0.267 OA
ATOM      2  C   UNL d   1       2.301  -0.059  -0.142  0.00  0.00     0.259 C 
ATOM      3  N   UNL d   1       3.006  -1.112  -0.728  0.00  0.00    -0.321 N 
ATOM      4  H   UNL d   1       3.953  -1.290  -0.408  0.00  0.00     0.169 HD
ENDROOT
BRANCH   2   5
ATOM      5  C   UNL d   1       3.080   0.958   0.607  0.00  0.00     0.065 A 
ATOM      6  C   UNL d   1       4.219   1.550   0.044  0.00  0.00     0.020 A 
ATOM      7  C   UNL d   1       4.910   2.543   0.751  0.00  0.00     0.001 A 
ATOM      8  C   UNL d   1       4.468   2.947   2.013  0.00  0.00     0.003 A 
ATOM      9  C   UNL d   1       3.321   2.381   2.568  0.00  0.00     0.037 A 
ATOM     10  C   UNL d   1       2.628   1.395   1.863  0.00  0.00     0.081 A 
BRANCH  10  11
ATOM     11  O   UNL d   1       1.519   0.826   2.427  0.00  0.00    -0.360 OA
ATOM     12  H   UNL d   1       1.251   1.311   3.222  0.00  0.00     0.217 HD
ENDBRANCH  10  11
ENDBRANCH   2   5
BRANCH   3  13
ATOM     13  C   UNL d   1       2.299  -2.192  -1.337  0.00  0.00     0.058 A 
ATOM     14  C   UNL d   1       1.204  -1.896  -2.162  0.00  0.00     0.031 A 
ATOM     15  C   UNL d   1       0.420  -2.901  -2.720  0.00  0.00     0.004 A 
ATOM     16  C   UNL d   1       0.735  -4.232  -2.478  0.00  0.00     0.026 A 
ATOM     17  C   UNL d   1       1.847  -4.556  -1.691  0.00  0.00     0.058 A 
ATOM     18 CL   UNL d   1       2.167  -6.242  -1.455  0.00  0.00    -0.082 Cl
ATOM     19  C   UNL d   1       2.644  -3.540  -1.124  0.00  0.00     0.082 A 
ATOM     20 CL   UNL d   1       3.982  -3.932  -0.090  0.00  0.00    -0.080 Cl
ENDBRANCH   3  13
TORSDOF 3
