@<TRIPOS>MOLECULE
*****
 63 67 0 0 0
SMALL
GASTEIGER

@<TRIPOS>ATOM
      1 O           0.9778   -0.0238    0.1052 O.2     1  UNL1       -0.2717
      2 C           2.2029    0.0143   -0.0251 C.2     1  UNL1        0.2550
      3 C           2.8846   -0.1991   -1.3903 C.3     1  UNL1        0.1683
      4 O           1.9641   -0.3474   -2.4746 O.3     1  UNL1       -0.4552
      5 C           2.5909   -0.3943   -3.6894 C.2     1  UNL1        0.3075
      6 O           3.7846   -0.3723   -3.8609 O.2     1  UNL1       -0.2508
      7 C           1.5634   -0.4680   -4.8031 C.3     1  UNL1        0.0452
      8 C           2.2713   -0.5720   -6.1524 C.3     1  UNL1       -0.0391
      9 C           1.2827   -0.6501   -7.3104 C.3     1  UNL1       -0.0243
     10 C           2.0180   -0.6870   -8.6076 C.2     1  UNL1        0.0077
     11 C           2.4594    0.3674   -9.2986 C.ar    1  UNL1        0.0509
     12 C           2.4086    1.7721   -9.0786 C.ar    1  UNL1       -0.0482
     13 C           2.9792    2.5797   -9.9845 C.ar    1  UNL1       -0.0608
     14 C           3.6402    2.0494  -11.1688 C.ar    1  UNL1       -0.0555
     15 C           3.7386    0.7333  -11.4428 C.ar    1  UNL1        0.0098
     16 C           3.1333   -0.2046  -10.4777 C.ar    1  UNL1        0.2086
     17 N           3.0902   -1.4811  -10.4845 N.2     1  UNL1       -0.2369
     18 C           2.3767   -1.9750   -9.2870 C.3     1  UNL1        0.1660
     19 N           2.9732    0.1843    1.1123 N.am    1  UNL1       -0.2820
     20 C           4.3783    0.0892    1.2091 C.ar    1  UNL1        0.0457
     21 C           5.1414    0.8179    0.2895 C.ar    1  UNL1       -0.0397
     22 C           6.5106    0.6269    0.1659 C.ar    1  UNL1       -0.0600
     23 C           7.1679   -0.1754    1.0819 C.ar    1  UNL1       -0.0609
     24 C           6.4492   -0.7682    2.1228 C.ar    1  UNL1       -0.0478
     25 C           5.0424   -0.6807    2.1853 C.ar    1  UNL1        0.0582
     26 C           4.3952   -1.5015    3.2705 C.2     1  UNL1        0.2500
     27 O           5.0830   -2.1604    4.0207 O.2     1  UNL1       -0.2698
     28 N           3.0090   -1.5131    3.2765 N.am    1  UNL1       -0.2813
     29 C           2.2921   -2.3514    4.1320 C.ar    1  UNL1        0.0374
     30 C           2.4818   -2.5128    5.5109 C.ar    1  UNL1       -0.0368
     31 C           1.5277   -3.2738    6.2274 C.ar    1  UNL1       -0.0144
     32 C           0.6760   -4.0523    5.4595 C.ar    1  UNL1        0.1663
     33 C           0.9952   -4.2319    4.1546 C.ar    1  UNL1        0.1680
     34 C           1.3711   -3.1286    3.4856 C.ar    1  UNL1        0.0051
     35 O           0.3550   -5.2625    3.5575 O.3     1  UNL1       -0.4525
     36 C          -0.8596   -5.0186    4.2409 C.3     1  UNL1        0.2332
     37 O          -0.5631   -4.6259    5.6350 O.3     1  UNL1       -0.4526
     38 H           3.5181   -1.0927   -1.3310 H       1  UNL1        0.0796
     39 H           3.4780    0.6875   -1.6114 H       1  UNL1        0.0796
     40 H           0.9442    0.4352   -4.7785 H       1  UNL1        0.0378
     41 H           0.9316   -1.3476   -4.6483 H       1  UNL1        0.0378
     42 H           2.9246   -1.4543   -6.1630 H       1  UNL1        0.0273
     43 H           2.9296    0.2985   -6.2831 H       1  UNL1        0.0273
     44 H           0.6137    0.2192   -7.2912 H       1  UNL1        0.0312
     45 H           0.6436   -1.5350   -7.2199 H       1  UNL1        0.0312
     46 H           1.9234    2.1666   -8.1920 H       1  UNL1        0.0626
     47 H           2.9578    3.6585   -9.8443 H       1  UNL1        0.0618
     48 H           4.0667    2.7909  -11.8433 H       1  UNL1        0.0620
     49 H           4.2420    0.3813  -12.3352 H       1  UNL1        0.0683
     50 H           3.4976   -2.0554  -11.2207 H       1  UNL1        0.4459
     51 H           3.0615   -2.5888   -8.6959 H       1  UNL1        0.1077
     52 H           1.4962   -2.5382   -9.6063 H       1  UNL1        0.1077
     53 H           2.4379    0.2782    1.9724 H       1  UNL1        0.1549
     54 H           4.6790    1.5816   -0.3284 H       1  UNL1        0.0636
     55 H           7.0553    1.1237   -0.6323 H       1  UNL1        0.0618
     56 H           8.2426   -0.3180    1.0043 H       1  UNL1        0.0618
     57 H           7.0020   -1.3237    2.8804 H       1  UNL1        0.0626
     58 H           2.5861   -1.4344    2.3619 H       1  UNL1        0.1551
     59 H           3.2914   -1.9860    6.0101 H       1  UNL1        0.0637
     60 H           1.5241   -3.2274    7.3135 H       1  UNL1        0.0656
     61 H           0.9930   -2.9724    2.4892 H       1  UNL1        0.0674
     62 H          -1.5047   -5.8944    4.1475 H       1  UNL1        0.1166
     63 H          -1.3258   -4.2058    3.6475 H       1  UNL1        0.1166
@<TRIPOS>UNITY_ATOM_ATTR
17 1
charge 1
@<TRIPOS>BOND
     1     1     2    2
     2     2     3    1
     3     3     4    1
     4     4     5    1
     5     5     6    2
     6     5     7    1
     7     7     8    1
     8     8     9    1
     9     9    10    1
    10    10    11    2
    11    11    12   ar
    12    12    13   ar
    13    13    14   ar
    14    14    15   ar
    15    15    16   ar
    16    11    16   ar
    17    16    17    2
    18    17    18    1
    19    10    18    1
    20     2    19   am
    21    19    20    1
    22    20    21   ar
    23    21    22   ar
    24    22    23   ar
    25    23    24   ar
    26    24    25   ar
    27    20    25   ar
    28    25    26    1
    29    26    27    2
    30    26    28   am
    31    28    29    1
    32    29    30   ar
    33    30    31   ar
    34    31    32   ar
    35    32    33   ar
    36    33    34   ar
    37    29    34   ar
    38    33    35    1
    39    35    36    1
    40    36    37    1
    41    32    37    1
    42     3    38    1
    43     3    39    1
    44     7    40    1
    45     7    41    1
    46     8    42    1
    47     8    43    1
    48     9    44    1
    49     9    45    1
    50    12    46    1
    51    13    47    1
    52    14    48    1
    53    15    49    1
    54    17    50    1
    55    18    51    1
    56    18    52    1
    57    19    53    1
    58    21    54    1
    59    22    55    1
    60    23    56    1
    61    24    57    1
    62    28    58    1
    63    30    59    1
    64    31    60    1
    65    34    61    1
    66    36    62    1
    67    36    63    1
