@<TRIPOS>MOLECULE
*****
 60 62 0 0 0
SMALL
GASTEIGER

@<TRIPOS>ATOM
      1 C           0.9227    0.0496    0.0827 C.3     1  UNL1       -0.0442
      2 C           2.4590    0.0421    0.0733 C.3     1  UNL1        0.0262
      3 C           2.7098   -0.6998   -1.2707 C.3     1  UNL1       -0.0442
      4 C           2.8776    1.5166    0.1596 C.3     1  UNL1       -0.0442
      5 N           3.0081   -0.7556    1.2242 N.am    1  UNL1       -0.3087
      6 C           4.2848   -0.6733    1.7669 C.2     1  UNL1        0.2388
      7 O           4.7765    0.4679    1.8786 O.2     1  UNL1       -0.2734
      8 C           5.0256   -1.9333    2.4302 C.3     1  UNL1        0.1349
      9 C           4.5254   -3.4065    2.1240 C.ar    1  UNL1        0.0648
     10 C           3.2677   -3.7654    1.6022 C.ar    1  UNL1        0.1292
     11 O           2.2896   -2.9319    1.1710 O.3     1  UNL1       -0.5062
     12 C           2.8473   -5.0823    1.3831 C.ar    1  UNL1        0.0219
     13 C           3.6236   -6.1338    1.7923 C.ar    1  UNL1        0.1238
     14 O           3.2707   -7.4217    1.5649 O.3     1  UNL1       -0.5065
     15 C           4.8183   -5.8795    2.3964 C.ar    1  UNL1        0.0219
     16 C           5.2751   -4.5609    2.4868 C.ar    1  UNL1        0.1292
     17 O           6.5951   -4.5794    2.8118 O.3     1  UNL1       -0.5062
     18 N           6.5434   -1.8132    2.3957 N.am    1  UNL1       -0.2744
     19 C           7.3176   -1.1098    1.3381 C.3     1  UNL1        0.0740
     20 C           6.6694   -0.4596    0.1763 C.ar    1  UNL1        0.1221
     21 C           5.8916   -0.9132   -0.8545 C.ar    1  UNL1       -0.0191
     22 C           5.4967    0.2391   -1.5936 C.ar    1  UNL1       -0.0236
     23 C           6.0003    1.3225   -0.9240 C.ar    1  UNL1        0.0921
     24 O           6.7991    0.9068    0.0825 O.2     1  UNL1       -0.4662
     25 C           7.2862   -2.2962    3.5379 C.2     1  UNL1        0.2475
     26 O           6.7318   -2.7558    4.5473 O.2     1  UNL1       -0.2700
     27 C           8.8079   -2.4397    3.4739 C.ar    1  UNL1        0.0356
     28 C           9.4184   -3.7323    3.5533 C.ar    1  UNL1        0.0271
     29 C          10.8188   -3.8501    3.5394 C.ar    1  UNL1        0.2738
     30 N          11.4984   -5.1516    3.6559 N.pl3   1  UNL1        0.0796
     31 O          10.8046   -6.1752    3.7490 O.2     1  UNL1        0.0414
     32 O          12.7426   -5.1618    3.6509 O.co2   1  UNL1       -0.5760
     33 C          11.6062   -2.7146    3.4216 C.ar    1  UNL1        0.0151
     34 C          10.9927   -1.4694    3.3547 C.ar    1  UNL1       -0.0624
     35 C           9.6080   -1.2667    3.4625 C.ar    1  UNL1       -0.0957
     36 O           9.1798   -0.0750    3.5978 O.co2   1  UNL1       -0.8732
     37 H           0.5576    0.6581   -0.7584 H       1  UNL1        0.0250
     38 H           0.5291    0.4566    1.0119 H       1  UNL1        0.0250
     39 H           0.5210   -0.9610   -0.0521 H       1  UNL1        0.0250
     40 H           2.5489   -0.0523   -2.1398 H       1  UNL1        0.0250
     41 H           2.0672   -1.5810   -1.4036 H       1  UNL1        0.0250
     42 H           3.6664   -1.1830   -1.3407 H       1  UNL1        0.0250
     43 H           2.5434    2.1087   -0.6956 H       1  UNL1        0.0250
     44 H           3.9447    1.6741    0.2353 H       1  UNL1        0.0250
     45 H           2.4753    1.9608    1.0790 H       1  UNL1        0.0250
     46 H           2.3239   -0.9556    1.9585 H       1  UNL1        0.1493
     47 H           4.7532   -1.7753    3.4887 H       1  UNL1        0.0650
     48 H           2.7768   -2.2089    0.7352 H       1  UNL1        0.2922
     49 H           1.9084   -5.2372    0.8634 H       1  UNL1        0.0691
     50 H           2.4458   -7.4038    1.0562 H       1  UNL1        0.2921
     51 H           5.4588   -6.6960    2.7135 H       1  UNL1        0.0691
     52 H           6.6489   -4.8776    3.7422 H       1  UNL1        0.2922
     53 H           8.0568   -1.8177    0.9499 H       1  UNL1        0.0545
     54 H           7.8215   -0.2799    1.8112 H       1  UNL1        0.0545
     55 H           5.5369   -1.9338   -0.9075 H       1  UNL1        0.0652
     56 H           4.7519    0.3222   -2.3702 H       1  UNL1        0.0649
     57 H           5.7697    2.3800   -0.9586 H       1  UNL1        0.1029
     58 H           8.8205   -4.6317    3.6560 H       1  UNL1        0.0693
     59 H          12.6899   -2.7491    3.4277 H       1  UNL1        0.0685
     60 H          11.6148   -0.5791    3.2768 H       1  UNL1        0.0614
@<TRIPOS>UNITY_ATOM_ATTR
30 1
charge 1
32 1
charge -1
36 1
charge -1
@<TRIPOS>BOND
     1     1     2    1
     2     2     3    1
     3     2     4    1
     4     2     5    1
     5     5     6   am
     6     6     7    2
     7     6     8    1
     8     8     9    1
     9     9    10   ar
    10    10    11    1
    11    10    12   ar
    12    12    13   ar
    13    13    14    1
    14    13    15   ar
    15    15    16   ar
    16     9    16   ar
    17    16    17    1
    18     8    18    1
    19    18    19    1
    20    19    20    1
    21    20    21   ar
    22    21    22   ar
    23    22    23   ar
    24    23    24   ar
    25    20    24   ar
    26    18    25   am
    27    25    26    2
    28    25    27    1
    29    27    28   ar
    30    28    29   ar
    31    29    30    1
    32    30    31    2
    33    30    32    1
    34    29    33   ar
    35    33    34   ar
    36    34    35   ar
    37    27    35   ar
    38    35    36    1
    39     1    37    1
    40     1    38    1
    41     1    39    1
    42     3    40    1
    43     3    41    1
    44     3    42    1
    45     4    43    1
    46     4    44    1
    47     4    45    1
    48     5    46    1
    49     8    47    1
    50    11    48    1
    51    12    49    1
    52    14    50    1
    53    15    51    1
    54    17    52    1
    55    19    53    1
    56    19    54    1
    57    21    55    1
    58    22    56    1
    59    23    57    1
    60    28    58    1
    61    33    59    1
    62    34    60    1
