REMARK  8 active torsions:
REMARK  status: ('A' for Active; 'I' for Inactive)
REMARK       I    between atoms: C_2  and  N_4 
REMARK    1  A    between atoms: N_4  and  C_5 
REMARK    2  A    between atoms: C_8  and  C_9 
REMARK    3  A    between atoms: C_10  and  C_11 
REMARK       I    between atoms: C_11  and  N_13 
REMARK    4  A    between atoms: N_13  and  N_14 
REMARK       I    between atoms: N_14  and  C_15 
REMARK    5  A    between atoms: C_15  and  C_17 
REMARK    6  A    between atoms: C_17  and  C_18 
REMARK    7  A    between atoms: C_18  and  C_19 
REMARK    8  A    between atoms: C_19  and  C_20 
ROOT
ATOM      1  C   UNL d   1      11.259   0.855  -0.648  0.00  0.00     0.259 C 
ATOM      2  O   UNL d   1      11.892   1.186   0.358  0.00  0.00    -0.267 OA
ATOM      3  N   UNL d   1      11.875   0.449  -1.821  0.00  0.00    -0.264 N 
ATOM      4  H   UNL d   1      11.383   0.168  -2.669  0.00  0.00     0.190 HD
ENDROOT
BRANCH   1   5
ATOM      5  C   UNL d   1       9.760   0.864  -0.687  0.00  0.00     0.076 C 
ATOM      6  C   UNL d   1       8.995   1.243   0.363  0.00  0.00     0.017 C 
BRANCH   6   7
ATOM      7  C   UNL d   1       7.503   1.234   0.408  0.00  0.00    -0.036 A 
ATOM      8  C   UNL d   1       6.791   1.584   1.574  0.00  0.00     0.013 A 
ATOM      9  C   UNL d   1       5.379   1.464   1.646  0.00  0.00     0.030 A 
ATOM     10  C   UNL d   1       4.653   1.015   0.540  0.00  0.00     0.034 A 
ATOM     11  C   UNL d   1       5.351   0.713  -0.625  0.00  0.00     0.030 A 
ATOM     12  C   UNL d   1       6.743   0.831  -0.694  0.00  0.00     0.013 A 
BRANCH  10  13
ATOM     13  N   UNL d   1       3.239   0.915   0.566  0.00  0.00    -0.328 N 
ATOM     14  C   UNL d   1       2.553  -0.098  -0.093  0.00  0.00     0.218 C 
ATOM     15  C   UNL d   1       1.049  -0.003  -0.037  0.00  0.00     0.117 C 
ATOM     16  O   UNL d   1       3.081  -1.049  -0.668  0.00  0.00    -0.274 OA
ATOM     17  H   UNL d   1       2.731   1.542   1.177  0.00  0.00     0.169 HD
ENDBRANCH  10  13
ENDBRANCH   6   7
ENDBRANCH   1   5
BRANCH   3  18
ATOM     18  N   UNL d   1      13.299   0.416  -1.897  0.00  0.00    -0.267 N 
ATOM     19  C   UNL d   1      13.902   0.019  -3.079  0.00  0.00     0.236 C 
ATOM     20  O   UNL d   1      13.238  -0.310  -4.063  0.00  0.00    -0.272 OA
ATOM     21  H   UNL d   1      13.804   0.695  -1.057  0.00  0.00     0.190 HD
BRANCH  19  22
ATOM     22  C   UNL d   1      15.435   0.016  -3.071  0.00  0.00     0.105 C 
BRANCH  22  23
ATOM     23  C   UNL d   1      15.998  -0.441  -4.426  0.00  0.00     0.014 C 
BRANCH  23  24
ATOM     24  C   UNL d   1      17.527  -0.468  -4.466  0.00  0.00     0.039 C 
BRANCH  24  25
ATOM     25  C   UNL d   1      18.036  -0.930  -5.812  0.00  0.00    -0.058 A 
ATOM     26  C   UNL d   1      17.894  -2.269  -6.202  0.00  0.00     0.007 A 
ATOM     27  C   UNL d   1      18.414  -2.712  -7.418  0.00  0.00     0.001 A 
ATOM     28  C   UNL d   1      19.016  -1.807  -8.289  0.00  0.00     0.000 A 
ATOM     29  C   UNL d   1      19.139  -0.467  -7.924  0.00  0.00     0.001 A 
ATOM     30  C   UNL d   1      18.660  -0.032  -6.687  0.00  0.00     0.007 A 
ENDBRANCH  24  25
ENDBRANCH  23  24
ENDBRANCH  22  23
ENDBRANCH  19  22
ENDBRANCH   3  18
TORSDOF 8
