REMARK  5 active torsions:
REMARK  status: ('A' for Active; 'I' for Inactive)
REMARK    1  A    between atoms: O_2  and  C_3 
REMARK    2  A    between atoms: C_9  and  C_10 
REMARK    3  A    between atoms: C_10  and  N_11 
REMARK    4  A    between atoms: C_12  and  C_13 
REMARK    5  A    between atoms: C_17  and  S_18 
ROOT
ATOM      1  C   UNL d   1       2.929  -1.083   0.569  0.00  0.00     0.113 A 
ATOM      2  C   UNL d   1       2.548  -2.361   0.208  0.00  0.00     0.139 A 
ATOM      3  C   UNL d   1       3.152  -3.473   0.749  0.00  0.00     0.108 A 
ATOM      4  C   UNL d   1       4.180  -3.385   1.654  0.00  0.00     0.047 A 
ATOM      5  C   UNL d   1       4.655  -2.112   1.980  0.00  0.00    -0.043 A 
ATOM      6  C   UNL d   1       4.025  -0.951   1.445  0.00  0.00     0.017 A 
ATOM      7  C   UNL d   1       4.529   0.422   1.822  0.00  0.00     0.243 C 
ATOM      8  N   UNL d   1       5.358   0.401   3.118  0.00  0.00    -0.065 N 
ATOM      9  C   UNL d   1       4.483   0.277   4.332  0.00  0.00     0.270 C 
ATOM     10  C   UNL d   1       6.434  -0.653   3.054  0.00  0.00     0.240 C 
ATOM     11  C   UNL d   1       5.797  -2.033   2.965  0.00  0.00     0.067 C 
ATOM     12  O   UNL d   1       2.647  -4.636   0.260  0.00  0.00    -0.323 OA
ATOM     13  C   UNL d   1       1.864  -4.126  -0.834  0.00  0.00     0.352 C 
ATOM     14  O   UNL d   1       1.611  -2.715  -0.715  0.00  0.00    -0.320 OA
ATOM     15  H   UNL d   1       5.812   1.331   3.130  0.00  0.00     0.280 HD
ENDROOT
BRANCH   7  16
ATOM     16  C   UNL d   1       5.391   1.069   0.710  0.00  0.00     0.186 C 
BRANCH  16  17
ATOM     17  N   UNL d   1       5.875   2.376   1.220  0.00  0.00    -0.302 NA
ATOM     18  C   UNL d   1       6.473   3.045   0.286  0.00  0.00     0.107 C 
BRANCH  18  19
ATOM     19  C   UNL d   1       7.192   4.349   0.531  0.00  0.00     0.212 A 
ATOM     20  C   UNL d   1       8.367   4.352  -0.387  0.00  0.00     0.263 A 
ATOM     21  O   UNL d   1       9.089   3.349  -0.408  0.00  0.00    -0.270 OA
ATOM     22  N   UNL d   1       8.570   5.382  -1.250  0.00  0.00    -0.188 NA
ATOM     23  C   UNL d   1       7.831   6.433  -1.208  0.00  0.00     0.171 A 
ATOM     24  N   UNL d   1       6.769   6.611  -0.350  0.00  0.00    -0.300 N 
ATOM     25  C   UNL d   1       6.020   7.866  -0.229  0.00  0.00     0.161 C 
ATOM     26  C   UNL d   1       6.367   5.596   0.507  0.00  0.00     0.243 A 
ATOM     27  O   UNL d   1       5.410   5.721   1.276  0.00  0.00    -0.272 OA
BRANCH  23  28
ATOM     28  S   UNL d   1       8.227   7.699  -2.350  0.00  0.00    -0.105 SA
ATOM     29  H   UNL d   1       9.237   7.084  -2.983  0.00  0.00     0.110 HD
ENDBRANCH  23  28
ENDBRANCH  18  19
ENDBRANCH  16  17
ENDBRANCH   7  16
BRANCH   1  30
ATOM     30  O   UNL d   1       2.368   0.061   0.069  0.00  0.00    -0.352 OA
ATOM     31  C   UNL d   1       0.936   0.050   0.051  0.00  0.00     0.210 C 
ENDBRANCH   1  30
TORSDOF 5
