@<TRIPOS>MOLECULE
*****
 56 59 0 0 0
SMALL
GASTEIGER

@<TRIPOS>ATOM
      1 C           1.1720    0.2750   -0.6231 C.3     1  UNL1        0.0790
      2 O           2.4988    0.1202   -0.0889 O.3     1  UNL1       -0.4915
      3 C           2.9858    0.7591    1.0406 C.ar    1  UNL1        0.1616
      4 C           4.2187    1.4069    0.8103 C.ar    1  UNL1       -0.0157
      5 C           5.0462    1.8599    1.8692 C.ar    1  UNL1       -0.0494
      6 C           4.6247    1.7422    3.1969 C.ar    1  UNL1       -0.0018
      7 C           5.4080    2.3117    4.3486 C.2     1  UNL1        0.0529
      8 N           4.9681    2.2481    5.5744 N.2     1  UNL1       -0.1877
      9 N           5.6859    2.8276    6.6143 N.am    1  UNL1       -0.2063
     10 C           5.1486    2.7360    7.9122 C.2     1  UNL1        0.2425
     11 O           4.0998    2.1365    8.1592 O.2     1  UNL1       -0.2732
     12 C           5.9419    3.4179    9.0856 C.3     1  UNL1        0.0844
     13 S           4.8068    3.3942   10.6967 S.3     1  UNL1       -0.0024
     14 C           5.8142    3.8657   12.1378 C.3     1  UNL1        0.3955
     15 N           5.8634    2.8060   13.1920 N.2     1  UNL1       -0.1660
     16 C           6.3624    3.4696   14.2002 C.ar    1  UNL1        0.2782
     17 C           7.7485    4.0709   14.3715 C.ar    1  UNL1        0.0162
     18 C           7.9466    4.6817   15.5578 C.ar    1  UNL1       -0.0551
     19 C           6.8249    4.7671   16.4588 C.ar    1  UNL1       -0.0551
     20 C           5.5752    4.8893   15.9286 C.ar    1  UNL1        0.0162
     21 C           5.4886    4.6401   14.4179 C.ar    1  UNL1        0.2782
     22 N           5.4007    5.0809   13.1766 N.2     1  UNL1       -0.1660
     23 C           3.4087    1.1114    3.4408 C.ar    1  UNL1       -0.0076
     24 C           2.5941    0.6139    2.3993 C.ar    1  UNL1        0.1630
     25 O           1.4885   -0.0054    2.9588 O.3     1  UNL1       -0.4837
     26 C           0.6006   -0.3963    1.9549 C.3     1  UNL1        0.1148
     27 C          -0.7038   -1.0008    2.3184 C.ar    1  UNL1       -0.0104
     28 C          -1.7707   -0.1741    2.6674 C.ar    1  UNL1       -0.0554
     29 C          -2.9027   -0.7471    3.2115 C.ar    1  UNL1       -0.0614
     30 C          -3.0141   -2.1376    3.2644 C.ar    1  UNL1       -0.0617
     31 C          -2.0169   -2.9580    2.7361 C.ar    1  UNL1       -0.0614
     32 C          -0.8602   -2.3861    2.2439 C.ar    1  UNL1       -0.0554
     33 H           1.1549   -0.0211   -1.6736 H       1  UNL1        0.0660
     34 H           0.7720    1.2834   -0.4899 H       1  UNL1        0.0660
     35 H           0.4608   -0.4653   -0.2416 H       1  UNL1        0.0660
     36 H           4.5609    1.5430   -0.2174 H       1  UNL1        0.0655
     37 H           6.0204    2.2780    1.6254 H       1  UNL1        0.0625
     38 H           6.3589    2.8104    4.0930 H       1  UNL1        0.0851
     39 H           6.5508    3.3020    6.3805 H       1  UNL1        0.1772
     40 H           6.1098    4.4700    8.8484 H       1  UNL1        0.0476
     41 H           6.8909    2.8883    9.2341 H       1  UNL1        0.0476
     42 H           6.8698    3.9668   11.8439 H       1  UNL1        0.2074
     43 H           4.8682    2.5270   13.2655 H       1  UNL1        0.4537
     44 H           8.3006    4.5198   13.5408 H       1  UNL1        0.0685
     45 H           8.8499    5.2455   15.7953 H       1  UNL1        0.0620
     46 H           7.0653    4.6294   17.5253 H       1  UNL1        0.0620
     47 H           4.8100    4.5165   16.6303 H       1  UNL1        0.0685
     48 H           5.6148    6.0247   12.8296 H       1  UNL1        0.4537
     49 H           3.0729    0.9644    4.4661 H       1  UNL1        0.0662
     50 H           1.1324   -1.1608    1.3817 H       1  UNL1        0.0748
     51 H           0.3170    0.5286    1.4499 H       1  UNL1        0.0748
     52 H          -1.7040    0.9047    2.5356 H       1  UNL1        0.0621
     53 H          -3.6726   -0.1068    3.6280 H       1  UNL1        0.0618
     54 H          -3.8898   -2.5859    3.7183 H       1  UNL1        0.0618
     55 H          -2.1124   -4.0388    2.7494 H       1  UNL1        0.0618
     56 H          -0.0765   -3.0107    1.8168 H       1  UNL1        0.0621
@<TRIPOS>UNITY_ATOM_ATTR
15 1
charge 1
22 1
charge 1
@<TRIPOS>BOND
     1     1     2    1
     2     2     3    1
     3     3     4   ar
     4     4     5   ar
     5     5     6   ar
     6     6     7    1
     7     7     8    2
     8     8     9    1
     9     9    10   am
    10    10    11    2
    11    10    12    1
    12    12    13    1
    13    13    14    1
    14    14    15    1
    15    15    16    2
    16    16    17   ar
    17    17    18   ar
    18    18    19   ar
    19    19    20   ar
    20    20    21   ar
    21    16    21   ar
    22    21    22    2
    23    14    22    1
    24     6    23   ar
    25    23    24   ar
    26     3    24   ar
    27    24    25    1
    28    25    26    1
    29    26    27    1
    30    27    28   ar
    31    28    29   ar
    32    29    30   ar
    33    30    31   ar
    34    31    32   ar
    35    27    32   ar
    36     1    33    1
    37     1    34    1
    38     1    35    1
    39     4    36    1
    40     5    37    1
    41     7    38    1
    42     9    39    1
    43    12    40    1
    44    12    41    1
    45    14    42    1
    46    15    43    1
    47    17    44    1
    48    18    45    1
    49    19    46    1
    50    20    47    1
    51    22    48    1
    52    23    49    1
    53    26    50    1
    54    26    51    1
    55    28    52    1
    56    29    53    1
    57    30    54    1
    58    31    55    1
    59    32    56    1
