REMARK  13 active torsions:
REMARK  status: ('A' for Active; 'I' for Inactive)
REMARK    1  A    between atoms: C_2  and  C_3 
REMARK       I    between atoms: C_2  and  N_18 
REMARK    2  A    between atoms: C_3  and  C_4 
REMARK    3  A    between atoms: C_4  and  C_5 
REMARK    4  A    between atoms: C_5  and  C_6 
REMARK    5  A    between atoms: C_6  and  O_8 
REMARK    6  A    between atoms: O_8  and  C_9 
REMARK    7  A    between atoms: C_9  and  C_10 
REMARK    8  A    between atoms: C_10  and  C_11 
REMARK    9  A    between atoms: C_11  and  C_12 
REMARK   10  A    between atoms: N_18  and  C_19 
REMARK   11  A    between atoms: C_19  and  N_21 
REMARK   12  A    between atoms: N_21  and  C_22 
REMARK   13  A    between atoms: C_25  and  C_26 
REMARK       I    between atoms: C_26  and  N_28 
ROOT
ATOM      1  O   UNL d   1       1.073  -0.155   0.173  0.00  0.00    -0.273 OA
ATOM      2  C   UNL d   1       2.283   0.040   0.067  0.00  0.00     0.223 C 
ATOM      3  N   UNL d   1       3.202  -0.896   0.580  0.00  0.00    -0.304 N 
ATOM      4  H   UNL d   1       2.707  -1.657   1.032  0.00  0.00     0.171 HD
ENDROOT
BRANCH   3   5
ATOM      5  C   UNL d   1       4.612  -0.982   0.484  0.00  0.00     0.178 C 
ATOM      6  S   UNL d   1       5.572   0.071  -0.440  0.00  0.00    -0.040 SA
BRANCH   5   7
ATOM      7  N   UNL d   1       5.171  -2.056   1.217  0.00  0.00    -0.333 N 
ATOM      8  H   UNL d   1       4.619  -2.889   1.388  0.00  0.00     0.168 HD
BRANCH   7   9
ATOM      9  C   UNL d   1       6.589  -2.179   1.388  0.00  0.00     0.034 C 
ATOM     10  C   UNL d   1       7.308  -3.344   1.109  0.00  0.00     0.030 C 
ATOM     11  C   UNL d   1       8.727  -3.342   1.206  0.00  0.00     0.019 C 
ATOM     12  C   UNL d   1       9.435  -2.155   1.473  0.00  0.00     0.032 C 
ATOM     13  C   UNL d   1       8.687  -1.006   1.705  0.00  0.00     0.019 C 
ATOM     14  C   UNL d   1       7.304  -1.047   1.773  0.00  0.00     0.030 C 
BRANCH  12  15
ATOM     15  C   UNL d   1      10.946  -2.075   1.422  0.00  0.00     0.253 C 
ATOM     16  O   UNL d   1      11.603  -3.030   1.009  0.00  0.00    -0.267 OA
ATOM     17  N   UNL d   1      11.539  -0.880   1.865  0.00  0.00    -0.348 N 
ATOM     18  C   UNL d   1      12.348  -0.029   0.979  0.00  0.00     0.126 C 
ATOM     19  C   UNL d   1      11.290  -0.482   3.240  0.00  0.00     0.126 C 
ATOM     20  C   UNL d   1      13.861  -0.087   1.211  0.00  0.00     0.020 C 
ATOM     21  C   UNL d   1      14.361   0.588   2.491  0.00  0.00     0.002 C 
ATOM     22  C   UNL d   1      13.694   0.085   3.765  0.00  0.00     0.002 C 
ATOM     23  C   UNL d   1      12.243   0.514   3.859  0.00  0.00     0.020 C 
ENDBRANCH  12  15
ENDBRANCH   7   9
ENDBRANCH   5   7
ENDBRANCH   3   5
BRANCH   2  24
ATOM     24  C   UNL d   1       2.860   1.274  -0.607  0.00  0.00     0.103 C 
BRANCH  24  25
ATOM     25  C   UNL d   1       1.913   2.301  -1.168  0.00  0.00     0.019 C 
BRANCH  25  26
ATOM     26  C   UNL d   1       2.685   3.465  -1.821  0.00  0.00     0.111 C 
BRANCH  26  27
ATOM     27  C   UNL d   1       1.695   4.458  -2.371  0.00  0.00     0.258 C 
ATOM     28  O   UNL d   1       0.470   4.318  -2.296  0.00  0.00    -0.265 OA
BRANCH  27  29
ATOM     29  O   UNL d   1       2.301   5.524  -2.957  0.00  0.00    -0.321 OA
BRANCH  29  30
ATOM     30  C   UNL d   1       1.357   6.473  -3.483  0.00  0.00     0.179 C 
BRANCH  30  31
ATOM     31  C   UNL d   1       2.104   7.623  -4.135  0.00  0.00     0.031 C 
BRANCH  31  32
ATOM     32  C   UNL d   1       1.140   8.649  -4.739  0.00  0.00     0.041 C 
BRANCH  32  33
ATOM     33  C   UNL d   1       1.843   9.841  -5.346  0.00  0.00    -0.058 A 
ATOM     34  C   UNL d   1       3.047   9.720  -6.054  0.00  0.00     0.007 A 
ATOM     35  C   UNL d   1       3.727  10.856  -6.493  0.00  0.00     0.001 A 
ATOM     36  C   UNL d   1       3.157  12.115  -6.327  0.00  0.00     0.000 A 
ATOM     37  C   UNL d   1       1.929  12.244  -5.682  0.00  0.00     0.001 A 
ATOM     38  C   UNL d   1       1.278  11.113  -5.191  0.00  0.00     0.007 A 
ENDBRANCH  32  33
ENDBRANCH  31  32
ENDBRANCH  30  31
ENDBRANCH  29  30
ENDBRANCH  27  29
ENDBRANCH  26  27
ENDBRANCH  25  26
ENDBRANCH  24  25
ENDBRANCH   2  24
TORSDOF 13
