REMARK  10 active torsions:
REMARK  status: ('A' for Active; 'I' for Inactive)
REMARK    1  A    between atoms: O_2  and  C_3 
REMARK    2  A    between atoms: C_6  and  O_7 
REMARK    3  A    between atoms: C_9  and  C_10 
REMARK    4  A    between atoms: C_10  and  C_11 
REMARK    5  A    between atoms: C_11  and  N_12 
REMARK       I    between atoms: N_12  and  C_13 
REMARK       I    between atoms: C_13  and  N_15 
REMARK    6  A    between atoms: N_15  and  C_16 
REMARK    7  A    between atoms: C_16  and  C_17 
REMARK    8  A    between atoms: C_17  and  N_18 
REMARK    9  A    between atoms: N_18  and  C_19 
REMARK   10  A    between atoms: C_24  and  N_25 
ROOT
ATOM      1  N   UNL d   1       1.519  -6.182  -1.430  0.00  0.00    -0.343 N 
ATOM      2  C   UNL d   1       0.368  -6.293  -2.160  0.00  0.00     0.316 C 
ATOM      3  O   UNL d   1      -0.363  -5.346  -2.395  0.00  0.00    -0.247 OA
ATOM      4  N   UNL d   1       0.148  -7.551  -2.637  0.00  0.00    -0.342 N 
ATOM      5  H   UNL d   1       2.096  -6.983  -1.222  0.00  0.00     0.164 HD
ATOM      6  H   UNL d   1       0.672  -8.320  -2.249  0.00  0.00     0.164 HD
ENDROOT
BRANCH   1   7
ATOM      7  C   UNL d   1       1.877  -4.865  -0.964  0.00  0.00     0.129 C 
BRANCH   7   8
ATOM      8  C   UNL d   1       3.164  -4.842  -0.169  0.00  0.00     0.061 C 
BRANCH   8   9
ATOM      9  C   UNL d   1       3.607  -3.507   0.382  0.00  0.00    -0.021 A 
ATOM     10  C   UNL d   1       4.798  -3.334   1.109  0.00  0.00     0.074 A 
ATOM     11  C   UNL d   1       5.183  -2.028   1.464  0.00  0.00     0.040 A 
ATOM     12  C   UNL d   1       4.377  -0.918   1.174  0.00  0.00     0.039 A 
ATOM     13  C   UNL d   1       3.194  -1.080   0.470  0.00  0.00     0.068 A 
ATOM     14  C   UNL d   1       2.824  -2.362   0.087  0.00  0.00     0.046 A 
BRANCH  10  15
ATOM     15  O   UNL d   1       5.694  -4.288   1.526  0.00  0.00    -0.355 OA
ATOM     16  C   UNL d   1       5.371  -5.667   1.413  0.00  0.00     0.210 C 
ENDBRANCH  10  15
BRANCH  13  17
ATOM     17  O   UNL d   1       2.533   0.056   0.096  0.00  0.00    -0.356 OA
ATOM     18  C   UNL d   1       1.113  -0.036  -0.011  0.00  0.00     0.210 C 
ENDBRANCH  13  17
ENDBRANCH   8   9
ENDBRANCH   7   8
ENDBRANCH   1   7
BRANCH   4  19
ATOM     19  C   UNL d   1      -1.057  -7.810  -3.411  0.00  0.00     0.144 C 
BRANCH  19  20
ATOM     20  C   UNL d   1      -1.109  -9.250  -3.916  0.00  0.00     0.139 C 
BRANCH  20  21
ATOM     21  N   UNL d   1      -2.348  -9.566  -4.619  0.00  0.00    -0.386 N 
ATOM     22  H   UNL d   1      -3.052  -8.837  -4.717  0.00  0.00     0.159 HD
BRANCH  21  23
ATOM     23  C   UNL d   1      -2.776 -10.872  -4.830  0.00  0.00     0.061 A 
ATOM     24  C   UNL d   1      -3.293 -11.163  -6.114  0.00  0.00     0.031 A 
ATOM     25  C   UNL d   1      -3.736 -12.445  -6.472  0.00  0.00     0.002 A 
ATOM     26  C   UNL d   1      -3.619 -13.494  -5.571  0.00  0.00     0.003 A 
ATOM     27  C   UNL d   1      -3.134 -13.243  -4.293  0.00  0.00     0.038 A 
ATOM     28  C   UNL d   1      -2.746 -11.942  -3.912  0.00  0.00     0.129 A 
BRANCH  28  29
ATOM     29  N   UNL d   1      -2.402 -11.783  -2.492  0.00  0.00    -0.113 N 
ATOM     30  O   UNL d   1      -1.898 -12.763  -1.920  0.00  0.00    -0.532 OA
ATOM     31  O   UNL d   1      -2.659 -10.712  -1.924  0.00  0.00    -0.532 OA
ENDBRANCH  28  29
ENDBRANCH  21  23
ENDBRANCH  20  21
ENDBRANCH  19  20
ENDBRANCH   4  19
TORSDOF 10
