@<TRIPOS>MOLECULE
*****
 35 35 0 0 0
SMALL
GASTEIGER

@<TRIPOS>ATOM
      1 C           2.1812    0.0829    0.0005 C.3     1  UNL1       -0.0036
      2 C           0.7219   -0.1288   -0.0022 C.ar    1  UNL1        0.1361
      3 C          -0.0359   -1.2648   -0.0046 C.ar    1  UNL1        0.0222
      4 C          -1.3807   -0.8324    0.0075 C.ar    1  UNL1        0.1691
      5 N          -2.5205   -1.6313    0.0213 N.am    1  UNL1       -0.2515
      6 C          -2.4478   -3.0000    0.0321 C.2     1  UNL1        0.3050
      7 O          -1.4003   -3.6484    0.0272 O.2     1  UNL1       -0.2525
      8 N          -3.6548   -3.6616    0.0494 N.am    1  UNL1       -0.2991
      9 C          -3.6091   -5.1139    0.0599 C.3     1  UNL1        0.0135
     10 C          -4.9697   -5.8100    0.0790 C.3     1  UNL1       -0.0324
     11 C          -4.8720   -7.3657    0.0887 C.3     1  UNL1       -0.0363
     12 C          -4.1493   -7.8767   -1.1704 C.3     1  UNL1       -0.0600
     13 C          -4.1230   -7.8594    1.3392 C.3     1  UNL1       -0.0600
     14 C          -6.2895   -7.9674    0.1076 C.3     1  UNL1       -0.0600
     15 N          -1.4352    0.5081    0.0067 N.ar    1  UNL1       -0.0627
     16 O          -0.1083    0.9485    0.0017 O.2     1  UNL1       -0.3581
     17 H           2.7013   -0.8840   -0.0020 H       1  UNL1        0.0309
     18 H           2.5020    0.6237    0.8947 H       1  UNL1        0.0309
     19 H           2.5055    0.6312   -0.8877 H       1  UNL1        0.0309
     20 H           0.3526   -2.2693   -0.0085 H       1  UNL1        0.0687
     21 H          -3.4005   -1.1403    0.0307 H       1  UNL1        0.1579
     22 H          -4.5371   -3.1734    0.0561 H       1  UNL1        0.1502
     23 H          -3.0207   -5.4031    0.9376 H       1  UNL1        0.0463
     24 H          -3.0390   -5.4158   -0.8256 H       1  UNL1        0.0463
     25 H          -5.5491   -5.4864   -0.7953 H       1  UNL1        0.0285
     26 H          -5.5307   -5.4743    0.9607 H       1  UNL1        0.0285
     27 H          -3.1174   -7.5171   -1.2241 H       1  UNL1        0.0235
     28 H          -4.6683   -7.5502   -2.0785 H       1  UNL1        0.0235
     29 H          -4.1022   -8.9712   -1.1851 H       1  UNL1        0.0235
     30 H          -3.0903   -7.4993    1.3664 H       1  UNL1        0.0235
     31 H          -4.0755   -8.9536    1.3680 H       1  UNL1        0.0235
     32 H          -4.6230   -7.5204    2.2534 H       1  UNL1        0.0235
     33 H          -6.8631   -7.6629   -0.7745 H       1  UNL1        0.0235
     34 H          -6.8445   -7.6507    0.9973 H       1  UNL1        0.0235
     35 H          -6.2514   -9.0637    0.1147 H       1  UNL1        0.0235
@<TRIPOS>BOND
     1     1     2    1
     2     2     3   ar
     3     3     4   ar
     4     4     5    1
     5     5     6   am
     6     6     7    2
     7     6     8   am
     8     8     9    1
     9     9    10    1
    10    10    11    1
    11    11    12    1
    12    11    13    1
    13    11    14    1
    14     4    15   ar
    15    15    16   ar
    16     2    16   ar
    17     1    17    1
    18     1    18    1
    19     1    19    1
    20     3    20    1
    21     5    21    1
    22     8    22    1
    23     9    23    1
    24     9    24    1
    25    10    25    1
    26    10    26    1
    27    12    27    1
    28    12    28    1
    29    12    29    1
    30    13    30    1
    31    13    31    1
    32    13    32    1
    33    14    33    1
    34    14    34    1
    35    14    35    1
