REMARK  3 active torsions:
REMARK  status: ('A' for Active; 'I' for Inactive)
REMARK    1  A    between atoms: C_5  and  C_6 
REMARK       I    between atoms: C_6  and  N_7 
REMARK    2  A    between atoms: C_10  and  N_11 
REMARK       I    between atoms: N_11  and  C_12 
REMARK    3  A    between atoms: C_12  and  C_14 
ROOT
ATOM      1  C   UNL d   1       2.445  -0.359   0.466  0.00  0.00     0.050 C 
ATOM      2  C   UNL d   1       0.990  -0.113   0.187  0.00  0.00    -0.035 C 
ATOM      3  C   UNL d   1       0.225  -1.277   0.080  0.00  0.00     0.010 C 
ATOM      4  C   UNL d   1      -1.155  -1.232  -0.005  0.00  0.00     0.017 C 
ATOM      5  C   UNL d   1      -1.821  -0.009  -0.008  0.00  0.00     0.034 C 
ATOM      6  C   UNL d   1      -1.059   1.183   0.005  0.00  0.00     0.047 C 
ATOM      7  C   UNL d   1       0.359   1.143   0.043  0.00  0.00     0.042 C 
ENDROOT
BRANCH   7   8
ATOM      8  N   UNL d   1       1.064   2.379  -0.077  0.00  0.00    -0.322 N 
ATOM      9  C   UNL d   1       2.434   2.583  -0.198  0.00  0.00     0.256 C 
ATOM     10  O   UNL d   1       3.012   3.368   0.550  0.00  0.00    -0.267 OA
ATOM     11  H   UNL d   1       0.555   3.215   0.196  0.00  0.00     0.169 HD
BRANCH   9  12
ATOM     12  C   UNL d   1       3.217   1.864  -1.273  0.00  0.00     0.035 C 
ATOM     13  C   UNL d   1       4.613   1.733  -1.120  0.00  0.00     0.041 C 
ATOM     14  C   UNL d   1       5.316   0.807  -1.904  0.00  0.00     0.036 C 
ATOM     15 CL   UNL d   1       7.018   0.629  -1.712  0.00  0.00    -0.084 Cl
ATOM     16  C   UNL d   1       4.647  -0.036  -2.792  0.00  0.00     0.047 C 
ATOM     17  C   UNL d   1       3.271   0.098  -2.945  0.00  0.00     0.036 C 
ATOM     18 CL   UNL d   1       2.393  -1.111  -3.807  0.00  0.00    -0.084 Cl
ATOM     19  C   UNL d   1       2.566   1.089  -2.253  0.00  0.00     0.041 C 
ENDBRANCH   9  12
ENDBRANCH   7   8
BRANCH   5  20
ATOM     20  C   UNL d   1      -3.320   0.040  -0.046  0.00  0.00     0.249 C 
ATOM     21  N   UNL d   1      -4.006  -1.156  -0.061  0.00  0.00    -0.366 N 
ATOM     22  H   UNL d   1      -3.595  -2.074  -0.049  0.00  0.00     0.159 HD
ATOM     23  H   UNL d   1      -5.016  -1.114  -0.081  0.00  0.00     0.159 HD
ATOM     24  O   UNL d   1      -3.925   1.093  -0.059  0.00  0.00    -0.268 OA
ENDBRANCH   5  20
TORSDOF 3
