@<TRIPOS>MOLECULE
*****
 43 44 0 0 0
SMALL
GASTEIGER

@<TRIPOS>ATOM
      1 C           2.7946   -0.9045    0.4967 C.3     1  UNL1       -0.0397
      2 C           4.2740   -1.2395    0.5608 C.ar    1  UNL1       -0.0495
      3 C           5.3777   -0.4813    0.4828 C.ar    1  UNL1       -0.0559
      4 C           6.6354   -1.1388    0.5726 C.ar    1  UNL1       -0.0495
      5 C           7.8477   -0.2911    0.4555 C.3     1  UNL1       -0.0397
      6 C           6.8064   -2.5543    0.7645 C.ar    1  UNL1       -0.0467
      7 C           5.6989   -3.3640    0.8448 C.ar    1  UNL1        0.0372
      8 C           5.8514   -4.8951    1.0560 C.2     1  UNL1        0.2444
      9 O           6.9792   -5.3620    1.0904 O.2     1  UNL1       -0.2702
     10 N           4.8220   -5.8324    1.2466 N.am    1  UNL1       -0.3060
     11 C           3.3466   -5.7856    1.3289 C.3     1  UNL1        0.0506
     12 C           2.8683   -4.4359    1.5271 C.3     1  UNL1       -0.0439
     13 C           2.6245   -6.2280    0.0119 C.3     1  UNL1        0.0982
     14 O           1.2784   -5.7342   -0.1002 O.3     1  UNL1       -0.3853
     15 C           2.5689   -7.6975   -0.0301 C.ar    1  UNL1       -0.0172
     16 C           2.6312   -8.3447   -1.2577 C.ar    1  UNL1       -0.0526
     17 C           2.6485   -9.7271   -1.2624 C.ar    1  UNL1       -0.0198
     18 C           2.6185  -10.4200   -0.0477 C.ar    1  UNL1        0.1169
     19 O           2.6481  -11.7757    0.0133 O.3     1  UNL1       -0.5068
     20 C           2.5471   -9.7749    1.1678 C.ar    1  UNL1       -0.0198
     21 C           2.4852   -8.4131    1.1707 C.ar    1  UNL1       -0.0526
     22 C           4.5516   -2.5878    0.6916 C.ar    1  UNL1       -0.0467
     23 H           2.5780    0.1484    0.3624 H       1  UNL1        0.0278
     24 H           2.2831   -1.2585    1.4115 H       1  UNL1        0.0278
     25 H           2.3146   -1.4694   -0.3241 H       1  UNL1        0.0278
     26 H           5.2688    0.5834    0.3332 H       1  UNL1        0.0623
     27 H           7.5490    0.7471    0.2918 H       1  UNL1        0.0278
     28 H           8.4340   -0.6330   -0.3986 H       1  UNL1        0.0278
     29 H           8.4091   -0.3630    1.3872 H       1  UNL1        0.0278
     30 H           7.8025   -2.9902    0.8294 H       1  UNL1        0.0628
     31 H           5.2030   -6.7769    1.3113 H       1  UNL1        0.1494
     32 H           3.0377   -6.2539    2.2583 H       1  UNL1        0.0524
     33 H           3.0691   -4.2452    0.4694 H       1  UNL1        0.0248
     34 H           3.4588   -3.9570    2.3146 H       1  UNL1        0.0248
     35 H           1.8333   -4.1268    1.5969 H       1  UNL1        0.0248
     36 H           3.1635   -5.8266   -0.8638 H       1  UNL1        0.0662
     37 H           0.8210   -5.9325    0.7339 H       1  UNL1        0.2103
     38 H           2.6782   -7.7694   -2.1830 H       1  UNL1        0.0622
     39 H           2.6934  -10.2382   -2.2150 H       1  UNL1        0.0654
     40 H           2.6890  -12.1064   -0.8946 H       1  UNL1        0.2921
     41 H           2.5367  -10.3014    2.1130 H       1  UNL1        0.0654
     42 H           2.4074   -7.9452    2.1437 H       1  UNL1        0.0622
     43 H           3.5672   -2.8832    0.6245 H       1  UNL1        0.0628
@<TRIPOS>BOND
     1     1     2    1
     2     2     3   ar
     3     3     4   ar
     4     4     5    1
     5     4     6   ar
     6     6     7   ar
     7     7     8    1
     8     8     9    2
     9     8    10   am
    10    13    15    1
    11    15    16   ar
    12    16    17   ar
    13    17    18   ar
    14    18    19    1
    15    18    20   ar
    16    20    21   ar
    17    15    21   ar
    18     7    22   ar
    19     2    22   ar
    20    11    12    1
    21    11    10    1
    22    13    14    1
    23    13    11    1
    24     1    23    1
    25     1    24    1
    26     1    25    1
    27     3    26    1
    28     5    27    1
    29     5    28    1
    30     5    29    1
    31     6    30    1
    32    10    31    1
    33    11    32    1
    34    12    33    1
    35    12    34    1
    36    12    35    1
    37    13    36    1
    38    14    37    1
    39    16    38    1
    40    17    39    1
    41    19    40    1
    42    20    41    1
    43    21    42    1
    44    22    43    1
