@<TRIPOS>MOLECULE
*****
 61 64 0 0 0
SMALL
GASTEIGER

@<TRIPOS>ATOM
      1 C           1.0467   -0.0916   -0.0103 C.3     1  UNL1       -0.0375
      2 C           2.5746   -0.0800   -0.0092 C.3     1  UNL1        0.0679
      3 O           3.0339    1.0723   -0.7098 O.3     1  UNL1       -0.3905
      4 C           3.0979   -0.1008    1.4390 C.3     1  UNL1        0.0375
      5 N           4.5489   -0.2951    1.5182 N.pl3   1  UNL1       -0.3123
      6 C           5.2096   -0.1303    2.7069 C.ar    1  UNL1        0.1971
      7 N           6.2600    0.6466    2.8912 N.ar    1  UNL1       -0.2144
      8 C           6.6955    0.4317    4.1845 C.ar    1  UNL1        0.0909
      9 C           7.7755    0.9983    4.9224 C.ar    1  UNL1       -0.0342
     10 C           8.0557    0.5911    6.2433 C.ar    1  UNL1       -0.0596
     11 C           7.2786   -0.3608    6.8389 C.ar    1  UNL1       -0.0597
     12 C           6.2082   -0.8745    6.1400 C.ar    1  UNL1       -0.0360
     13 C           5.8908   -0.5194    4.8131 C.ar    1  UNL1        0.0705
     14 N           4.9296   -0.8761    3.8649 N.ar    1  UNL1       -0.3030
     15 C           3.8368   -1.8884    3.9315 C.3     1  UNL1        0.1029
     16 C           3.6878   -2.7125    5.1914 C.2     1  UNL1        0.2371
     17 O           4.6095   -2.8044    6.0044 O.2     1  UNL1       -0.2735
     18 N           2.6020   -3.5184    5.4784 N.am    1  UNL1       -0.2840
     19 C           2.6759   -4.2090    6.7547 C.ar    1  UNL1        0.0342
     20 C           2.9016   -3.4772    7.9422 C.ar    1  UNL1       -0.0404
     21 C           3.0562   -4.1158    9.1719 C.ar    1  UNL1       -0.0593
     22 C           3.1376   -5.5035    9.2093 C.ar    1  UNL1       -0.0495
     23 C           2.9681   -6.2627    8.0324 C.ar    1  UNL1        0.0388
     24 C           3.1388   -7.7516    8.1505 C.2     1  UNL1        0.2483
     25 O           3.4149   -8.2123    9.2575 O.2     1  UNL1       -0.2699
     26 N           3.0413   -8.5261    6.9905 N.am    1  UNL1       -0.2815
     27 C           3.2034   -9.9331    7.0155 C.ar    1  UNL1        0.0342
     28 C           2.6155  -10.6879    8.0321 C.ar    1  UNL1       -0.0404
     29 C           2.7904  -12.0676    8.0916 C.ar    1  UNL1       -0.0595
     30 C           3.6838  -12.6833    7.2250 C.ar    1  UNL1       -0.0500
     31 C           4.2899  -11.9461    6.1963 C.ar    1  UNL1        0.0566
     32 C           5.3349  -12.6254    5.3454 C.3     1  UNL1        0.4175
     33 F           6.3947  -13.0662    6.0822 F       1  UNL1       -0.1659
     34 F           4.8523  -13.7229    4.7003 F       1  UNL1       -0.1659
     35 F           5.8622  -11.8221    4.3812 F       1  UNL1       -0.1659
     36 C           3.9555  -10.5848    6.0309 C.ar    1  UNL1       -0.0288
     37 C           2.6594   -5.6058    6.8211 C.ar    1  UNL1       -0.0284
     38 H           0.6594   -0.0850   -1.0338 H       1  UNL1        0.0255
     39 H           0.6468    0.7990    0.4878 H       1  UNL1        0.0255
     40 H           0.6554   -0.9768    0.5034 H       1  UNL1        0.0255
     41 H           2.9404   -0.9618   -0.5466 H       1  UNL1        0.0606
     42 H           2.7407    1.8632   -0.2246 H       1  UNL1        0.2098
     43 H           2.6062   -0.9544    1.9012 H       1  UNL1        0.0487
     44 H           2.7959    0.8157    1.9619 H       1  UNL1        0.0487
     45 H           5.0215    0.1481    0.7232 H       1  UNL1        0.1489
     46 H           8.4104    1.7549    4.4775 H       1  UNL1        0.0639
     47 H           8.8713    1.0058    6.8251 H       1  UNL1        0.0618
     48 H           7.4400   -0.7346    7.8482 H       1  UNL1        0.0618
     49 H           5.6852   -1.5610    6.7724 H       1  UNL1        0.0639
     50 H           4.0085   -2.5678    3.0848 H       1  UNL1        0.0589
     51 H           2.9108   -1.3245    3.8009 H       1  UNL1        0.0589
     52 H           2.1862   -4.0108    4.6966 H       1  UNL1        0.1549
     53 H           2.9973   -2.3921    7.9206 H       1  UNL1        0.0636
     54 H           3.1373   -3.5324   10.0873 H       1  UNL1        0.0618
     55 H           3.3429   -5.9878   10.1657 H       1  UNL1        0.0625
     56 H           3.1027   -8.0766    6.0912 H       1  UNL1        0.1551
     57 H           1.9935  -10.2043    8.7807 H       1  UNL1        0.0636
     58 H           2.2568  -12.6483    8.8380 H       1  UNL1        0.0618
     59 H           3.9218  -13.7377    7.3614 H       1  UNL1        0.0623
     60 H           4.3685  -10.0363    5.1872 H       1  UNL1        0.0642
     61 H           2.4770   -6.1676    5.9179 H       1  UNL1        0.0644
@<TRIPOS>BOND
     1     1     2    1
     2     2     3    1
     3     2     4    1
     4     4     5    1
     5     5     6    1
     6     6     7   ar
     7     7     8   ar
     8     8     9   ar
     9     9    10   ar
    10    10    11   ar
    11    11    12   ar
    12    12    13   ar
    13     8    13   ar
    14    13    14   ar
    15     6    14   ar
    16    14    15    1
    17    15    16    1
    18    16    17    2
    19    16    18   am
    20    18    19    1
    21    19    20   ar
    22    20    21   ar
    23    21    22   ar
    24    22    23   ar
    25    23    24    1
    26    24    25    2
    27    24    26   am
    28    26    27    1
    29    27    28   ar
    30    28    29   ar
    31    29    30   ar
    32    30    31   ar
    33    31    32    1
    34    32    33    1
    35    32    34    1
    36    32    35    1
    37    31    36   ar
    38    27    36   ar
    39    23    37   ar
    40    19    37   ar
    41     1    38    1
    42     1    39    1
    43     1    40    1
    44     2    41    1
    45     3    42    1
    46     4    43    1
    47     4    44    1
    48     5    45    1
    49     9    46    1
    50    10    47    1
    51    11    48    1
    52    12    49    1
    53    15    50    1
    54    15    51    1
    55    18    52    1
    56    20    53    1
    57    21    54    1
    58    22    55    1
    59    26    56    1
    60    28    57    1
    61    29    58    1
    62    30    59    1
    63    36    60    1
    64    37    61    1
