@<TRIPOS>MOLECULE
*****
 55 57 0 0 0
SMALL
GASTEIGER

@<TRIPOS>ATOM
      1 C           1.1204    0.0527   -0.0495 C.3     1  UNL1       -0.0639
      2 C           2.6506    0.0503   -0.0563 C.3     1  UNL1       -0.0402
      3 C           3.2221   -0.4201   -1.3974 C.3     1  UNL1        0.0128
      4 N           4.6942   -0.4472   -1.4720 N.am    1  UNL1       -0.2991
      5 C           5.2896   -0.8601   -2.6559 C.2     1  UNL1        0.3059
      6 O           4.5774   -1.1939   -3.6038 O.2     1  UNL1       -0.2524
      7 N           6.6755   -0.8694   -2.6802 N.am    1  UNL1       -0.2389
      8 C           7.3989   -1.2593   -3.8165 C.2     1  UNL1        0.2375
      9 O           6.8754   -1.6459   -4.8664 O.2     1  UNL1       -0.2736
     10 C           8.9547   -1.2230   -3.7357 C.3     1  UNL1        0.0862
     11 N           9.5474   -1.5132   -5.0589 N.pl3   1  UNL1       -0.3354
     12 C          10.8838   -1.7777   -5.3024 C.ar    1  UNL1        0.0275
     13 C          11.4548   -1.4271   -6.5357 C.ar    1  UNL1       -0.0406
     14 C          12.8178   -1.6577   -6.8215 C.ar    1  UNL1       -0.0568
     15 C          13.6753   -2.1974   -5.8528 C.ar    1  UNL1       -0.0455
     16 C          15.1735   -2.2949   -6.1293 C.3     1  UNL1       -0.0063
     17 C          16.0185   -2.8218   -4.9605 C.3     1  UNL1        0.0668
     18 N          17.4284   -2.9963   -5.2400 N.ar    1  UNL1       -0.1625
     19 N          18.3124   -1.9846   -5.3005 N.ar    1  UNL1       -0.0458
     20 N          19.4980   -2.5794   -5.4438 N.ar    1  UNL1       -0.1078
     21 C          19.2652   -3.9376   -5.4403 C.ar    1  UNL1        0.2045
     22 C          20.2776   -4.9615   -5.6730 C.ar    1  UNL1        0.0227
     23 C          21.4179   -5.0962   -4.8698 C.ar    1  UNL1       -0.0509
     24 C          22.3637   -6.0975   -5.1458 C.ar    1  UNL1       -0.0611
     25 C          22.1487   -7.0072   -6.1817 C.ar    1  UNL1       -0.0617
     26 C          21.0087   -6.8946   -6.9713 C.ar    1  UNL1       -0.0611
     27 C          20.0845   -5.8761   -6.7211 C.ar    1  UNL1       -0.0509
     28 N          17.9610   -4.2298   -5.3035 N.ar    1  UNL1       -0.1304
     29 C          13.0953   -2.5809   -4.6374 C.ar    1  UNL1       -0.0568
     30 C          11.7320   -2.3651   -4.3684 C.ar    1  UNL1       -0.0406
     31 H           0.7400    0.3930    0.9208 H       1  UNL1        0.0230
     32 H           0.7178   -0.9499   -0.2294 H       1  UNL1        0.0230
     33 H           0.7179    0.7235   -0.8162 H       1  UNL1        0.0230
     34 H           3.0046   -0.6010    0.7504 H       1  UNL1        0.0278
     35 H           3.0047    1.0627    0.1669 H       1  UNL1        0.0278
     36 H           2.8566    0.2332   -2.2002 H       1  UNL1        0.0462
     37 H           2.8559   -1.4313   -1.6166 H       1  UNL1        0.0462
     38 H           5.2259   -0.1607   -0.6646 H       1  UNL1        0.1502
     39 H           7.1705   -0.5721   -1.8550 H       1  UNL1        0.1591
     40 H           9.2806   -1.9426   -2.9794 H       1  UNL1        0.0557
     41 H           9.2746   -0.2155   -3.4542 H       1  UNL1        0.0557
     42 H           8.8810   -1.8695   -5.7510 H       1  UNL1        0.1466
     43 H          10.8475   -0.9150   -7.2813 H       1  UNL1        0.0636
     44 H          13.1988   -1.3899   -7.8065 H       1  UNL1        0.0621
     45 H          15.5294   -1.2891   -6.3911 H       1  UNL1        0.0332
     46 H          15.3308   -2.9310   -7.0098 H       1  UNL1        0.0332
     47 H          15.6494   -3.8148   -4.6759 H       1  UNL1        0.0530
     48 H          15.9295   -2.1752   -4.0791 H       1  UNL1        0.0530
     49 H          21.5724   -4.4513   -4.0080 H       1  UNL1        0.0625
     50 H          23.2717   -6.1744   -4.5512 H       1  UNL1        0.0618
     51 H          22.8631   -7.8065   -6.3691 H       1  UNL1        0.0618
     52 H          20.8369   -7.5954   -7.7843 H       1  UNL1        0.0618
     53 H          19.1977   -5.8015   -7.3470 H       1  UNL1        0.0625
     54 H          13.6789   -3.0567   -3.8552 H       1  UNL1        0.0621
     55 H          11.3487   -2.6947   -3.4092 H       1  UNL1        0.0636
@<TRIPOS>BOND
     1     1     2    1
     2     2     3    1
     3     3     4    1
     4     4     5   am
     5     5     6    2
     6     5     7   am
     7     7     8   am
     8     8     9    2
     9     8    10    1
    10    10    11    1
    11    11    12    1
    12    12    13   ar
    13    13    14   ar
    14    14    15   ar
    15    15    16    1
    16    16    17    1
    17    17    18    1
    18    18    19   ar
    19    19    20   ar
    20    20    21   ar
    21    21    22    1
    22    22    23   ar
    23    23    24   ar
    24    24    25   ar
    25    25    26   ar
    26    26    27   ar
    27    22    27   ar
    28    21    28   ar
    29    18    28   ar
    30    15    29   ar
    31    29    30   ar
    32    12    30   ar
    33     1    31    1
    34     1    32    1
    35     1    33    1
    36     2    34    1
    37     2    35    1
    38     3    36    1
    39     3    37    1
    40     4    38    1
    41     7    39    1
    42    10    40    1
    43    10    41    1
    44    11    42    1
    45    13    43    1
    46    14    44    1
    47    16    45    1
    48    16    46    1
    49    17    47    1
    50    17    48    1
    51    23    49    1
    52    24    50    1
    53    25    51    1
    54    26    52    1
    55    27    53    1
    56    29    54    1
    57    30    55    1
