@<TRIPOS>MOLECULE
*****
 42 43 0 0 0
SMALL
GASTEIGER

@<TRIPOS>ATOM
      1 C           1.0466    0.0161   -0.0711 C.3     1  UNL1       -0.0381
      2 C           2.5703    0.0270    0.0433 C.3     1  UNL1        0.0949
      3 N           3.0340    0.2233    1.4314 N.pl3   1  UNL1       -0.3331
      4 C           2.7268    1.2851    2.2696 C.ar    1  UNL1        0.0306
      5 C           1.4682    1.8914    2.3799 C.ar    1  UNL1       -0.0372
      6 C           1.2066    2.9669    3.2416 C.ar    1  UNL1       -0.0153
      7 C           2.2118    3.4678    4.0516 C.ar    1  UNL1        0.1561
      8 O           1.8318    4.4879    4.8845 O.3     1  UNL1       -0.4845
      9 C           2.8714    4.9860    5.7196 C.3     1  UNL1        0.1149
     10 C           2.3836    6.1412    6.5495 C.ar    1  UNL1       -0.0077
     11 C           1.5717    5.9394    7.6752 C.ar    1  UNL1       -0.0552
     12 C           1.2101    7.0205    8.4831 C.ar    1  UNL1       -0.0587
     13 C           1.6448    8.3067    8.1620 C.ar    1  UNL1       -0.0264
     14 C           2.4306    8.5044    7.0339 C.ar    1  UNL1        0.1238
     15 F           2.8573    9.7361    6.7274 F       1  UNL1       -0.2055
     16 C           2.7983    7.4391    6.2260 C.ar    1  UNL1       -0.0201
     17 C           3.4755    2.8800    3.9526 C.ar    1  UNL1        0.1665
     18 F           4.5038    3.3001    4.7037 F       1  UNL1       -0.2016
     19 C           3.7306    1.8188    3.0773 C.ar    1  UNL1       -0.0019
     20 C           3.0315   -1.3412   -0.5457 C.2     1  UNL1        0.2404
     21 O           2.2074   -2.1763   -0.9346 O.2     1  UNL1       -0.2733
     22 N           4.3911   -1.5741   -0.6569 N.am    1  UNL1       -0.2388
     23 C           4.9727   -2.7029   -1.1837 C.2     1  UNL1        0.3034
     24 N           4.1421   -3.6723   -1.6273 N.am    1  UNL1       -0.3130
     25 O           6.1948   -2.8322   -1.2509 O.2     1  UNL1       -0.2527
     26 H           0.6050    0.9917    0.1076 H       1  UNL1        0.0252
     27 H           0.6153   -0.7193    0.6209 H       1  UNL1        0.0252
     28 H           0.7219   -0.2342   -1.0849 H       1  UNL1        0.0252
     29 H           2.9814    0.8232   -0.5897 H       1  UNL1        0.0591
     30 H           3.6470   -0.4849    1.8265 H       1  UNL1        0.1468
     31 H           0.5935    1.5095    1.8772 H       1  UNL1        0.0637
     32 H           0.1992    3.3773    3.2873 H       1  UNL1        0.0656
     33 H           3.7012    5.3432    5.0978 H       1  UNL1        0.0748
     34 H           3.2289    4.2021    6.3985 H       1  UNL1        0.0748
     35 H           1.2346    4.9376    7.9365 H       1  UNL1        0.0621
     36 H           0.5990    6.8589    9.3673 H       1  UNL1        0.0619
     37 H           1.3794    9.1555    8.7825 H       1  UNL1        0.0646
     38 H           3.4253    7.6253    5.3589 H       1  UNL1        0.0650
     39 H           4.7411    1.4241    3.0492 H       1  UNL1        0.0666
     40 H           5.0548   -0.8751   -0.3561 H       1  UNL1        0.1591
     41 H           3.1330   -3.5424   -1.5717 H       1  UNL1        0.1465
     42 H           4.5005   -4.5283   -2.0238 H       1  UNL1        0.1465
@<TRIPOS>BOND
     1     1     2    1
     2     2     3    1
     3     3     4    1
     4     4     5   ar
     5     5     6   ar
     6     6     7   ar
     7     7     8    1
     8     8     9    1
     9     9    10    1
    10    10    11   ar
    11    11    12   ar
    12    12    13   ar
    13    13    14   ar
    14    14    15    1
    15    14    16   ar
    16    10    16   ar
    17     7    17   ar
    18    17    18    1
    19    17    19   ar
    20     4    19   ar
    21     2    20    1
    22    20    21    2
    23    20    22   am
    24    22    23   am
    25    23    24   am
    26    23    25    2
    27     1    26    1
    28     1    27    1
    29     1    28    1
    30     2    29    1
    31     3    30    1
    32     5    31    1
    33     6    32    1
    34     9    33    1
    35     9    34    1
    36    11    35    1
    37    12    36    1
    38    13    37    1
    39    16    38    1
    40    19    39    1
    41    22    40    1
    42    24    41    1
    43    24    42    1
