@<TRIPOS>MOLECULE
*****
 37 38 0 0 0
SMALL
GASTEIGER

@<TRIPOS>ATOM
      1 C           2.4989    1.2191   -0.0009 C.3     1  UNL1       -0.0396
      2 C           1.2591    0.3802    0.0046 C.ar    1  UNL1       -0.0469
      3 C           1.3360   -1.0039    0.0216 C.ar    1  UNL1       -0.0569
      4 C           0.1702   -1.7722    0.0050 C.ar    1  UNL1       -0.0366
      5 C          -1.1159   -1.2106   -0.0215 C.ar    1  UNL1        0.0756
      6 N          -2.2825   -2.0489   -0.0538 N.am    1  UNL1       -0.2790
      7 C          -2.2494   -3.4395   -0.0690 C.2     1  UNL1        0.2412
      8 O          -1.2423   -4.1475   -0.0740 O.2     1  UNL1       -0.2705
      9 C          -3.5710   -4.1239   -0.0843 C.2     1  UNL1        0.0010
     10 C          -3.5754   -5.4732   -0.0694 C.2     1  UNL1       -0.0497
     11 C          -4.7819   -6.3018   -0.1450 C.ar    1  UNL1       -0.0243
     12 C          -4.9020   -7.4817    0.6010 C.ar    1  UNL1       -0.0546
     13 C          -6.0059   -8.3230    0.4242 C.ar    1  UNL1       -0.0607
     14 C          -7.0213   -7.9649   -0.4612 C.ar    1  UNL1       -0.0501
     15 C          -6.9091   -6.7951   -1.2235 C.ar    1  UNL1        0.0554
     16 C          -7.9570   -6.4378   -2.2409 C.3     1  UNL1        0.4174
     17 F          -8.1109   -7.4047   -3.1855 F       1  UNL1       -0.1659
     18 F          -9.1835   -6.2488   -1.6844 F       1  UNL1       -0.1659
     19 F          -7.6761   -5.2912   -2.9229 F       1  UNL1       -0.1659
     20 C          -5.7828   -5.9784   -1.0622 C.ar    1  UNL1       -0.0430
     21 C          -1.1785    0.1954   -0.0168 C.ar    1  UNL1        0.1382
     22 O          -2.3311    0.9344   -0.0188 O.3     1  UNL1       -0.5049
     23 C          -0.0064    0.9740   -0.0095 C.ar    1  UNL1       -0.0154
     24 H           3.4051    0.6027    0.0028 H       1  UNL1        0.0278
     25 H           2.5226    1.8576    0.8869 H       1  UNL1        0.0278
     26 H           2.5229    1.8426   -0.8998 H       1  UNL1        0.0278
     27 H           2.2930   -1.5204    0.0435 H       1  UNL1        0.0621
     28 H           0.3398   -2.8402    0.0116 H       1  UNL1        0.0637
     29 H          -3.1852   -1.6005   -0.0798 H       1  UNL1        0.1552
     30 H          -4.4806   -3.5429   -0.1148 H       1  UNL1        0.0670
     31 H          -2.6404   -6.0369   -0.0463 H       1  UNL1        0.0625
     32 H          -4.1409   -7.7605    1.3279 H       1  UNL1        0.0623
     33 H          -6.0689   -9.2657    0.9643 H       1  UNL1        0.0618
     34 H          -7.8943   -8.6070   -0.5704 H       1  UNL1        0.0623
     35 H          -5.6764   -5.0914   -1.6842 H       1  UNL1        0.0629
     36 H          -3.1015    0.3585    0.0326 H       1  UNL1        0.2922
     37 H          -0.0828    2.0595   -0.0153 H       1  UNL1        0.0657
@<TRIPOS>BOND
     1     1     2    1
     2     2     3   ar
     3     3     4   ar
     4     4     5   ar
     5     5     6    1
     6     6     7   am
     7     7     8    2
     8     7     9    1
     9     9    10    2
    10    10    11    1
    11    11    12   ar
    12    12    13   ar
    13    13    14   ar
    14    14    15   ar
    15    15    16    1
    16    16    17    1
    17    16    18    1
    18    16    19    1
    19    15    20   ar
    20    11    20   ar
    21     5    21   ar
    22    21    22    1
    23    21    23   ar
    24     2    23   ar
    25     1    24    1
    26     1    25    1
    27     1    26    1
    28     3    27    1
    29     4    28    1
    30     6    29    1
    31     9    30    1
    32    10    31    1
    33    12    32    1
    34    13    33    1
    35    14    34    1
    36    20    35    1
    37    22    36    1
    38    23    37    1
