@<TRIPOS>MOLECULE
*****
 73 76 0 0 0
SMALL
GASTEIGER

@<TRIPOS>ATOM
      1 C           0.9503    0.2533    0.0022 C.3     1  UNL1       -0.0245
      2 C           2.4470    0.0273    0.0238 C.3     1  UNL1       -0.0348
      3 N           2.8750   -1.0188    1.0520 N.4     1  UNL1        0.2360
      4 C           2.4015   -2.4278    0.7716 C.3     1  UNL1       -0.0348
      5 C           0.9091   -2.6065    0.8890 C.3     1  UNL1       -0.0245
      6 C           4.3970   -0.9882    1.1366 C.3     1  UNL1       -0.0157
      7 C           4.9520   -1.9049    2.2655 C.3     1  UNL1        0.0561
      8 N           6.3783   -1.8391    2.4287 N.am    1  UNL1       -0.2785
      9 C           7.0983   -0.8967    1.7627 C.2     1  UNL1        0.2877
     10 O           6.9075    0.2614    1.5428 O.2     1  UNL1       -0.2664
     11 C           7.9678   -1.8129    0.9949 C.2     1  UNL1        0.2491
     12 O           7.7275   -1.8113   -0.2040 O.2     1  UNL1       -0.2819
     13 C           8.4942   -2.8966    1.9450 C.2     1  UNL1        0.0711
     14 C           9.7005   -3.5449    2.1335 C.2     1  UNL1        0.1333
     15 O           9.8480   -4.5205    3.1225 O.2     1  UNL1       -0.5057
     16 C          11.0580   -3.3606    1.4276 C.ar    1  UNL1        0.0200
     17 C          12.2171   -4.1398    1.6262 C.ar    1  UNL1       -0.0474
     18 C          13.4090   -3.9230    0.8488 C.ar    1  UNL1       -0.0192
     19 C          13.4741   -2.9416   -0.1450 C.ar    1  UNL1        0.1213
     20 O          14.5666   -2.7710   -0.9412 O.3     1  UNL1       -0.4874
     21 C          14.5653   -1.6462   -1.8652 C.3     1  UNL1        0.1146
     22 C          15.2891   -0.4281   -1.3337 C.ar    1  UNL1       -0.0104
     23 C          15.4008    0.7325   -2.1197 C.ar    1  UNL1       -0.0554
     24 C          16.1339    1.8303   -1.6599 C.ar    1  UNL1       -0.0614
     25 C          16.7493    1.7843   -0.4101 C.ar    1  UNL1       -0.0617
     26 C          16.6153    0.6534    0.3895 C.ar    1  UNL1       -0.0614
     27 C          15.8872   -0.4412   -0.0684 C.ar    1  UNL1       -0.0554
     28 C          12.3807   -2.1596   -0.2845 C.ar    1  UNL1       -0.0163
     29 C          11.2621   -2.3489    0.4943 C.ar    1  UNL1       -0.0364
     30 C          10.2233   -1.4342    0.0733 C.3     1  UNL1       -0.0389
     31 C           7.2360   -2.9669    2.8295 C.3     1  UNL1        0.0843
     32 C           7.5346   -2.7150    4.2871 C.ar    1  UNL1       -0.0221
     33 C           8.1327   -1.5030    4.7014 C.ar    1  UNL1       -0.0530
     34 C           8.4756   -1.2960    6.0286 C.ar    1  UNL1       -0.0199
     35 C           8.1302   -2.2582    6.9625 C.ar    1  UNL1        0.1169
     36 O           8.3590   -2.0637    8.2896 O.3     1  UNL1       -0.5068
     37 C           7.5166   -3.4470    6.5779 C.ar    1  UNL1       -0.0199
     38 C           7.2144   -3.6800    5.2402 C.ar    1  UNL1       -0.0530
     39 H           0.6957    1.1345   -0.5888 H       1  UNL1        0.0281
     40 H           0.5388    0.3578    1.0110 H       1  UNL1        0.0281
     41 H           0.4322   -0.5411   -0.5252 H       1  UNL1        0.0281
     42 H           2.9349    0.9679    0.3048 H       1  UNL1        0.0812
     43 H           2.8230   -0.3014   -0.9497 H       1  UNL1        0.0812
     44 H           2.5348   -0.7056    1.9726 H       1  UNL1        0.2034
     45 H           2.8332   -3.0709    1.5395 H       1  UNL1        0.0812
     46 H           2.7919   -2.7169   -0.2079 H       1  UNL1        0.0812
     47 H           0.5145   -2.1167    1.7844 H       1  UNL1        0.0281
     48 H           0.6607   -3.6687    0.9183 H       1  UNL1        0.0281
     49 H           0.3872   -2.2579    0.0054 H       1  UNL1        0.0281
     50 H           4.6602    0.0567    1.3226 H       1  UNL1        0.0830
     51 H           4.7868   -1.2792    0.1497 H       1  UNL1        0.0830
     52 H           4.7297   -2.9493    2.0290 H       1  UNL1        0.0518
     53 H           4.5207   -1.6471    3.2318 H       1  UNL1        0.0518
     54 H           9.0790   -4.6214    3.7015 H       1  UNL1        0.2922
     55 H          12.2381   -4.9369    2.3713 H       1  UNL1        0.0626
     56 H          14.2867   -4.5383    1.0277 H       1  UNL1        0.0654
     57 H          13.5799   -1.3359   -2.2322 H       1  UNL1        0.0748
     58 H          15.0639   -1.9961   -2.7716 H       1  UNL1        0.0748
     59 H          14.9344    0.7883   -3.1018 H       1  UNL1        0.0621
     60 H          16.2388    2.7176   -2.2799 H       1  UNL1        0.0618
     61 H          17.3383    2.6264   -0.0579 H       1  UNL1        0.0618
     62 H          17.0878    0.6089    1.3664 H       1  UNL1        0.0618
     63 H          15.8041   -1.3172    0.5697 H       1  UNL1        0.0621
     64 H          12.2779   -1.3776   -1.0211 H       1  UNL1        0.0657
     65 H          10.3778   -0.7198   -0.7264 H       1  UNL1        0.0278
     66 H           9.9527   -0.8799    0.9751 H       1  UNL1        0.0278
     67 H           9.6206   -2.2154   -0.3876 H       1  UNL1        0.0278
     68 H           6.7368   -3.9246    2.6371 H       1  UNL1        0.0603
     69 H           8.3445   -0.6964    4.0009 H       1  UNL1        0.0622
     70 H           9.0172   -0.3956    6.3011 H       1  UNL1        0.0654
     71 H           8.6897   -1.1595    8.4263 H       1  UNL1        0.2921
     72 H           7.2855   -4.1990    7.3259 H       1  UNL1        0.0654
     73 H           6.7376   -4.6142    4.9548 H       1  UNL1        0.0622
@<TRIPOS>UNITY_ATOM_ATTR
3 1
charge 1
@<TRIPOS>BOND
     1     1     2    1
     2     2     3    1
     3     3     4    1
     4     4     5    1
     5     3     6    1
     6     6     7    1
     7     7     8    1
     8     8     9   am
     9     9    10    2
    10     9    11    1
    11    11    12    2
    12    11    13    1
    13    13    14    2
    14    14    15    1
    15    14    16    1
    16    16    17   ar
    17    17    18   ar
    18    18    19   ar
    19    19    20    1
    20    20    21    1
    21    21    22    1
    22    22    23   ar
    23    23    24   ar
    24    24    25   ar
    25    25    26   ar
    26    26    27   ar
    27    22    27   ar
    28    19    28   ar
    29    28    29   ar
    30    16    29   ar
    31    29    30    1
    32    13    31    1
    33     8    31    1
    34    32    33   ar
    35    33    34   ar
    36    34    35   ar
    37    35    36    1
    38    35    37   ar
    39    37    38   ar
    40    32    38   ar
    41    31    32    1
    42     1    39    1
    43     1    40    1
    44     1    41    1
    45     2    42    1
    46     2    43    1
    47     3    44    1
    48     4    45    1
    49     4    46    1
    50     5    47    1
    51     5    48    1
    52     5    49    1
    53     6    50    1
    54     6    51    1
    55     7    52    1
    56     7    53    1
    57    15    54    1
    58    17    55    1
    59    18    56    1
    60    21    57    1
    61    21    58    1
    62    23    59    1
    63    24    60    1
    64    25    61    1
    65    26    62    1
    66    27    63    1
    67    28    64    1
    68    30    65    1
    69    30    66    1
    70    30    67    1
    71    31    68    1
    72    33    69    1
    73    34    70    1
    74    36    71    1
    75    37    72    1
    76    38    73    1
