REMARK  13 active torsions:
REMARK  status: ('A' for Active; 'I' for Inactive)
REMARK    1  A    between atoms: C_2  and  C_3 
REMARK    2  A    between atoms: C_3  and  C_4 
REMARK       I    between atoms: C_4  and  N_6 
REMARK    3  A    between atoms: N_6  and  C_7 
REMARK    4  A    between atoms: N_6  and  C_14 
REMARK    5  A    between atoms: C_7  and  C_8 
REMARK    6  A    between atoms: C_14  and  C_15 
REMARK    7  A    between atoms: C_14  and  C_26 
REMARK       I    between atoms: C_15  and  N_17 
REMARK    8  A    between atoms: N_17  and  C_18 
REMARK    9  A    between atoms: C_18  and  C_21 
REMARK   10  A    between atoms: C_21  and  C_22 
REMARK   11  A    between atoms: C_27  and  O_28 
REMARK   12  A    between atoms: C_30  and  O_31 
REMARK   13  A    between atoms: C_33  and  O_34 
ROOT
ATOM      1  C   UNL d   1       6.671   1.956  -1.949  0.00  0.00     0.218 C 
ENDROOT
BRANCH   1   2
ATOM      2  N   UNL d   1       5.171   1.863  -1.971  0.00  0.00    -0.328 N 
ATOM      3  C   UNL d   1       4.531   1.195  -0.922  0.00  0.00     0.221 C 
ATOM      4  O   UNL d   1       5.158   0.620  -0.029  0.00  0.00    -0.273 OA
BRANCH   3   5
ATOM      5  C   UNL d   1       3.010   1.145  -0.903  0.00  0.00     0.103 C 
BRANCH   5   6
ATOM      6  C   UNL d   1       2.490   0.118   0.098  0.00  0.00     0.005 C 
ATOM      7  C   UNL d   1       0.973   0.087   0.072  0.00  0.00     0.005 C 
ENDBRANCH   5   6
ENDBRANCH   3   5
BRANCH   2   8
ATOM      8  C   UNL d   1       4.419   2.753  -2.873  0.00  0.00     0.192 C 
BRANCH   8   9
ATOM      9  C   UNL d   1       3.632   1.989  -3.869  0.00  0.00     0.071 A 
ATOM     10  C   UNL d   1       3.404   0.643  -4.062  0.00  0.00     0.037 A 
ATOM     11  C   UNL d   1       2.447   0.545  -5.081  0.00  0.00     0.035 A 
ATOM     12  C   UNL d   1       2.244   1.821  -5.548  0.00  0.00     0.049 A 
ATOM     13  C   UNL d   1       1.419   2.324  -6.659  0.00  0.00     0.076 C 
ATOM     14  O   UNL d   1       2.951   2.719  -4.805  0.00  0.00    -0.318 OA
ENDBRANCH   8   9
ENDBRANCH   2   8
ENDBRANCH   1   2
BRANCH   1  15
ATOM     15  C   UNL d   1       7.311   0.571  -2.086  0.00  0.00     0.246 C 
ATOM     16  O   UNL d   1       8.273   0.442  -2.866  0.00  0.00    -0.271 OA
ATOM     17  N   UNL d   1       6.934  -0.527  -1.361  0.00  0.00    -0.351 N 
ATOM     18  H   UNL d   1       6.282  -0.411  -0.578  0.00  0.00     0.163 HD
BRANCH  17  19
ATOM     19  C   UNL d   1       7.441  -1.853  -1.744  0.00  0.00     0.026 C 
ATOM     20  C   UNL d   1       6.885  -2.127  -3.160  0.00  0.00     0.038 C 
ATOM     21  C   UNL d   1       8.985  -1.791  -1.730  0.00  0.00     0.038 C 
BRANCH  19  22
ATOM     22  C   UNL d   1       6.944  -2.946  -0.732  0.00  0.00     0.038 C 
BRANCH  22  23
ATOM     23  C   UNL d   1       7.399  -4.436  -0.959  0.00  0.00    -0.049 C 
ATOM     24  C   UNL d   1       6.876  -5.025  -2.277  0.00  0.00     0.014 C 
ATOM     25  C   UNL d   1       8.922  -4.625  -0.883  0.00  0.00     0.014 C 
ATOM     26  C   UNL d   1       6.825  -5.325   0.156  0.00  0.00     0.014 C 
ENDBRANCH  22  23
ENDBRANCH  19  22
ENDBRANCH  17  19
ENDBRANCH   1  15
BRANCH   1  27
ATOM     27  C   UNL d   1       7.259   2.947  -3.016  0.00  0.00     0.040 A 
ATOM     28  C   UNL d   1       7.707   2.623  -4.332  0.00  0.00     0.080 A 
ATOM     29  C   UNL d   1       8.005   3.596  -5.282  0.00  0.00     0.073 A 
ATOM     30  C   UNL d   1       7.773   4.921  -4.995  0.00  0.00     0.071 A 
ATOM     31  C   UNL d   1       7.339   5.299  -3.734  0.00  0.00     0.073 A 
ATOM     32  C   UNL d   1       7.136   4.328  -2.744  0.00  0.00     0.080 A 
BRANCH  28  33
ATOM     33  O   UNL d   1       7.818   1.387  -4.914  0.00  0.00    -0.360 OA
ATOM     34  H   UNL d   1       7.982   0.718  -4.221  0.00  0.00     0.217 HD
ENDBRANCH  28  33
BRANCH  30  35
ATOM     35  O   UNL d   1       7.924   5.870  -5.959  0.00  0.00    -0.361 OA
ATOM     36  H   UNL d   1       8.225   5.423  -6.770  0.00  0.00     0.217 HD
ENDBRANCH  30  35
BRANCH  32  37
ATOM     37  O   UNL d   1       6.639   4.720  -1.528  0.00  0.00    -0.360 OA
ATOM     38  H   UNL d   1       6.559   5.690  -1.524  0.00  0.00     0.217 HD
ENDBRANCH  32  37
ENDBRANCH   1  27
TORSDOF 13
