REMARK  9 active torsions:
REMARK  status: ('A' for Active; 'I' for Inactive)
REMARK    1  A    between atoms: O_2  and  C_3 
REMARK    2  A    between atoms: C_3  and  C_5 
REMARK    3  A    between atoms: C_8  and  O_9 
REMARK    4  A    between atoms: O_9  and  C_10 
REMARK    5  A    between atoms: C_11  and  C_10 
REMARK    6  A    between atoms: C_14  and  C_15 
REMARK       I    between atoms: C_15  and  N_17 
REMARK    7  A    between atoms: N_17  and  C_18 
REMARK    8  A    between atoms: C_18  and  C_19 
REMARK    9  A    between atoms: C_19  and  C_20 
ROOT
ATOM      1  C   UNL d   1      11.125  -0.368  -0.986  0.00  0.00     0.345 C 
ATOM      2  N   UNL d   1      11.854  -1.441  -0.304  0.00  0.00    -0.168 NA
ATOM      3  O   UNL d   1      13.114  -0.833   0.144  0.00  0.00    -0.258 OA
ATOM      4  C   UNL d   1      12.946   0.579   0.048  0.00  0.00     0.471 C 
ATOM      5  N   UNL d   1      11.538   0.835  -0.265  0.00  0.00     0.145 N 
ATOM      6  H   UNL d   1      12.161  -2.123  -0.999  0.00  0.00     0.156 HD
ATOM      7  H   UNL d   1      11.455   1.669  -0.840  0.00  0.00     0.322 HD
ENDROOT
BRANCH   4   8
ATOM      8  C   UNL d   1      13.876   1.123  -1.083  0.00  0.00     0.279 C 
ATOM      9  O   UNL d   1      13.452   1.787  -2.035  0.00  0.00    -0.268 OA
ATOM     10  N   UNL d   1      15.223   0.830  -0.996  0.00  0.00    -0.357 N 
ATOM     11  H   UNL d   1      15.590   0.381  -0.160  0.00  0.00     0.162 HD
BRANCH  10  12
ATOM     12  C   UNL d   1      16.075   1.174  -2.115  0.00  0.00     0.127 C 
BRANCH  12  13
ATOM     13  C   UNL d   1      17.530   0.900  -1.834  0.00  0.00     0.056 C 
BRANCH  13  14
ATOM     14  C   UNL d   1      18.495   1.193  -2.938  0.00  0.00    -0.048 A 
ATOM     15  C   UNL d   1      19.800   1.018  -2.736  0.00  0.00    -0.003 A 
ATOM     16  C   UNL d   1      20.506   0.582  -1.585  0.00  0.00     0.056 A 
ATOM     17  C   UNL d   1      20.474   1.446  -3.966  0.00  0.00     0.039 A 
ATOM     18  C   UNL d   1      21.835   0.671  -1.603  0.00  0.00     0.117 A 
ATOM     19  F   UNL d   1      22.526   0.419  -0.477  0.00  0.00    -0.206 F 
ATOM     20  C   UNL d   1      22.558   1.059  -2.800  0.00  0.00     0.044 A 
ATOM     21  C   UNL d   1      21.955   1.431  -3.951  0.00  0.00     0.033 A 
ATOM     22  N   UNL d   1      19.631   1.782  -4.869  0.00  0.00    -0.385 N 
ATOM     23  C   UNL d   1      18.235   1.713  -4.325  0.00  0.00     0.155 A 
ATOM     24  H   UNL d   1      19.913   2.049  -5.813  0.00  0.00     0.160 HD
ENDBRANCH  13  14
ENDBRANCH  12  13
ENDBRANCH  10  12
ENDBRANCH   4   8
BRANCH   1  25
ATOM     25  C   UNL d   1      11.381  -0.287  -2.527  0.00  0.00     0.229 C 
BRANCH  25  26
ATOM     26  O   UNL d   1      11.039  -1.490  -3.229  0.00  0.00    -0.348 OA
BRANCH  26  27
ATOM     27  C   UNL d   1      11.422  -1.517  -4.553  0.00  0.00     0.069 A 
ATOM     28  C   UNL d   1      11.297  -2.753  -5.189  0.00  0.00     0.038 A 
ATOM     29  C   UNL d   1      11.690  -2.916  -6.528  0.00  0.00     0.020 A 
ATOM     30  C   UNL d   1      12.152  -1.821  -7.270  0.00  0.00     0.039 A 
ATOM     31  C   UNL d   1      12.266  -0.577  -6.645  0.00  0.00     0.020 A 
ATOM     32  C   UNL d   1      11.905  -0.429  -5.294  0.00  0.00     0.038 A 
BRANCH  30  33
ATOM     33  C   UNL d   1      12.352  -1.973  -8.740  0.00  0.00     0.292 C 
ATOM     34  O   UNL d   1      11.622  -2.651  -9.433  0.00  0.00    -0.259 OA
BRANCH  33  35
ATOM     35  O   UNL d   1      13.440  -1.272  -9.171  0.00  0.00    -0.323 OA
ATOM     36  C   UNL d   1      13.669  -1.386 -10.586  0.00  0.00     0.213 C 
ENDBRANCH  33  35
ENDBRANCH  30  33
ENDBRANCH  26  27
ENDBRANCH  25  26
ENDBRANCH   1  25
TORSDOF 9
