@<TRIPOS>MOLECULE
*****
 62 68 0 0 0
SMALL
GASTEIGER

@<TRIPOS>ATOM
      1 C          -2.0574   -0.9034   -0.0896 C.ar    1  UNL1       -0.0555
      2 C          -2.1595    0.5261   -0.2566 C.ar    1  UNL1       -0.0608
      3 C          -1.0787    1.2834   -0.4882 C.ar    1  UNL1       -0.0482
      4 C           0.2464    0.7041   -0.4058 C.ar    1  UNL1        0.0509
      5 C           0.3514   -0.7513   -0.1852 C.ar    1  UNL1        0.2086
      6 C          -0.8769   -1.5536   -0.0712 C.ar    1  UNL1        0.0098
      7 N           1.5764   -1.1410   -0.0476 N.2     1  UNL1       -0.2369
      8 C           2.4779    0.0240   -0.0686 C.3     1  UNL1        0.1661
      9 C           1.5099    1.1739   -0.2461 C.2     1  UNL1        0.0095
     10 C           2.0311    2.6097   -0.0704 C.3     1  UNL1       -0.0032
     11 C           0.9179    3.6723    0.1024 C.3     1  UNL1        0.0586
     12 C           0.1416    3.3969    1.4369 C.3     1  UNL1        0.1081
     13 O           0.0671    2.0476    1.8651 O.3     1  UNL1       -0.4886
     14 C          -0.9952    1.6359    2.6086 C.ar    1  UNL1        0.1392
     15 C          -0.8335    0.3563    3.1189 C.ar    1  UNL1        0.0692
     16 N          -1.6309   -0.2169    4.0312 N.ar    1  UNL1       -0.2590
     17 C          -2.6589    0.5458    4.4563 C.ar    1  UNL1        0.0355
     18 C          -3.0072    1.7793    3.8971 C.ar    1  UNL1        0.0037
     19 C          -4.0542    2.6116    4.4720 C.ar    1  UNL1       -0.0142
     20 C          -5.2484    2.9381    3.7838 C.ar    1  UNL1       -0.0519
     21 C          -6.2676    3.6452    4.4386 C.ar    1  UNL1       -0.0338
     22 C          -5.9817    4.1131    5.7027 C.ar    1  UNL1        0.0888
     23 C          -4.7057    4.0420    6.2469 C.ar    1  UNL1        0.0894
     24 C          -3.8147    3.1453    5.7472 C.ar    1  UNL1       -0.0266
     25 N          -4.7072    4.7062    7.4963 N.3     1  UNL1       -0.2392
     26 O          -6.0464    4.5872    7.9478 O.3     1  UNL1       -0.1558
     27 N          -6.8328    4.5455    6.7532 N.3     1  UNL1       -0.2392
     28 C          -2.1709    2.3070    2.9071 C.ar    1  UNL1       -0.0093
     29 N           1.3683    5.0917    0.0163 N.pl3   1  UNL1       -0.3374
     30 C           0.4432    6.1563   -0.0001 C.ar    1  UNL1        0.0297
     31 C          -0.5893    6.1890    0.9887 C.ar    1  UNL1       -0.0386
     32 C          -1.6228    7.1165    1.1237 C.ar    1  UNL1       -0.0291
     33 C          -1.6303    8.0510    0.1100 C.ar    1  UNL1        0.1343
     34 N          -2.4827    9.0618   -0.0488 N.ar    1  UNL1       -0.0489
     35 O          -2.2723    9.4862   -1.3459 O.2     1  UNL1       -0.2416
     36 N          -1.1075    8.9379   -1.8795 N.ar    1  UNL1       -0.0489
     37 C          -0.6623    8.0509   -0.9744 C.ar    1  UNL1        0.1359
     38 C           0.4691    7.1751   -0.9849 C.ar    1  UNL1       -0.0099
     39 H          -3.0002   -1.4350    0.0215 H       1  UNL1        0.0620
     40 H          -3.1345    0.9974   -0.1230 H       1  UNL1        0.0618
     41 H          -1.2513    2.3488   -0.5344 H       1  UNL1        0.0626
     42 H          -0.8424   -2.6266    0.0570 H       1  UNL1        0.0683
     43 H           1.8238   -2.1118    0.0855 H       1  UNL1        0.4459
     44 H           3.1531   -0.0779   -0.9202 H       1  UNL1        0.1077
     45 H           3.0296    0.0385    0.8791 H       1  UNL1        0.1077
     46 H           2.6704    2.8467   -0.9286 H       1  UNL1        0.0331
     47 H           2.6837    2.6664    0.8154 H       1  UNL1        0.0331
     48 H           0.2770    3.5430   -0.7760 H       1  UNL1        0.0534
     49 H          -0.8719    3.7492    1.2631 H       1  UNL1        0.0715
     50 H           0.6546    3.9185    2.2493 H       1  UNL1        0.0715
     51 H          -0.0018   -0.2508    2.7852 H       1  UNL1        0.0867
     52 H          -3.1862    0.1454    5.3192 H       1  UNL1        0.0836
     53 H          -5.4197    2.5614    2.7760 H       1  UNL1        0.0624
     54 H          -7.2564    3.7297    4.0023 H       1  UNL1        0.0639
     55 H          -3.0058    2.7954    6.3789 H       1  UNL1        0.0645
     56 H          -4.6710    5.7094    7.2662 H       1  UNL1        0.1966
     57 H          -7.1763    5.4819    6.5817 H       1  UNL1        0.1966
     58 H          -2.4480    3.2582    2.4615 H       1  UNL1        0.0661
     59 H           2.3449    5.3020   -0.1685 H       1  UNL1        0.1465
     60 H          -0.5851    5.4994    1.8131 H       1  UNL1        0.0637
     61 H          -2.3590    7.0798    1.9104 H       1  UNL1        0.0641
     62 H           1.2622    7.2903   -1.7155 H       1  UNL1        0.0659
@<TRIPOS>UNITY_ATOM_ATTR
7 1
charge 1
@<TRIPOS>BOND
     1     1     2   ar
     2     2     3   ar
     3     3     4   ar
     4     4     5   ar
     5     5     6   ar
     6     1     6   ar
     7     5     7    2
     8     7     8    1
     9     8     9    1
    10     4     9    2
    11     9    10    1
    12    10    11    1
    13    11    12    1
    14    12    13    1
    15    13    14    1
    16    14    15   ar
    17    15    16   ar
    18    16    17   ar
    19    17    18   ar
    20    18    19    1
    21    19    20   ar
    22    20    21   ar
    23    21    22   ar
    24    22    23   ar
    25    23    24   ar
    26    19    24   ar
    27    23    25    1
    28    25    26    1
    29    26    27    1
    30    22    27    1
    31    18    28   ar
    32    14    28   ar
    33    11    29    1
    34    29    30    1
    35    30    31   ar
    36    31    32   ar
    37    32    33   ar
    38    33    34   ar
    39    34    35   ar
    40    35    36   ar
    41    36    37   ar
    42    33    37   ar
    43    37    38   ar
    44    30    38   ar
    45     1    39    1
    46     2    40    1
    47     3    41    1
    48     6    42    1
    49     7    43    1
    50     8    44    1
    51     8    45    1
    52    10    46    1
    53    10    47    1
    54    11    48    1
    55    12    49    1
    56    12    50    1
    57    15    51    1
    58    17    52    1
    59    20    53    1
    60    21    54    1
    61    24    55    1
    62    25    56    1
    63    27    57    1
    64    28    58    1
    65    29    59    1
    66    31    60    1
    67    32    61    1
    68    38    62    1
