REMARK  4 active torsions:
REMARK  status: ('A' for Active; 'I' for Inactive)
REMARK    1  A    between atoms: C_5  and  C_6 
REMARK       I    between atoms: C_6  and  N_8 
REMARK    2  A    between atoms: N_8  and  N_9 
REMARK       I    between atoms: N_9  and  C_10 
REMARK    3  A    between atoms: C_10  and  C_12 
REMARK    4  A    between atoms: C_18  and  O_19 
ROOT
ATOM      1  C   UNL d   1      -2.420  -2.031  -0.058  0.00  0.00     0.272 C 
ATOM      2  O   UNL d   1      -3.504  -1.442  -0.076  0.00  0.00    -0.266 OA
ATOM      3  N   UNL d   1      -2.336  -3.423  -0.073  0.00  0.00    -0.263 N 
ATOM      4  H   UNL d   1      -1.471  -3.957  -0.065  0.00  0.00     0.190 HD
ENDROOT
BRANCH   3   5
ATOM      5  N   UNL d   1      -3.522  -4.210  -0.122  0.00  0.00    -0.263 N 
ATOM      6  C   UNL d   1      -3.443  -5.604  -0.103  0.00  0.00     0.277 C 
ATOM      7  O   UNL d   1      -2.338  -6.160  -0.028  0.00  0.00    -0.265 OA
ATOM      8  H   UNL d   1      -4.403  -3.705  -0.068  0.00  0.00     0.190 HD
BRANCH   6   9
ATOM      9  C   UNL d   1      -4.716  -6.330  -0.194  0.00  0.00     0.080 A 
ATOM     10  S   UNL d   1      -4.958  -7.748   0.753  0.00  0.00    -0.096 SA
ATOM     11  C   UNL d   1      -6.524  -8.014   0.116  0.00  0.00     0.051 A 
ATOM     12  C   UNL d   1      -6.852  -7.067  -0.825  0.00  0.00     0.015 A 
ATOM     13  C   UNL d   1      -5.814  -6.091  -1.016  0.00  0.00    -0.039 A 
ATOM     14  C   UNL d   1      -5.903  -5.003  -2.027  0.00  0.00     0.050 C 
ENDBRANCH   6   9
ENDBRANCH   3   5
BRANCH   1  15
ATOM     15  C   UNL d   1      -1.145  -1.221  -0.021  0.00  0.00     0.066 A 
ATOM     16  C   UNL d   1       0.121  -1.827   0.000  0.00  0.00     0.020 A 
ATOM     17  C   UNL d   1       1.300  -1.058   0.018  0.00  0.00     0.008 A 
ATOM     18  C   UNL d   1       1.246   0.338   0.004  0.00  0.00    -0.059 A 
ATOM     19  C   UNL d   1       2.488   1.183  -0.001  0.00  0.00     0.048 C 
ATOM     20  C   UNL d   1      -0.007   0.954  -0.007  0.00  0.00     0.044 A 
ATOM     21  C   UNL d   1      -1.183   0.190  -0.013  0.00  0.00     0.082 A 
BRANCH  21  22
ATOM     22  O   UNL d   1      -2.341   0.926  -0.006  0.00  0.00    -0.360 OA
ATOM     23  H   UNL d   1      -3.101   0.307   0.001  0.00  0.00     0.217 HD
ENDBRANCH  21  22
ENDBRANCH   1  15
TORSDOF 4
