REMARK  6 active torsions:
REMARK  status: ('A' for Active; 'I' for Inactive)
REMARK    1  A    between atoms: C_2  and  CA_3 
REMARK    2  A    between atoms: CA_3  and  C_4 
REMARK    3  A    between atoms: CA_3  and  N_6 
REMARK    4  A    between atoms: C_4  and  O_5 
REMARK       I    between atoms: N_6  and  C_7 
REMARK    5  A    between atoms: C_7  and  C_9 
REMARK    6  A    between atoms: C_11  and  C_12 
ROOT
ATOM      1  C   UNL d   1       6.608  -2.561   0.471  0.00  0.00     0.264 A 
ATOM      2  N   UNL d   1       7.362  -1.652   1.058  0.00  0.00    -0.195 NA
ATOM      3  C   UNL d   1       8.638  -2.118   0.794  0.00  0.00     0.190 A 
ATOM      4  N   UNL d   1       8.676  -3.222   0.031  0.00  0.00    -0.105 NA
ATOM      5  O   UNL d   1       7.329  -3.535  -0.158  0.00  0.00    -0.185 OA
ENDROOT
BRANCH   1   6
ATOM      6  C   UNL d   1       5.160  -2.658   0.470  0.00  0.00     0.297 C 
ATOM      7  N   UNL d   1       4.446  -1.474   0.278  0.00  0.00    -0.347 N 
ATOM      8  H   UNL d   1       4.975  -0.614   0.168  0.00  0.00     0.163 HD
ATOM      9  O   UNL d   1       4.574  -3.736   0.603  0.00  0.00    -0.264 OA
BRANCH   7  10
ATOM     10  CA  UNL d   1       2.968  -1.446   0.209  0.00  0.00     0.108 C 
BRANCH  10  11
ATOM     11  C   UNL d   1       2.441   0.002   0.032  0.00  0.00     0.023 C 
ATOM     12  C   UNL d   1       0.917   0.124   0.058  0.00  0.00     0.007 C 
ENDBRANCH  10  11
BRANCH  10  13
ATOM     13  C   UNL d   1       2.434  -2.380  -0.912  0.00  0.00     0.189 C 
BRANCH  13  14
ATOM     14  O   UNL d   1       1.019  -2.531  -0.924  0.00  0.00    -0.399 OA
ATOM     15  H   UNL d   1       0.729  -2.727  -0.017  0.00  0.00     0.209 HD
ENDBRANCH  13  14
ENDBRANCH  10  13
ENDBRANCH   7  10
ENDBRANCH   1   6
BRANCH   3  16
ATOM     16  C   UNL d   1       9.822  -1.443   1.290  0.00  0.00     0.026 A 
ATOM     17  C   UNL d   1      10.072  -1.304   2.664  0.00  0.00     0.016 A 
ATOM     18  C   UNL d   1      11.190  -0.601   3.117  0.00  0.00     0.003 A 
ATOM     19  C   UNL d   1      12.083  -0.005   2.218  0.00  0.00     0.030 A 
ATOM     20  C   UNL d   1      11.837  -0.178   0.850  0.00  0.00     0.043 A 
ATOM     21  N   UNL d   1      12.549   0.265  -0.245  0.00  0.00    -0.365 N 
ATOM     22  C   UNL d   1      10.737  -0.893   0.364  0.00  0.00     0.006 A 
ATOM     23  C   UNL d   1      11.967  -0.183  -1.400  0.00  0.00     0.089 A 
ATOM     24  H   UNL d   1      13.393   0.819  -0.198  0.00  0.00     0.165 HD
ATOM     25  C   UNL d   1      10.832  -0.878  -1.057  0.00  0.00     0.031 A 
ENDBRANCH   3  16
TORSDOF 6
