REMARK  16 active torsions:
REMARK  status: ('A' for Active; 'I' for Inactive)
REMARK    1  A    between atoms: C_2  and  N_3 
REMARK    2  A    between atoms: C_2  and  C_8 
REMARK    3  A    between atoms: N_3  and  N_4 
REMARK    4  A    between atoms: N_4  and  C_5 
REMARK    5  A    between atoms: C_5  and  N_6 
REMARK    6  A    between atoms: C_11  and  O_12 
REMARK    7  A    between atoms: O_12  and  C_13 
REMARK    8  A    between atoms: C_13  and  C_14 
REMARK    9  A    between atoms: C_14  and  C_15 
REMARK   10  A    between atoms: C_15  and  O_16 
REMARK   11  A    between atoms: O_16  and  C_17 
REMARK   12  A    between atoms: C_20  and  C_21 
REMARK   13  A    between atoms: C_21  and  N_23 
REMARK   14  A    between atoms: N_23  and  N_24 
REMARK   15  A    between atoms: N_24  and  C_25 
REMARK   16  A    between atoms: C_25  and  N_26 
ROOT
ATOM      1  C   UNL d   1       6.007  -6.840  -2.378  0.00  0.00     0.053 C 
ENDROOT
BRANCH   1   2
ATOM      2  C   UNL d   1       5.101  -5.611  -2.311  0.00  0.00     0.178 C 
BRANCH   2   3
ATOM      3  O   UNL d   1       5.576  -4.710  -1.308  0.00  0.00    -0.351 OA
BRANCH   3   4
ATOM      4  C   UNL d   1       4.779  -3.627  -1.038  0.00  0.00     0.068 A 
ATOM      5  C   UNL d   1       5.169  -2.858   0.059  0.00  0.00     0.037 A 
ATOM      6  C   UNL d   1       4.391  -1.776   0.482  0.00  0.00     0.016 A 
ATOM      7  C   UNL d   1       3.290  -1.361  -0.275  0.00  0.00    -0.010 A 
ATOM      8  C   UNL d   1       2.896  -2.126  -1.376  0.00  0.00     0.016 A 
ATOM      9  C   UNL d   1       3.634  -3.258  -1.749  0.00  0.00     0.037 A 
BRANCH   7  10
ATOM     10  C   UNL d   1       2.604  -0.063   0.039  0.00  0.00     0.061 C 
ATOM     11  C   UNL d   1       1.083  -0.084   0.019  0.00  0.00     0.073 C 
BRANCH  10  12
ATOM     12  N   UNL d   1       3.183   1.072   0.315  0.00  0.00    -0.177 NA
BRANCH  12  13
ATOM     13  N   UNL d   1       4.550   1.148   0.257  0.00  0.00    -0.253 N 
ATOM     14  H   UNL d   1       5.098   0.354  -0.051  0.00  0.00     0.191 HD
BRANCH  13  15
ATOM     15  C   UNL d   1       5.268   2.259   0.571  0.00  0.00     0.185 C 
ATOM     16  S   UNL d   1       6.929   2.240   0.558  0.00  0.00    -0.040 SA
BRANCH  15  17
ATOM     17  N   UNL d   1       4.578   3.372   0.888  0.00  0.00    -0.375 N 
ATOM     18  H   UNL d   1       3.568   3.338   0.851  0.00  0.00     0.158 HD
ATOM     19  H   UNL d   1       5.062   4.234   1.088  0.00  0.00     0.158 HD
ENDBRANCH  15  17
ENDBRANCH  13  15
ENDBRANCH  12  13
ENDBRANCH  10  12
ENDBRANCH   7  10
ENDBRANCH   3   4
ENDBRANCH   2   3
ENDBRANCH   1   2
BRANCH   1  20
ATOM     20  C   UNL d   1       5.545  -7.784  -3.488  0.00  0.00     0.178 C 
BRANCH  20  21
ATOM     21  O   UNL d   1       6.367  -8.956  -3.503  0.00  0.00    -0.351 OA
BRANCH  21  22
ATOM     22  C   UNL d   1       6.130  -9.808  -4.551  0.00  0.00     0.068 A 
ATOM     23  C   UNL d   1       6.209 -11.173  -4.283  0.00  0.00     0.037 A 
ATOM     24  C   UNL d   1       6.035 -12.115  -5.310  0.00  0.00     0.016 A 
ATOM     25  C   UNL d   1       5.718 -11.710  -6.615  0.00  0.00    -0.010 A 
ATOM     26  C   UNL d   1       5.685 -10.335  -6.881  0.00  0.00     0.016 A 
ATOM     27  C   UNL d   1       5.905  -9.395  -5.862  0.00  0.00     0.037 A 
BRANCH  25  28
ATOM     28  C   UNL d   1       5.359 -12.674  -7.729  0.00  0.00     0.061 C 
ATOM     29  C   UNL d   1       5.350 -14.167  -7.428  0.00  0.00     0.073 C 
BRANCH  28  30
ATOM     30  N   UNL d   1       5.029 -12.191  -8.899  0.00  0.00    -0.177 NA
BRANCH  30  31
ATOM     31  N   UNL d   1       4.662 -13.069  -9.888  0.00  0.00    -0.253 N 
ATOM     32  H   UNL d   1       4.652 -14.068  -9.716  0.00  0.00     0.191 HD
BRANCH  31  33
ATOM     33  C   UNL d   1       4.289 -12.674 -11.141  0.00  0.00     0.185 C 
ATOM     34  S   UNL d   1       3.863 -13.773 -12.312  0.00  0.00    -0.040 SA
BRANCH  33  35
ATOM     35  N   UNL d   1       4.280 -11.348 -11.393  0.00  0.00    -0.375 N 
ATOM     36  H   UNL d   1       4.546 -10.713 -10.653  0.00  0.00     0.158 HD
ATOM     37  H   UNL d   1       4.020 -11.000 -12.305  0.00  0.00     0.158 HD
ENDBRANCH  33  35
ENDBRANCH  31  33
ENDBRANCH  30  31
ENDBRANCH  28  30
ENDBRANCH  25  28
ENDBRANCH  21  22
ENDBRANCH  20  21
ENDBRANCH   1  20
TORSDOF 16
