@<TRIPOS>MOLECULE
*****
 37 39 0 0 0
SMALL
GASTEIGER

@<TRIPOS>ATOM
      1 O           1.0278   -0.1003   -0.0273 O.2     1  UNL1       -0.2704
      2 C           2.2524   -0.0174    0.0400 C.2     1  UNL1        0.2433
      3 C           2.9173    0.8736    1.0272 C.2     1  UNL1        0.0012
      4 C           2.2885    1.6587    1.9169 C.2     1  UNL1       -0.0477
      5 C           3.0176    2.4684    2.8491 C.ar    1  UNL1        0.0002
      6 C           2.7844    2.4928    4.2053 C.ar    1  UNL1        0.0099
      7 N           3.7465    3.2842    4.7839 N.ar    1  UNL1       -0.3601
      8 C           4.5494    3.8508    3.8180 C.ar    1  UNL1        0.0470
      9 C           5.6180    4.7530    3.9345 C.ar    1  UNL1       -0.0378
     10 C           6.2316    5.1898    2.7550 C.ar    1  UNL1       -0.0598
     11 C           5.8132    4.7199    1.5135 C.ar    1  UNL1       -0.0611
     12 C           4.7671    3.7965    1.4185 C.ar    1  UNL1       -0.0520
     13 C           4.1099    3.3568    2.5870 C.ar    1  UNL1        0.0068
     14 N           3.0574   -0.7695   -0.8057 N.am    1  UNL1       -0.2487
     15 C           4.4420   -0.8594   -0.8667 C.2     1  UNL1        0.2540
     16 O           5.2378   -0.2417   -0.1598 O.2     1  UNL1       -0.2696
     17 C           5.0482   -1.8223   -1.8066 C.ar    1  UNL1        0.0784
     18 C           6.0915   -2.6118   -1.2948 C.ar    1  UNL1       -0.0461
     19 C           6.7815   -3.4967   -2.1181 C.ar    1  UNL1       -0.0608
     20 C           6.4558   -3.5714   -3.4698 C.ar    1  UNL1       -0.0583
     21 C           5.4418   -2.7616   -3.9978 C.ar    1  UNL1       -0.0194
     22 C           4.7294   -1.8934   -3.1626 C.ar    1  UNL1        0.1290
     23 O           3.7434   -1.0972   -3.6708 O.3     1  UNL1       -0.5060
     24 H           3.9938    0.8842    1.0573 H       1  UNL1        0.0670
     25 H           1.2031    1.6629    1.9700 H       1  UNL1        0.0626
     26 H           2.0507    1.9853    4.8161 H       1  UNL1        0.0813
     27 H           3.8471    3.4447    5.7765 H       1  UNL1        0.1654
     28 H           5.9563    5.1189    4.8990 H       1  UNL1        0.0638
     29 H           7.0455    5.9100    2.8057 H       1  UNL1        0.0618
     30 H           6.2973    5.0713    0.6061 H       1  UNL1        0.0618
     31 H           4.4506    3.4343    0.4454 H       1  UNL1        0.0624
     32 H           2.5251   -1.3397   -1.4523 H       1  UNL1        0.1581
     33 H           6.3760   -2.5209   -0.2472 H       1  UNL1        0.0626
     34 H           7.5770   -4.1120   -1.7044 H       1  UNL1        0.0618
     35 H           7.0022   -4.2588   -4.1125 H       1  UNL1        0.0619
     36 H           5.2343   -2.8227   -5.0627 H       1  UNL1        0.0654
     37 H           3.7009   -1.2106   -4.6366 H       1  UNL1        0.2922
@<TRIPOS>BOND
     1     1     2    2
     2     2     3    1
     3     3     4    2
     4     4     5    1
     5     5     6   ar
     6     6     7   ar
     7     7     8   ar
     8     8     9   ar
     9     9    10   ar
    10    10    11   ar
    11    11    12   ar
    12    12    13   ar
    13     5    13   ar
    14     8    13   ar
    15     2    14   am
    16    14    15   am
    17    15    16    2
    18    15    17    1
    19    17    18   ar
    20    18    19   ar
    21    19    20   ar
    22    20    21   ar
    23    21    22   ar
    24    17    22   ar
    25    22    23    1
    26     3    24    1
    27     4    25    1
    28     6    26    1
    29     7    27    1
    30     9    28    1
    31    10    29    1
    32    11    30    1
    33    12    31    1
    34    14    32    1
    35    18    33    1
    36    19    34    1
    37    20    35    1
    38    21    36    1
    39    23    37    1
