REMARK  7 active torsions:
REMARK  status: ('A' for Active; 'I' for Inactive)
REMARK    1  A    between atoms: N_1  and  C_2 
REMARK    2  A    between atoms: C_4  and  C_5 
REMARK    3  A    between atoms: C_5  and  N_6 
REMARK       I    between atoms: N_9  and  C_10 
REMARK    4  A    between atoms: C_10  and  C_12 
REMARK    5  A    between atoms: C_20  and  N_21 
REMARK    6  A    between atoms: N_21  and  C_22 
REMARK    7  A    between atoms: C_26  and  C_27 
ROOT
ATOM      1  C   UNL d   1      -0.982   0.013   0.008  0.00  0.00     0.737 A 
ATOM      2  N   UNL d   1      -0.348   1.177  -0.004  0.00  0.00    -0.045 NA
ATOM      3  C   UNL d   1       0.965   1.064  -0.050  0.00  0.00     0.190 A 
ATOM      4  N   UNL d   1       1.622  -0.096  -0.090  0.00  0.00    -0.044 NA
ATOM      5  C   UNL d   1       0.914  -1.193  -0.017  0.00  0.00     0.744 A 
ATOM      6  N   UNL d   1      -0.402  -1.173   0.023  0.00  0.00     0.130 NA
ENDROOT
BRANCH   3   7
ATOM      7  C   UNL d   1       1.849   2.295   0.004  0.00  0.00     0.316 C 
BRANCH   7   8
ATOM      8  N   UNL d   1       3.374   1.974   0.021  0.00  0.00    -0.061 N 
ATOM      9  C   UNL d   1       3.760   1.167   1.293  0.00  0.00     0.255 C 
ATOM     10  C   UNL d   1       5.205   0.661   1.226  0.00  0.00     0.154 C 
ATOM     11  N   UNL d   1       5.431  -0.065  -0.021  0.00  0.00    -0.343 N 
ATOM     12  C   UNL d   1       5.651  -1.449  -0.141  0.00  0.00     0.277 C 
ATOM     13  C   UNL d   1       5.260   0.776  -1.214  0.00  0.00     0.154 C 
ATOM     14  O   UNL d   1       5.776  -1.947  -1.270  0.00  0.00    -0.265 OA
ATOM     15  C   UNL d   1       3.820   1.301  -1.313  0.00  0.00     0.255 C 
ATOM     16  H   UNL d   1       3.854   2.880   0.076  0.00  0.00     0.280 HD
BRANCH  12  17
ATOM     17  C   UNL d   1       5.636  -2.275   1.058  0.00  0.00     0.142 A 
ATOM     18  C   UNL d   1       4.655  -2.490   2.013  0.00  0.00     0.045 A 
ATOM     19  C   UNL d   1       5.169  -3.419   2.947  0.00  0.00     0.027 A 
ATOM     20  C   UNL d   1       6.430  -3.741   2.507  0.00  0.00     0.143 A 
ATOM     21  O   UNL d   1       6.718  -3.068   1.357  0.00  0.00    -0.317 OA
ENDBRANCH  12  17
ENDBRANCH   7   8
ENDBRANCH   3   7
BRANCH   1  22
ATOM     22  N   UNL d   1      -2.339   0.019   0.026  0.00  0.00    -0.230 N 
ATOM     23  H   UNL d   1      -2.832   0.889  -0.048  0.00  0.00     0.174 HD
ATOM     24  H   UNL d   1      -2.800  -0.877  -0.024  0.00  0.00     0.174 HD
ENDBRANCH   1  22
BRANCH   5  25
ATOM     25  N   UNL d   1       1.628  -2.372   0.126  0.00  0.00    -0.188 N 
ATOM     26  H   UNL d   1       2.611  -2.316  -0.100  0.00  0.00     0.184 HD
BRANCH  25  27
ATOM     27  C   UNL d   1       1.069  -3.643   0.014  0.00  0.00     0.050 A 
ATOM     28  C   UNL d   1       1.367  -4.612   0.968  0.00  0.00     0.030 A 
ATOM     29  C   UNL d   1       0.794  -5.876   0.878  0.00  0.00     0.003 A 
ATOM     30  C   UNL d   1      -0.101  -6.163  -0.152  0.00  0.00     0.016 A 
ATOM     31  C   UNL d   1      -0.381  -5.209  -1.138  0.00  0.00     0.050 A 
ATOM     32  C   UNL d   1       0.221  -3.955  -1.050  0.00  0.00     0.046 A 
BRANCH  31  33
ATOM     33  C   UNL d   1      -1.286  -5.530  -2.294  0.00  0.00     0.417 C 
ATOM     34  F   UNL d   1      -0.824  -6.581  -3.023  0.00  0.00    -0.166 F 
ATOM     35  F   UNL d   1      -2.546  -5.857  -1.901  0.00  0.00    -0.166 F 
ATOM     36  F   UNL d   1      -1.424  -4.498  -3.174  0.00  0.00    -0.166 F 
ENDBRANCH  31  33
ENDBRANCH  25  27
ENDBRANCH   5  25
TORSDOF 7
