@<TRIPOS>MOLECULE
*****
 45 45 0 0 0
SMALL
GASTEIGER

@<TRIPOS>ATOM
      1 C           1.0521    0.0618    0.0974 C.3     1  UNL1        0.0820
      2 O           2.4925    0.0583    0.0947 O.3     1  UNL1       -0.4644
      3 C           3.0583    1.1193    0.7247 C.2     1  UNL1        0.3392
      4 O           2.4520    2.0402    1.2600 O.2     1  UNL1       -0.2450
      5 C           4.5508    1.0715    0.6823 C.ar    1  UNL1        0.0661
      6 C           5.3083    1.5567    1.7777 C.ar    1  UNL1       -0.0352
      7 C           6.7101    1.7486    1.6852 C.ar    1  UNL1        0.0453
      8 C           7.4520    2.4983    2.7837 C.2     1  UNL1        0.2604
      9 O           6.8421    2.8801    3.7791 O.2     1  UNL1       -0.2687
     10 N           8.8041    2.7731    2.5892 N.am    1  UNL1       -0.2311
     11 N           9.5703    3.5229    3.5418 N.am    1  UNL1       -0.2456
     12 C          10.9281    3.7459    3.3101 C.2     1  UNL1        0.1468
     13 S          11.6942    3.1859    1.9151 S.2     1  UNL1       -0.0174
     14 N          11.5825    4.4478    4.3183 N.am    1  UNL1       -0.3254
     15 C          13.0085    4.8009    4.2513 C.3     1  UNL1        0.0109
     16 C          13.5539    5.6093    5.4334 C.3     1  UNL1       -0.0351
     17 C          15.0615    5.9320    5.2730 C.3     1  UNL1       -0.0453
     18 C          15.3423    6.7496    4.0088 C.3     1  UNL1       -0.0626
     19 C          15.5776    6.7033    6.4900 C.3     1  UNL1       -0.0626
     20 C           7.3523    1.3297    0.5146 C.ar    1  UNL1        0.0278
     21 C           6.5981    0.8491   -0.5743 C.ar    1  UNL1        0.2747
     22 N           7.2872    0.5653   -1.8432 N.pl3   1  UNL1        0.0796
     23 O           8.5162    0.7164   -1.8728 O.2     1  UNL1        0.0414
     24 O           6.5959    0.2114   -2.8068 O.co2   1  UNL1       -0.5760
     25 C           5.2026    0.7227   -0.5035 C.ar    1  UNL1        0.0296
     26 H           0.6968   -0.8552   -0.3853 H       1  UNL1        0.0661
     27 H           0.6642    0.9144   -0.4712 H       1  UNL1        0.0661
     28 H           0.6598    0.0770    1.1205 H       1  UNL1        0.0661
     29 H           4.7872    1.8164    2.7008 H       1  UNL1        0.0633
     30 H           9.3345    2.5125    1.7627 H       1  UNL1        0.1731
     31 H           9.0650    3.8550    4.3598 H       1  UNL1        0.1718
     32 H          11.0558    4.7882    5.1119 H       1  UNL1        0.1478
     33 H          13.1386    5.3723    3.3280 H       1  UNL1        0.0462
     34 H          13.5838    3.8718    4.1617 H       1  UNL1        0.0462
     35 H          13.4036    5.0456    6.3627 H       1  UNL1        0.0283
     36 H          12.9901    6.5441    5.5367 H       1  UNL1        0.0283
     37 H          15.6227    4.9900    5.2065 H       1  UNL1        0.0296
     38 H          14.7903    7.6952    4.0296 H       1  UNL1        0.0232
     39 H          15.0573    6.2077    3.1031 H       1  UNL1        0.0232
     40 H          16.4091    6.9777    3.9148 H       1  UNL1        0.0232
     41 H          15.0543    7.6593    6.5985 H       1  UNL1        0.0232
     42 H          16.6484    6.9170    6.3921 H       1  UNL1        0.0232
     43 H          15.4346    6.1287    7.4104 H       1  UNL1        0.0232
     44 H           8.4313    1.3943    0.4159 H       1  UNL1        0.0693
     45 H           4.6250    0.4017   -1.3693 H       1  UNL1        0.0693
@<TRIPOS>UNITY_ATOM_ATTR
22 1
charge 1
24 1
charge -1
@<TRIPOS>BOND
     1     1     2    1
     2     2     3    1
     3     3     4    2
     4     3     5    1
     5     5     6   ar
     6     6     7   ar
     7     7     8    1
     8     8     9    2
     9     8    10   am
    10    10    11    1
    11    11    12    1
    12    12    13    2
    13    12    14    1
    14    14    15    1
    15    15    16    1
    16    16    17    1
    17    17    18    1
    18    17    19    1
    19     7    20   ar
    20    20    21   ar
    21    21    22    1
    22    22    23    2
    23    22    24    1
    24    21    25   ar
    25     5    25   ar
    26     1    26    1
    27     1    27    1
    28     1    28    1
    29     6    29    1
    30    10    30    1
    31    11    31    1
    32    14    32    1
    33    15    33    1
    34    15    34    1
    35    16    35    1
    36    16    36    1
    37    17    37    1
    38    18    38    1
    39    18    39    1
    40    18    40    1
    41    19    41    1
    42    19    42    1
    43    19    43    1
    44    20    44    1
    45    25    45    1
