@<TRIPOS>MOLECULE
*****
 50 50 0 0 0
SMALL
GASTEIGER

@<TRIPOS>ATOM
      1 C           1.2209    0.7697   -0.3410 C.3     1  UNL1        0.0790
      2 O           2.5259    0.1740   -0.1759 O.3     1  UNL1       -0.4914
      3 C           3.0127   -0.3298    1.0258 C.ar    1  UNL1        0.1621
      4 C           4.2524    0.2173    1.4481 C.ar    1  UNL1       -0.0091
      5 C           5.0860   -0.3985    2.4288 C.ar    1  UNL1       -0.0212
      6 C           6.4908    0.0633    2.6708 C.2     1  UNL1       -0.0495
      7 C           7.4135   -0.5192    3.4761 C.2     1  UNL1        0.0022
      8 C           8.8283   -0.0193    3.6030 C.2     1  UNL1        0.2530
      9 O           9.2368    0.9546    2.9535 O.2     1  UNL1       -0.2693
     10 N           9.6275   -0.7198    4.4891 N.am    1  UNL1       -0.2316
     11 N          10.9933   -0.3293    4.7280 N.am    1  UNL1       -0.2456
     12 C          11.7851   -1.0242    5.6408 C.2     1  UNL1        0.1468
     13 S          11.1990   -2.3540    6.4940 S.2     1  UNL1       -0.0174
     14 N          13.0800   -0.5234    5.7855 N.am    1  UNL1       -0.3254
     15 C          14.0830   -1.1348    6.6732 C.3     1  UNL1        0.0109
     16 C          15.4719   -0.4824    6.6787 C.3     1  UNL1       -0.0351
     17 C          16.4519   -1.1991    7.6451 C.3     1  UNL1       -0.0453
     18 C          16.6564   -2.6704    7.2716 C.3     1  UNL1       -0.0626
     19 C          17.8118   -0.4954    7.6552 C.3     1  UNL1       -0.0626
     20 C           4.5838   -1.5233    3.0836 C.ar    1  UNL1       -0.0509
     21 C           3.3681   -2.0852    2.6911 C.ar    1  UNL1       -0.0157
     22 C           2.5980   -1.5195    1.6535 C.ar    1  UNL1        0.1634
     23 O           1.5150   -2.2938    1.3384 O.3     1  UNL1       -0.4738
     24 C           0.6348   -1.6501    0.4279 C.3     1  UNL1        0.1750
     25 C          -0.6192   -2.4967    0.2825 C.1     1  UNL1        0.1037
     26 N          -1.6595   -3.1991    0.1619 N.1     1  UNL1       -0.1930
     27 H           1.2292    1.4516   -1.1879 H       1  UNL1        0.0660
     28 H           0.8265    1.2079    0.5793 H       1  UNL1        0.0660
     29 H           0.4605    0.0882   -0.7522 H       1  UNL1        0.0660
     30 H           4.5898    1.1240    0.9513 H       1  UNL1        0.0661
     31 H           6.7929    0.9226    2.0722 H       1  UNL1        0.0625
     32 H           7.1814   -1.3993    4.0627 H       1  UNL1        0.0670
     33 H           9.3063   -1.5218    5.0311 H       1  UNL1        0.1731
     34 H          11.3147    0.4762    4.1948 H       1  UNL1        0.1718
     35 H          13.3803    0.2561    5.2148 H       1  UNL1        0.1478
     36 H          14.1742   -2.1775    6.3566 H       1  UNL1        0.0462
     37 H          13.6829   -1.1210    7.6937 H       1  UNL1        0.0462
     38 H          15.3816    0.5700    6.9761 H       1  UNL1        0.0283
     39 H          15.8914   -0.4887    5.6655 H       1  UNL1        0.0283
     40 H          16.0426   -1.1562    8.6636 H       1  UNL1        0.0296
     41 H          17.0543   -2.7598    6.2552 H       1  UNL1        0.0232
     42 H          15.7223   -3.2360    7.3239 H       1  UNL1        0.0232
     43 H          17.3571   -3.1585    7.9572 H       1  UNL1        0.0232
     44 H          18.2717   -0.5165    6.6614 H       1  UNL1        0.0232
     45 H          18.5011   -0.9860    8.3528 H       1  UNL1        0.0232
     46 H          17.7128    0.5496    7.9645 H       1  UNL1        0.0232
     47 H           5.1364   -2.0139    3.8800 H       1  UNL1        0.0625
     48 H           3.0568   -3.0151    3.1707 H       1  UNL1        0.0655
     49 H           1.1024   -1.6729   -0.5584 H       1  UNL1        0.0858
     50 H           0.2386   -0.7802    0.9511 H       1  UNL1        0.0858
@<TRIPOS>BOND
     1     1     2    1
     2     2     3    1
     3     3     4   ar
     4     4     5   ar
     5     5     6    1
     6     6     7    2
     7     7     8    1
     8     8     9    2
     9     8    10   am
    10    10    11    1
    11    11    12    1
    12    12    13    2
    13    12    14    1
    14    14    15    1
    15    15    16    1
    16    16    17    1
    17    17    18    1
    18    17    19    1
    19     5    20   ar
    20    20    21   ar
    21    21    22   ar
    22     3    22   ar
    23    22    23    1
    24    23    24    1
    25    24    25    1
    26    25    26    3
    27     1    27    1
    28     1    28    1
    29     1    29    1
    30     4    30    1
    31     6    31    1
    32     7    32    1
    33    10    33    1
    34    11    34    1
    35    14    35    1
    36    15    36    1
    37    15    37    1
    38    16    38    1
    39    16    39    1
    40    17    40    1
    41    18    41    1
    42    18    42    1
    43    18    43    1
    44    19    44    1
    45    19    45    1
    46    19    46    1
    47    20    47    1
    48    21    48    1
    49    24    49    1
    50    24    50    1
