@<TRIPOS>MOLECULE
*****
 59 63 0 0 0
SMALL
GASTEIGER

@<TRIPOS>ATOM
      1 C           0.6318    2.9386    3.6052 C.3     1  UNL1       -0.0447
      2 C           0.1231    2.0004    2.5102 C.3     1  UNL1        0.0838
      3 S           0.8442    0.3371    2.8911 S.3     1  UNL1       -0.0839
      4 C           0.1228   -0.6983    1.5815 C.3     1  UNL1        0.2304
      5 N           0.4666   -2.0761    1.8353 N.pl3   1  UNL1       -0.2188
      6 N          -0.6073   -2.8619    1.9372 N.2     1  UNL1       -0.1450
      7 C          -1.5869   -2.0262    1.8438 C.2     1  UNL1        0.2423
      8 C          -2.9918   -2.3418    1.9860 C.2     1  UNL1        0.0927
      9 C          -3.9302   -2.1682    1.0524 C.ar    1  UNL1        0.0600
     10 C          -3.9393   -1.6434   -0.2670 C.ar    1  UNL1       -0.0477
     11 C          -5.0983   -1.6407   -0.9454 C.ar    1  UNL1       -0.0608
     12 C          -6.3267   -2.1664   -0.3664 C.ar    1  UNL1       -0.0555
     13 C          -6.3987   -2.7027    0.8667 C.ar    1  UNL1        0.0098
     14 C          -5.1515   -2.7411    1.6609 C.ar    1  UNL1        0.2090
     15 N          -4.9409   -3.2083    2.8269 N.2     1  UNL1       -0.2364
     16 C          -3.5143   -3.0358    3.1960 C.3     1  UNL1        0.1746
     17 O          -1.3086   -0.7084    1.6341 O.2     1  UNL1       -0.4425
     18 C           0.5090    2.4991    1.1053 C.2     1  UNL1        0.2301
     19 O           1.2328    1.8235    0.3709 O.2     1  UNL1       -0.2743
     20 N          -0.0232    3.7396    0.7199 N.am    1  UNL1       -0.2846
     21 C           0.3200    4.2989   -0.5422 C.ar    1  UNL1        0.0336
     22 C           0.3374    3.4931   -1.6813 C.ar    1  UNL1       -0.0370
     23 C           0.9243    3.9438   -2.8636 C.ar    1  UNL1       -0.0182
     24 C           1.4054    5.2477   -2.9607 C.ar    1  UNL1        0.1211
     25 O           2.0322    5.5427   -4.1384 O.3     1  UNL1       -0.4874
     26 C           2.6233    6.8400   -4.2687 C.3     1  UNL1        0.1146
     27 C           3.3272    6.9981   -5.6018 C.ar    1  UNL1       -0.0104
     28 C           3.7951    8.2643   -5.9910 C.ar    1  UNL1       -0.0554
     29 C           4.2720    8.4754   -7.2869 C.ar    1  UNL1       -0.0614
     30 C           4.4008    7.4025   -8.1653 C.ar    1  UNL1       -0.0617
     31 C           4.0750    6.1176   -7.7405 C.ar    1  UNL1       -0.0614
     32 C           3.5013    5.9230   -6.4835 C.ar    1  UNL1       -0.0554
     33 C           1.2241    6.1136   -1.8813 C.ar    1  UNL1       -0.0182
     34 C           0.7075    5.6362   -0.6611 C.ar    1  UNL1       -0.0370
     35 H           0.1772    3.9301    3.5216 H       1  UNL1        0.0245
     36 H           1.7188    3.0781    3.5508 H       1  UNL1        0.0245
     37 H           0.3876    2.5605    4.6060 H       1  UNL1        0.0245
     38 H          -0.9649    1.9113    2.5734 H       1  UNL1        0.0506
     39 H           0.4436   -0.3986    0.5802 H       1  UNL1        0.1093
     40 H           1.3963   -2.4324    1.6370 H       1  UNL1        0.1728
     41 H          -3.0225   -1.2629   -0.7051 H       1  UNL1        0.0626
     42 H          -5.1376   -1.2427   -1.9570 H       1  UNL1        0.0618
     43 H          -7.2120   -2.1092   -1.0004 H       1  UNL1        0.0620
     44 H          -7.3345   -3.0900    1.2549 H       1  UNL1        0.0683
     45 H          -5.6662   -3.6391    3.4042 H       1  UNL1        0.4459
     46 H          -3.0772   -4.0239    3.3590 H       1  UNL1        0.1082
     47 H          -3.4649   -2.4148    4.0941 H       1  UNL1        0.1082
     48 H          -0.3272    4.3862    1.4380 H       1  UNL1        0.1548
     49 H          -0.0750    2.4891   -1.6482 H       1  UNL1        0.0637
     50 H           1.0303    3.2560   -3.6987 H       1  UNL1        0.0655
     51 H           3.3491    7.0171   -3.4660 H       1  UNL1        0.0748
     52 H           1.8187    7.5846   -4.2336 H       1  UNL1        0.0748
     53 H           3.7673    9.1025   -5.2981 H       1  UNL1        0.0621
     54 H           4.5385    9.4771   -7.6149 H       1  UNL1        0.0618
     55 H           4.7611    7.5652   -9.1775 H       1  UNL1        0.0618
     56 H           4.2462    5.2667   -8.3940 H       1  UNL1        0.0618
     57 H           3.1750    4.9236   -6.2057 H       1  UNL1        0.0621
     58 H           1.5131    7.1576   -1.9493 H       1  UNL1        0.0655
     59 H           0.7073    6.3098    0.1914 H       1  UNL1        0.0637
@<TRIPOS>UNITY_ATOM_ATTR
15 1
charge 1
@<TRIPOS>BOND
     1     4     5    1
     2     5     6    1
     3     6     7    2
     4     7     8    1
     5     8     9    2
     6     9    10   ar
     7    10    11   ar
     8    11    12   ar
     9    12    13   ar
    10    13    14   ar
    11     9    14   ar
    12    14    15    2
    13    15    16    1
    14     8    16    1
    15     7    17    1
    16     4    17    1
    17     2    18    1
    18    18    19    2
    19    18    20   am
    20    20    21    1
    21    21    22   ar
    22    22    23   ar
    23    23    24   ar
    24    24    25    1
    25    25    26    1
    26    26    27    1
    27    27    28   ar
    28    28    29   ar
    29    29    30   ar
    30    30    31   ar
    31    31    32   ar
    32    27    32   ar
    33    24    33   ar
    34    33    34   ar
    35    21    34   ar
    36     2     3    1
    37     2     1    1
    38     4     3    1
    39     1    35    1
    40     1    36    1
    41     1    37    1
    42     2    38    1
    43     4    39    1
    44     5    40    1
    45    10    41    1
    46    11    42    1
    47    12    43    1
    48    13    44    1
    49    15    45    1
    50    16    46    1
    51    16    47    1
    52    20    48    1
    53    22    49    1
    54    23    50    1
    55    26    51    1
    56    26    52    1
    57    28    53    1
    58    29    54    1
    59    30    55    1
    60    31    56    1
    61    32    57    1
    62    33    58    1
    63    34    59    1
