@<TRIPOS>MOLECULE
*****
 66 69 0 0 0
SMALL
GASTEIGER

@<TRIPOS>ATOM
      1 C           0.9888    0.0336    0.0876 C.3     1  UNL1       -0.0307
      2 C           2.5080    0.0790    0.0363 C.3     1  UNL1        0.0868
      3 O           2.9203   -0.0993   -1.3318 O.3     1  UNL1       -0.4922
      4 C           4.2392   -0.3610   -1.5678 C.ar    1  UNL1        0.1207
      5 C           4.8482    0.0265   -2.7590 C.ar    1  UNL1       -0.0167
      6 C           6.2168   -0.2977   -3.0432 C.ar    1  UNL1       -0.0197
      7 C           6.9512   -1.1189   -2.1922 C.ar    1  UNL1        0.1000
      8 N           8.3822   -1.2609   -2.1891 N.pl3   1  UNL1       -0.2450
      9 C           9.2214   -1.7334   -1.1530 C.2     1  UNL1        0.3842
     10 N           8.9285   -2.1396    0.0556 N.am    1  UNL1        0.0006
     11 C           7.7977   -1.6078    0.6372 C.2     1  UNL1        0.3406
     12 O           7.5833   -0.4170    0.6568 O.2     1  UNL1       -0.2484
     13 C           7.0318   -2.4711    1.6246 C.ar    1  UNL1        0.0579
     14 C           5.7567   -3.0398    1.6516 C.ar    1  UNL1       -0.0480
     15 C           5.0807   -3.1564    2.8815 C.ar    1  UNL1       -0.0592
     16 C           5.6893   -2.7140    4.0698 C.ar    1  UNL1       -0.0404
     17 C           6.9787   -2.1906    4.0140 C.ar    1  UNL1        0.0341
     18 N           7.6507   -1.6080    5.0927 N.am    1  UNL1       -0.2857
     19 C           8.8244   -0.8875    5.1277 C.2     1  UNL1        0.2141
     20 C           9.6778   -0.4794    3.9201 C.3     1  UNL1        0.0125
     21 O           9.2478   -0.5624    6.2446 O.2     1  UNL1       -0.2758
     22 C           7.6346   -2.2487    2.8199 C.ar    1  UNL1       -0.0268
     23 N          10.5954   -1.7899   -1.4573 N.pl3   1  UNL1       -0.2767
     24 C          11.5684   -2.1476   -0.3917 C.3     1  UNL1        0.0684
     25 C          13.0357   -2.1103   -0.8150 C.3     1  UNL1        0.0059
     26 C          14.0660   -2.6007    0.1816 C.2     1  UNL1        0.0106
     27 C          15.3576   -2.6639   -0.1534 C.ar    1  UNL1        0.0510
     28 C          16.0173   -2.3290   -1.3641 C.ar    1  UNL1       -0.0482
     29 C          17.3090   -2.6472   -1.4930 C.ar    1  UNL1       -0.0608
     30 C          18.0653   -3.1950   -0.3781 C.ar    1  UNL1       -0.0555
     31 C          17.5246   -3.4876    0.8244 C.ar    1  UNL1        0.0098
     32 C          16.0749   -3.2362    0.9932 C.ar    1  UNL1        0.2086
     33 N          15.2878   -3.4393    1.9810 N.2     1  UNL1       -0.2369
     34 C          13.8770   -3.1048    1.5915 C.3     1  UNL1        0.1661
     35 C           6.1413   -1.7705   -1.2848 C.ar    1  UNL1       -0.0197
     36 C           4.9598   -1.2044   -0.7824 C.ar    1  UNL1       -0.0167
     37 H           0.6176    0.3369    1.0722 H       1  UNL1        0.0262
     38 H           0.6260   -0.9811   -0.1151 H       1  UNL1        0.0262
     39 H           0.5618    0.6879   -0.6764 H       1  UNL1        0.0262
     40 H           2.8704   -0.6805    0.7406 H       1  UNL1        0.0694
     41 H           2.8628    1.0605    0.3632 H       1  UNL1        0.0694
     42 H           4.2643    0.6072   -3.4649 H       1  UNL1        0.0655
     43 H           6.6502    0.0633   -3.9686 H       1  UNL1        0.0653
     44 H           8.8232   -0.7357   -2.9312 H       1  UNL1        0.2646
     45 H           5.2373   -3.3905    0.7623 H       1  UNL1        0.0626
     46 H           4.0574   -3.5350    2.9017 H       1  UNL1        0.0618
     47 H           5.1478   -2.8114    5.0078 H       1  UNL1        0.0636
     48 H           7.2049   -1.6744    6.0010 H       1  UNL1        0.1548
     49 H           9.2498   -0.4752    2.9225 H       1  UNL1        0.0323
     50 H          10.5836   -1.0996    3.9042 H       1  UNL1        0.0323
     51 H           9.9375    0.5751    4.0096 H       1  UNL1        0.0323
     52 H           8.6809   -2.0830    2.7276 H       1  UNL1        0.0644
     53 H          10.9604   -1.2579   -2.2404 H       1  UNL1        0.2577
     54 H          11.3491   -3.1722   -0.0779 H       1  UNL1        0.0658
     55 H          11.4651   -1.4888    0.4811 H       1  UNL1        0.0658
     56 H          13.3118   -1.0808   -1.0834 H       1  UNL1        0.0343
     57 H          13.1493   -2.7106   -1.7282 H       1  UNL1        0.0343
     58 H          15.4581   -1.8631   -2.1671 H       1  UNL1        0.0626
     59 H          17.8053   -2.4879   -2.4467 H       1  UNL1        0.0618
     60 H          19.1290   -3.3319   -0.5679 H       1  UNL1        0.0620
     61 H          18.1377   -3.8956    1.6200 H       1  UNL1        0.0683
     62 H          15.6201   -3.7770    2.8851 H       1  UNL1        0.4459
     63 H          13.4945   -2.3423    2.2748 H       1  UNL1        0.1077
     64 H          13.2832   -4.0231    1.6478 H       1  UNL1        0.1077
     65 H           6.5089   -2.6805   -0.8382 H       1  UNL1        0.0653
     66 H           4.5921   -1.4739    0.1948 H       1  UNL1        0.0655
@<TRIPOS>UNITY_ATOM_ATTR
33 1
charge 1
@<TRIPOS>BOND
     1     1     2    1
     2     2     3    1
     3     3     4    1
     4     4     5   ar
     5     5     6   ar
     6     6     7   ar
     7     7     8    1
     8     8     9    1
     9     9    10    2
    10    10    11    1
    11    11    12    2
    12    11    13    1
    13    13    14   ar
    14    14    15   ar
    15    15    16   ar
    16    16    17   ar
    17    17    18    1
    18    18    19   am
    19    19    20    1
    20    19    21    2
    21    17    22   ar
    22    13    22   ar
    23     9    23    1
    24    23    24    1
    25    24    25    1
    26    25    26    1
    27    26    27    2
    28    27    28   ar
    29    28    29   ar
    30    29    30   ar
    31    30    31   ar
    32    31    32   ar
    33    27    32   ar
    34    32    33    2
    35    33    34    1
    36    26    34    1
    37     7    35   ar
    38    35    36   ar
    39     4    36   ar
    40     1    37    1
    41     1    38    1
    42     1    39    1
    43     2    40    1
    44     2    41    1
    45     5    42    1
    46     6    43    1
    47     8    44    1
    48    14    45    1
    49    15    46    1
    50    16    47    1
    51    18    48    1
    52    20    49    1
    53    20    50    1
    54    20    51    1
    55    22    52    1
    56    23    53    1
    57    24    54    1
    58    24    55    1
    59    25    56    1
    60    25    57    1
    61    28    58    1
    62    29    59    1
    63    30    60    1
    64    31    61    1
    65    33    62    1
    66    34    63    1
    67    34    64    1
    68    35    65    1
    69    36    66    1
