@<TRIPOS>MOLECULE
*****
 68 70 0 0 0
SMALL
GASTEIGER

@<TRIPOS>ATOM
      1 O          -0.7611   -5.5901    1.3361 O.2     1  UNL1       -0.2265
      2 C          -1.4537   -5.8704    2.3071 C.2     1  UNL1        0.4006
      3 N          -1.1201   -5.5108    3.5851 N.am    1  UNL1       -0.2811
      4 C           0.0744   -4.7670    3.8876 C.3     1  UNL1        0.0147
      5 C           0.1205   -4.5103    5.4062 C.3     1  UNL1       -0.0372
      6 C           1.3784   -3.7682    5.7056 C.3     1  UNL1       -0.0494
      7 C           1.7900   -3.3499    7.0982 C.3     1  UNL1       -0.0239
      8 C           2.8599   -2.2098    7.1496 C.3     1  UNL1        0.1236
      9 N           3.5003   -1.7727    5.8398 N.am    1  UNL1       -0.2679
     10 C           3.8020   -2.5796    4.7671 C.2     1  UNL1        0.4012
     11 O           3.7084   -3.8064    4.7737 O.2     1  UNL1       -0.2265
     12 O           4.1117   -1.9444    3.6119 O.3     1  UNL1       -0.4456
     13 C           3.9456   -2.8690    2.4928 C.3     1  UNL1        0.1191
     14 C           4.6975   -2.3635    1.3094 C.ar    1  UNL1       -0.0103
     15 C           5.6158   -3.1707    0.6240 C.ar    1  UNL1       -0.0554
     16 C           6.4671   -2.5835   -0.3030 C.ar    1  UNL1       -0.0614
     17 C           6.3152   -1.2328   -0.6233 C.ar    1  UNL1       -0.0617
     18 C           5.3369   -0.4580   -0.0016 C.ar    1  UNL1       -0.0614
     19 C           4.5217   -1.0274    0.9573 C.ar    1  UNL1       -0.0554
     20 C           3.9283   -2.5070    8.2382 C.2     1  UNL1        0.3330
     21 O           5.1285   -2.3403    8.0461 O.2     1  UNL1       -0.2483
     22 O           3.3655   -2.9107    9.4714 O.3     1  UNL1       -0.4245
     23 C           4.2194   -3.1215   10.5959 C.ar    1  UNL1        0.1321
     24 C           3.9437   -4.1774   11.4766 C.ar    1  UNL1       -0.0128
     25 C           4.7394   -4.3631   12.6256 C.ar    1  UNL1        0.0191
     26 C           5.8557   -3.5409   12.8418 C.ar    1  UNL1        0.2734
     27 N           6.7901   -3.8268   13.9441 N.pl3   1  UNL1        0.0796
     28 O           6.5345   -4.7882   14.6832 O.2     1  UNL1        0.0414
     29 O           7.7896   -3.1018   14.0567 O.co2   1  UNL1       -0.5760
     30 C           6.1169   -2.4756   11.9749 C.ar    1  UNL1        0.0191
     31 C           5.2820   -2.2557   10.8725 C.ar    1  UNL1       -0.0128
     32 O          -2.6159   -6.5640    2.1633 O.3     1  UNL1       -0.4456
     33 C          -3.4502   -6.9008    3.2795 C.3     1  UNL1        0.1191
     34 C          -4.6464   -7.6878    2.8091 C.ar    1  UNL1       -0.0103
     35 C          -5.9352   -7.1362    2.8244 C.ar    1  UNL1       -0.0554
     36 C          -7.0437   -7.9245    2.5041 C.ar    1  UNL1       -0.0614
     37 C          -6.8672   -9.2377    2.0725 C.ar    1  UNL1       -0.0617
     38 C          -5.5875   -9.7845    2.0190 C.ar    1  UNL1       -0.0614
     39 C          -4.4841   -9.0169    2.3935 C.ar    1  UNL1       -0.0554
     40 H          -1.6908   -5.7732    4.3668 H       1  UNL1        0.1520
     41 H           0.0650   -3.8288    3.3146 H       1  UNL1        0.0463
     42 H           0.9476   -5.3342    3.5290 H       1  UNL1        0.0463
     43 H           0.1450   -5.4671    5.9384 H       1  UNL1        0.0280
     44 H          -0.7405   -3.9286    5.7332 H       1  UNL1        0.0280
     45 H           1.3898   -2.8976    5.0436 H       1  UNL1        0.0266
     46 H           2.0845   -4.5589    5.4646 H       1  UNL1        0.0266
     47 H           2.2088   -4.2348    7.5961 H       1  UNL1        0.0288
     48 H           0.9045   -3.0621    7.6738 H       1  UNL1        0.0288
     49 H           2.3337   -1.3009    7.4856 H       1  UNL1        0.0615
     50 H           4.0767   -0.9363    5.8799 H       1  UNL1        0.1528
     51 H           2.8775   -2.9379    2.2490 H       1  UNL1        0.0749
     52 H           4.3226   -3.8778    2.7113 H       1  UNL1        0.0749
     53 H           5.7037   -4.2356    0.8392 H       1  UNL1        0.0621
     54 H           7.2684   -3.1658   -0.7497 H       1  UNL1        0.0618
     55 H           6.9648   -0.7780   -1.3627 H       1  UNL1        0.0618
     56 H           5.2301    0.5977   -0.2232 H       1  UNL1        0.0618
     57 H           3.7796   -0.4328    1.4842 H       1  UNL1        0.0621
     58 H           3.1360   -4.8782   11.2786 H       1  UNL1        0.0656
     59 H           4.4893   -5.1514   13.3354 H       1  UNL1        0.0686
     60 H           6.9647   -1.8118   12.1323 H       1  UNL1        0.0686
     61 H           5.5032   -1.4184   10.2183 H       1  UNL1        0.0656
     62 H          -3.7754   -5.9878    3.7924 H       1  UNL1        0.0749
     63 H          -2.8891   -7.5224    3.9894 H       1  UNL1        0.0749
     64 H          -6.0901   -6.0931    3.0907 H       1  UNL1        0.0621
     65 H          -8.0478   -7.5179    2.5959 H       1  UNL1        0.0618
     66 H          -7.7259   -9.8315    1.7701 H       1  UNL1        0.0618
     67 H          -5.4479  -10.8131    1.6975 H       1  UNL1        0.0618
     68 H          -3.4908   -9.4589    2.3603 H       1  UNL1        0.0621
@<TRIPOS>UNITY_ATOM_ATTR
27 1
charge 1
29 1
charge -1
@<TRIPOS>BOND
     1     1     2    2
     2     2     3   am
     3     3     4    1
     4     4     5    1
     5     5     6    1
     6     6     7    1
     7     9    10   am
     8    10    11    2
     9    10    12    1
    10    12    13    1
    11    13    14    1
    12    14    15   ar
    13    15    16   ar
    14    16    17   ar
    15    17    18   ar
    16    18    19   ar
    17    14    19   ar
    18     8    20    1
    19    20    21    2
    20    20    22    1
    21    22    23    1
    22    23    24   ar
    23    24    25   ar
    24    25    26   ar
    25    26    27    1
    26    27    28    2
    27    27    29    1
    28    26    30   ar
    29    30    31   ar
    30    23    31   ar
    31     2    32    1
    32    32    33    1
    33    33    34    1
    34    34    35   ar
    35    35    36   ar
    36    36    37   ar
    37    37    38   ar
    38    38    39   ar
    39    34    39   ar
    40     8     9    1
    41     8     7    1
    42     3    40    1
    43     4    41    1
    44     4    42    1
    45     5    43    1
    46     5    44    1
    47     6    45    1
    48     6    46    1
    49     7    47    1
    50     7    48    1
    51     8    49    1
    52     9    50    1
    53    13    51    1
    54    13    52    1
    55    15    53    1
    56    16    54    1
    57    17    55    1
    58    18    56    1
    59    19    57    1
    60    24    58    1
    61    25    59    1
    62    30    60    1
    63    31    61    1
    64    33    62    1
    65    33    63    1
    66    35    64    1
    67    36    65    1
    68    37    66    1
    69    38    67    1
    70    39    68    1
