@<TRIPOS>MOLECULE
*****
 71 75 0 0 0
SMALL
GASTEIGER

@<TRIPOS>ATOM
      1 C          -3.4451   -7.4091    0.3915 C.3     1  UNL1       -0.0430
      2 N          -3.9749   -6.1033    0.7016 N.4     1  UNL1        0.2349
      3 C          -2.7997   -5.1395    0.6871 C.3     1  UNL1       -0.0190
      4 C          -3.3420   -3.7254    0.6505 C.3     1  UNL1        0.0398
      5 N          -4.3809   -3.4469   -0.3847 N.3     1  UNL1       -0.2852
      6 C          -3.8805   -3.4695   -1.8143 C.3     1  UNL1        0.0378
      7 C          -5.0526   -3.0643   -2.8368 C.3     1  UNL1        0.0301
      8 N          -4.6935   -3.1015   -4.2583 N.am    1  UNL1       -0.3135
      9 C          -5.5150   -2.9007   -5.3210 C.2     1  UNL1        0.2156
     10 O          -6.6972   -2.6145   -5.1573 O.2     1  UNL1       -0.2757
     11 C          -4.9008   -3.0715   -6.7331 C.3     1  UNL1        0.0550
     12 C          -3.4434   -3.5455   -6.9040 C.3     1  UNL1        0.1403
     13 N          -3.1002   -3.8868   -8.3261 N.2     1  UNL1       -0.2232
     14 C          -3.1960   -5.1920   -8.3099 C.2     1  UNL1        0.2855
     15 O          -2.7426   -5.9353   -9.3208 O.2     1  UNL1       -0.4813
     16 N          -3.6595   -5.8129   -7.2140 N.am    1  UNL1       -0.2200
     17 C          -3.6897   -7.2347   -6.8585 C.3     1  UNL1        0.0491
     18 C          -4.0078   -7.5505   -5.3863 C.ar    1  UNL1       -0.0259
     19 C          -5.1101   -6.9517   -4.7308 C.ar    1  UNL1       -0.0534
     20 C          -5.4374   -7.2937   -3.4106 C.ar    1  UNL1       -0.0158
     21 C          -4.6484   -8.2348   -2.7646 C.ar    1  UNL1        0.1662
     22 C          -3.5644   -8.8022   -3.3794 C.ar    1  UNL1        0.1665
     23 C          -3.2202   -8.4803   -4.6734 C.ar    1  UNL1       -0.0114
     24 O          -2.9224   -9.7241   -2.6106 O.3     1  UNL1       -0.4526
     25 C          -3.6324   -9.6017   -1.3864 C.3     1  UNL1        0.2332
     26 O          -4.7847   -8.7092   -1.4942 O.3     1  UNL1       -0.4526
     27 C          -3.1332   -4.9220   -6.3754 C.2     1  UNL1        0.2485
     28 O          -2.1919   -5.2235   -5.7071 O.2     1  UNL1       -0.2728
     29 C          -2.6887   -2.4865   -1.9704 C.3     1  UNL1       -0.0330
     30 C          -1.9301   -2.6088   -3.2812 C.3     1  UNL1       -0.0513
     31 C          -1.4951   -4.0486   -3.5028 C.3     1  UNL1       -0.0529
     32 C          -2.6205   -5.0612   -3.3876 C.3     1  UNL1       -0.0513
     33 C          -3.4284   -4.8728   -2.1899 C.3     1  UNL1       -0.0330
     34 C          -5.5536   -4.3235   -0.1195 C.3     1  UNL1        0.0398
     35 C          -5.2405   -5.8168   -0.1198 C.3     1  UNL1       -0.0190
     36 H          -2.5917   -7.6525    1.0206 H       1  UNL1        0.0778
     37 H          -3.0969   -7.3360   -0.6452 H       1  UNL1        0.0778
     38 H          -4.2517   -8.1155    0.5831 H       1  UNL1        0.0778
     39 H          -4.3187   -6.1171    1.6603 H       1  UNL1        0.2031
     40 H          -2.0536   -5.3485   -0.0908 H       1  UNL1        0.0827
     41 H          -2.2005   -5.3827    1.5646 H       1  UNL1        0.0827
     42 H          -2.5077   -3.0267    0.5996 H       1  UNL1        0.0479
     43 H          -3.7825   -3.5680    1.6397 H       1  UNL1        0.0479
     44 H          -5.4319   -2.0667   -2.6008 H       1  UNL1        0.0480
     45 H          -5.8876   -3.7693   -2.7472 H       1  UNL1        0.0480
     46 H          -3.7697   -3.3898   -4.4912 H       1  UNL1        0.1487
     47 H          -4.9895   -2.0862   -7.2096 H       1  UNL1        0.0384
     48 H          -5.5700   -3.7558   -7.2656 H       1  UNL1        0.0384
     49 H          -2.7415   -2.8297   -6.4587 H       1  UNL1        0.0647
     50 H          -2.3513   -5.3361   -9.9832 H       1  UNL1        0.2951
     51 H          -2.7816   -7.7638   -7.1691 H       1  UNL1        0.0519
     52 H          -4.5298   -7.6419   -7.4256 H       1  UNL1        0.0519
     53 H          -5.6943   -6.1808   -5.2335 H       1  UNL1        0.0622
     54 H          -6.2493   -6.7616   -2.9191 H       1  UNL1        0.0655
     55 H          -2.3559   -8.9700   -5.1066 H       1  UNL1        0.0658
     56 H          -2.8740   -9.2447   -0.6761 H       1  UNL1        0.1166
     57 H          -3.9594  -10.5353   -0.9253 H       1  UNL1        0.1166
     58 H          -1.9224   -2.6868   -1.2175 H       1  UNL1        0.0284
     59 H          -3.0311   -1.4580   -1.8237 H       1  UNL1        0.0284
     60 H          -1.0426   -1.9739   -3.2761 H       1  UNL1        0.0266
     61 H          -2.5129   -2.2060   -4.1099 H       1  UNL1        0.0266
     62 H          -0.7389   -4.3347   -2.7666 H       1  UNL1        0.0265
     63 H          -0.9765   -4.0937   -4.4598 H       1  UNL1        0.0265
     64 H          -2.2394   -6.0885   -3.4272 H       1  UNL1        0.0266
     65 H          -3.4211   -5.0487   -4.1111 H       1  UNL1        0.0266
     66 H          -2.8211   -5.4244   -1.5244 H       1  UNL1        0.0284
     67 H          -4.3067   -5.4484   -2.3874 H       1  UNL1        0.0284
     68 H          -6.3875   -4.1025   -0.7943 H       1  UNL1        0.0479
     69 H          -5.9476   -4.1017    0.8787 H       1  UNL1        0.0479
     70 H          -5.1218   -6.2077   -1.1120 H       1  UNL1        0.0827
     71 H          -6.0619   -6.4381    0.2534 H       1  UNL1        0.0827
@<TRIPOS>UNITY_ATOM_ATTR
2 1
charge 1
@<TRIPOS>BOND
     1     1     2    1
     2     2     3    1
     3     3     4    1
     4     4     5    1
     5     5     6    1
     6     6     7    1
     7     7     8    1
     8     8     9   am
     9     9    10    2
    10     9    11    1
    11    12    13    1
    12    13    14    2
    13    14    15    1
    14    14    16    1
    15    16    17    1
    16    17    18    1
    17    18    19   ar
    18    19    20   ar
    19    20    21   ar
    20    21    22   ar
    21    22    23   ar
    22    18    23   ar
    23    22    24    1
    24    24    25    1
    25    25    26    1
    26    21    26    1
    27    16    27   am
    28    12    27    1
    29    27    28    2
    30     6    29    1
    31    29    30    1
    32    30    31    1
    33    31    32    1
    34    32    33    1
    35     6    33    1
    36     5    34    1
    37    34    35    1
    38     2    35    1
    39    12    11    1
    40     1    36    1
    41     1    37    1
    42     1    38    1
    43     2    39    1
    44     3    40    1
    45     3    41    1
    46     4    42    1
    47     4    43    1
    48     7    44    1
    49     7    45    1
    50     8    46    1
    51    11    47    1
    52    11    48    1
    53    12    49    1
    54    15    50    1
    55    17    51    1
    56    17    52    1
    57    19    53    1
    58    20    54    1
    59    23    55    1
    60    25    56    1
    61    25    57    1
    62    29    58    1
    63    29    59    1
    64    30    60    1
    65    30    61    1
    66    31    62    1
    67    31    63    1
    68    32    64    1
    69    32    65    1
    70    33    66    1
    71    33    67    1
    72    34    68    1
    73    34    69    1
    74    35    70    1
    75    35    71    1
