@<TRIPOS>MOLECULE
*****
 49 51 0 0 0
SMALL
GASTEIGER

@<TRIPOS>ATOM
      1 C           0.9722   -0.1587    0.0297 C.3     1  UNL1       -0.0468
      2 C           2.4735   -0.3401    0.0743 C.3     1  UNL1        0.0281
      3 N           2.9576   -0.8223   -1.2050 N.ar    1  UNL1       -0.2672
      4 C           3.5001    0.0708   -2.2401 C.ar    1  UNL1        0.1776
      5 S           3.7245    1.8282   -2.0219 S.3     1  UNL1       -0.0781
      6 C           3.3045    2.5101   -0.3640 C.3     1  UNL1        0.0780
      7 C           3.4979    4.0165   -0.1896 C.2     1  UNL1        0.2307
      8 O           3.9392    4.6840   -1.1222 O.2     1  UNL1       -0.2744
      9 N           3.1576    4.5433    1.0702 N.am    1  UNL1       -0.2395
     10 C           3.2958    5.8910    1.3448 C.2     1  UNL1        0.3062
     11 O           3.7349    6.7151    0.5422 O.2     1  UNL1       -0.2524
     12 N           2.8981    6.3031    2.5956 N.am    1  UNL1       -0.2950
     13 C           3.0333    7.7277    2.9548 C.3     1  UNL1        0.0383
     14 C           2.6612    8.1100    4.3753 C.ar    1  UNL1       -0.0303
     15 C           2.3651    7.1572    5.3540 C.ar    1  UNL1       -0.0571
     16 C           2.3237    7.5026    6.7022 C.ar    1  UNL1       -0.0615
     17 C           2.2996    8.8384    7.0760 C.ar    1  UNL1       -0.0617
     18 C           2.4412    9.8246    6.1053 C.ar    1  UNL1       -0.0615
     19 C           2.7057    9.4616    4.7776 C.ar    1  UNL1       -0.0571
     20 N           3.8470   -0.4038   -3.4059 N.ar    1  UNL1       -0.1856
     21 C           3.6720   -1.7410   -3.5903 C.ar    1  UNL1        0.2688
     22 O           3.9418   -2.4357   -4.7423 O.2     1  UNL1       -0.3339
     23 N           3.6403   -3.7856   -4.5739 N.ar    1  UNL1       -0.0801
     24 C           3.1857   -3.9253   -3.3215 C.ar    1  UNL1        0.0979
     25 C           2.7748   -5.2851   -2.8479 C.3     1  UNL1       -0.0181
     26 C           3.1990   -2.6577   -2.6934 C.ar    1  UNL1        0.1530
     27 C           2.8386   -2.1452   -1.4122 C.ar    1  UNL1        0.2934
     28 N           2.3821   -2.9962   -0.5131 N.2     1  UNL1       -0.2386
     29 H           0.6284    0.3132    0.9531 H       1  UNL1        0.0247
     30 H           0.4670   -1.1227   -0.0742 H       1  UNL1        0.0247
     31 H           0.6633    0.4677   -0.8146 H       1  UNL1        0.0247
     32 H           2.8035   -0.9963    0.8824 H       1  UNL1        0.0492
     33 H           2.9636    0.5513    0.3703 H       1  UNL1        0.0492
     34 H           3.9738    2.0666    0.3814 H       1  UNL1        0.0475
     35 H           2.2432    2.3255   -0.1720 H       1  UNL1        0.0475
     36 H           2.7995    3.9568    1.8100 H       1  UNL1        0.1591
     37 H           2.6177    5.6491    3.3019 H       1  UNL1        0.1506
     38 H           2.4359    8.3117    2.2437 H       1  UNL1        0.0512
     39 H           4.0873    8.0022    2.8033 H       1  UNL1        0.0512
     40 H           2.1751    6.1227    5.1080 H       1  UNL1        0.0621
     41 H           2.3089    6.7193    7.4540 H       1  UNL1        0.0618
     42 H           2.1635    9.1038    8.1207 H       1  UNL1        0.0618
     43 H           2.3844   10.8722    6.3939 H       1  UNL1        0.0618
     44 H           2.9525   10.2512    4.0677 H       1  UNL1        0.0621
     45 H           2.9030   -6.0595   -3.6162 H       1  UNL1        0.0294
     46 H           1.7184   -5.3026   -2.5565 H       1  UNL1        0.0294
     47 H           3.3690   -5.5994   -1.9823 H       1  UNL1        0.0294
     48 H           2.2857   -3.9818   -0.7054 H       1  UNL1        0.4450
     49 H           2.1103   -2.7172    0.4167 H       1  UNL1        0.4450
@<TRIPOS>UNITY_ATOM_ATTR
28 1
charge 1
@<TRIPOS>BOND
     1     1     2    1
     2     2     3    1
     3     3     4   ar
     4     4     5    1
     5     5     6    1
     6     6     7    1
     7     7     8    2
     8     7     9   am
     9     9    10   am
    10    10    11    2
    11    10    12   am
    12    12    13    1
    13    13    14    1
    14    14    15   ar
    15    15    16   ar
    16    16    17   ar
    17    17    18   ar
    18    18    19   ar
    19    14    19   ar
    20     4    20   ar
    21    20    21   ar
    22    21    22   ar
    23    22    23   ar
    24    23    24   ar
    25    24    25    1
    26    24    26   ar
    27    21    26   ar
    28    26    27   ar
    29     3    27   ar
    30    27    28    2
    31     1    29    1
    32     1    30    1
    33     1    31    1
    34     2    32    1
    35     2    33    1
    36     6    34    1
    37     6    35    1
    38     9    36    1
    39    12    37    1
    40    13    38    1
    41    13    39    1
    42    15    40    1
    43    16    41    1
    44    17    42    1
    45    18    43    1
    46    19    44    1
    47    25    45    1
    48    25    46    1
    49    25    47    1
    50    28    48    1
    51    28    49    1
