REMARK  5 active torsions:
REMARK  status: ('A' for Active; 'I' for Inactive)
REMARK       I    between atoms: C_2  and  N_3 
REMARK    1  A    between atoms: C_2  and  C_11 
REMARK    2  A    between atoms: N_3  and  C_4 
REMARK    3  A    between atoms: C_7  and  O_8 
REMARK    4  A    between atoms: C_14  and  N_15 
REMARK       I    between atoms: N_15  and  C_16 
REMARK    5  A    between atoms: C_16  and  C_18 
ROOT
ATOM      1  C   UNL d   1       3.116  -1.270  -0.001  0.00  0.00     0.032 A 
ATOM      2  C   UNL d   1       4.264  -1.483   0.769  0.00  0.00     0.019 A 
ATOM      3  C   UNL d   1       4.980  -2.702   0.659  0.00  0.00     0.030 A 
ATOM      4  C   UNL d   1       4.520  -3.743  -0.170  0.00  0.00     0.035 A 
ATOM      5  C   UNL d   1       3.369  -3.499  -0.923  0.00  0.00     0.030 A 
ATOM      6  C   UNL d   1       2.670  -2.293  -0.834  0.00  0.00     0.019 A 
ENDROOT
BRANCH   1   7
ATOM      7  C   UNL d   1       2.306  -0.020   0.035  0.00  0.00     0.256 C 
ATOM      8  O   UNL d   1       1.083  -0.133   0.021  0.00  0.00    -0.267 OA
ATOM      9  N   UNL d   1       2.999   1.185  -0.044  0.00  0.00    -0.323 N 
ATOM     10  H   UNL d   1       3.963   1.154  -0.353  0.00  0.00     0.169 HD
BRANCH   9  11
ATOM     11  C   UNL d   1       2.326   2.432  -0.115  0.00  0.00     0.035 A 
ATOM     12  C   UNL d   1       1.211   2.690   0.691  0.00  0.00     0.032 A 
ATOM     13  C   UNL d   1       0.552   3.923   0.640  0.00  0.00     0.039 A 
ATOM     14  C   UNL d   1       0.998   4.897  -0.244  0.00  0.00     0.065 A 
ATOM     15  C   UNL d   1       2.094   4.655  -1.065  0.00  0.00     0.039 A 
ATOM     16  C   UNL d   1       2.778   3.432  -0.985  0.00  0.00     0.032 A 
BRANCH  14  17
ATOM     17  O   UNL d   1       0.389   6.114  -0.336  0.00  0.00    -0.361 OA
ATOM     18  H   UNL d   1      -0.339   6.152   0.306  0.00  0.00     0.217 HD
ENDBRANCH  14  17
ENDBRANCH   9  11
ENDBRANCH   1   7
BRANCH   4  19
ATOM     19  N   UNL d   1       5.187  -5.005  -0.192  0.00  0.00    -0.321 N 
ATOM     20  C   UNL d   1       4.805  -6.122  -0.948  0.00  0.00     0.279 C 
ATOM     21  O   UNL d   1       3.866  -6.129  -1.751  0.00  0.00    -0.265 OA
ATOM     22  H   UNL d   1       6.004  -5.108   0.397  0.00  0.00     0.169 HD
BRANCH  20  23
ATOM     23  C   UNL d   1       5.577  -7.332  -0.747  0.00  0.00     0.142 A 
ATOM     24  C   UNL d   1       6.032  -7.983   0.386  0.00  0.00     0.045 A 
ATOM     25  C   UNL d   1       6.630  -9.195  -0.047  0.00  0.00     0.027 A 
ATOM     26  C   UNL d   1       6.509  -9.217  -1.416  0.00  0.00     0.143 A 
ATOM     27  O   UNL d   1       5.865  -8.104  -1.847  0.00  0.00    -0.317 OA
ENDBRANCH  20  23
ENDBRANCH   4  19
TORSDOF 5
