@<TRIPOS>MOLECULE
*****
 69 72 0 0 0
SMALL
GASTEIGER

@<TRIPOS>ATOM
      1 C           0.9643   -0.0143    0.0447 C.3     1  UNL1       -0.0483
      2 C           2.4922   -0.0966    0.0629 C.3     1  UNL1        0.0232
      3 C           2.9079   -1.4948   -0.3634 C.3     1  UNL1       -0.0483
      4 N           3.0816    0.9326   -0.8545 N.3     1  UNL1       -0.1874
      5 S           4.8028    0.9547   -0.8628 S.O2    1  UNL1        0.0587
      6 O           5.2056    1.3753    0.4560 O.2     1  UNL1       -0.1530
      7 O           5.2961   -0.2633   -1.4742 O.2     1  UNL1       -0.1530
      8 C           5.2189    2.2597   -1.9659 C.ar    1  UNL1        0.1077
      9 C           6.1752    2.0851   -2.9821 C.ar    1  UNL1       -0.0144
     10 C           6.6307    3.1843   -3.7159 C.ar    1  UNL1        0.0300
     11 N           7.6274    3.0397   -4.6743 N.pl3   1  UNL1       -0.3397
     12 C           8.2563    4.2284   -5.2735 C.3     1  UNL1        0.0344
     13 C           9.5077    3.8809   -6.0493 C.ar    1  UNL1       -0.0304
     14 C           9.8194    2.5583   -6.3922 C.ar    1  UNL1       -0.0564
     15 C          11.0283    2.2394   -7.0007 C.ar    1  UNL1       -0.0508
     16 C          11.8906    3.2528   -7.4092 C.ar    1  UNL1        0.0173
     17 C          13.1231    2.9370   -8.0959 C.ar    1  UNL1        0.1348
     18 C          14.4400    3.2135   -7.8124 C.ar    1  UNL1       -0.0159
     19 C          15.1965    2.7043   -8.8902 C.ar    1  UNL1       -0.0233
     20 C          14.2929    2.1471   -9.7657 C.ar    1  UNL1        0.0926
     21 O          13.0256    2.2704   -9.2835 O.2     1  UNL1       -0.4629
     22 C          11.5719    4.5851   -7.1167 C.ar    1  UNL1       -0.0508
     23 C          10.3912    4.8999   -6.4392 C.ar    1  UNL1       -0.0564
     24 C           5.9849    4.3927   -3.5090 C.ar    1  UNL1       -0.0286
     25 C           5.0524    4.5647   -2.4770 C.ar    1  UNL1        0.0403
     26 C           4.6068    5.9346   -2.2203 C.2     1  UNL1        0.2448
     27 O           5.1739    6.8047   -2.8715 O.2     1  UNL1       -0.2702
     28 N           3.6259    6.1501   -1.2775 N.am    1  UNL1       -0.3000
     29 C           3.0966    7.4732   -0.9480 C.3     1  UNL1        0.0997
     30 C           2.9983    8.3799   -2.1752 C.3     1  UNL1       -0.0259
     31 C           3.0652    9.8567   -1.8705 C.3     1  UNL1       -0.0495
     32 C           1.8360   10.3849   -1.1678 C.3     1  UNL1       -0.0373
     33 C           1.6383    9.7612    0.2057 C.3     1  UNL1        0.0116
     34 N           1.0646    8.4326    0.1392 N.am    1  UNL1       -0.3138
     35 C           1.6819    7.3061   -0.3387 C.2     1  UNL1        0.2334
     36 O           1.1055    6.2184   -0.2708 O.2     1  UNL1       -0.2738
     37 C           4.6668    3.4981   -1.6951 C.ar    1  UNL1       -0.0231
     38 H           0.5421   -0.7721    0.7170 H       1  UNL1        0.0245
     39 H           0.5612   -0.1990   -0.9571 H       1  UNL1        0.0245
     40 H           0.6006    0.9623    0.3797 H       1  UNL1        0.0245
     41 H           2.8251    0.1184    1.0853 H       1  UNL1        0.0472
     42 H           2.6178   -1.6814   -1.4035 H       1  UNL1        0.0245
     43 H           2.4573   -2.2538    0.2783 H       1  UNL1        0.0245
     44 H           3.9841   -1.6422   -0.2773 H       1  UNL1        0.0245
     45 H           2.7232    1.8553   -0.5975 H       1  UNL1        0.1483
     46 H           6.5876    1.0970   -3.1789 H       1  UNL1        0.0655
     47 H           8.2788    2.2966   -4.4404 H       1  UNL1        0.1464
     48 H           8.5376    4.9614   -4.5010 H       1  UNL1        0.0511
     49 H           7.5471    4.7015   -5.9623 H       1  UNL1        0.0511
     50 H           9.1264    1.7486   -6.1839 H       1  UNL1        0.0621
     51 H          11.2943    1.1940   -7.1312 H       1  UNL1        0.0625
     52 H          14.7864    3.7256   -6.9276 H       1  UNL1        0.0655
     53 H          16.2681    2.7466   -9.0147 H       1  UNL1        0.0649
     54 H          14.3898    1.6532  -10.7234 H       1  UNL1        0.1029
     55 H          12.2501    5.3843   -7.4083 H       1  UNL1        0.0625
     56 H          10.1705    5.9441   -6.2224 H       1  UNL1        0.0621
     57 H           6.2382    5.2502   -4.1278 H       1  UNL1        0.0643
     58 H           3.2859    5.4062   -0.6842 H       1  UNL1        0.1498
     59 H           3.7513    7.8712   -0.1639 H       1  UNL1        0.0594
     60 H           2.1300    8.1089   -2.7855 H       1  UNL1        0.0288
     61 H           3.8470    8.2734   -2.8345 H       1  UNL1        0.0288
     62 H           3.1890   10.3807   -2.8256 H       1  UNL1        0.0266
     63 H           3.9686   10.0664   -1.2832 H       1  UNL1        0.0266
     64 H           0.9552   10.2242   -1.8005 H       1  UNL1        0.0280
     65 H           1.9728   11.4651   -1.0565 H       1  UNL1        0.0280
     66 H           0.9476   10.3799    0.7850 H       1  UNL1        0.0462
     67 H           2.5854    9.7049    0.7538 H       1  UNL1        0.0462
     68 H           0.1330    8.2837    0.5114 H       1  UNL1        0.1487
     69 H           3.9836    3.6101   -0.8672 H       1  UNL1        0.0644
@<TRIPOS>BOND
     1     1     2    1
     2     2     3    1
     3     2     4    1
     4     4     5    1
     5     5     6    2
     6     5     7    2
     7     5     8    1
     8     8     9   ar
     9     9    10   ar
    10    10    11    1
    11    11    12    1
    12    12    13    1
    13    13    14   ar
    14    14    15   ar
    15    15    16   ar
    16    16    17    1
    17    17    18   ar
    18    18    19   ar
    19    19    20   ar
    20    20    21   ar
    21    17    21   ar
    22    16    22   ar
    23    22    23   ar
    24    13    23   ar
    25    10    24   ar
    26    24    25   ar
    27    25    26    1
    28    26    27    2
    29    26    28   am
    30    28    29    1
    31    29    30    1
    32    30    31    1
    33    31    32    1
    34    32    33    1
    35    33    34    1
    36    34    35   am
    37    29    35    1
    38    35    36    2
    39    25    37   ar
    40     8    37   ar
    41     1    38    1
    42     1    39    1
    43     1    40    1
    44     2    41    1
    45     3    42    1
    46     3    43    1
    47     3    44    1
    48     4    45    1
    49     9    46    1
    50    11    47    1
    51    12    48    1
    52    12    49    1
    53    14    50    1
    54    15    51    1
    55    18    52    1
    56    19    53    1
    57    20    54    1
    58    22    55    1
    59    23    56    1
    60    24    57    1
    61    28    58    1
    62    29    59    1
    63    30    60    1
    64    30    61    1
    65    31    62    1
    66    31    63    1
    67    32    64    1
    68    32    65    1
    69    33    66    1
    70    33    67    1
    71    34    68    1
    72    37    69    1
