@<TRIPOS>MOLECULE
*****
 39 41 0 0 0
SMALL
GASTEIGER

@<TRIPOS>ATOM
      1 C           0.9638   -0.0507   -0.0037 C.3     1  UNL1       -0.0206
      2 C           2.4587   -0.0221    0.0079 C.ar    1  UNL1        0.0607
      3 C           3.1636    1.1686    0.0288 C.ar    1  UNL1       -0.0356
      4 C           4.5361    1.1413    0.2819 C.ar    1  UNL1       -0.0181
      5 C           5.1990   -0.0741    0.2980 C.ar    1  UNL1        0.1454
      6 N           6.5975   -0.1305    0.4537 N.pl3   1  UNL1       -0.2980
      7 C           7.3524   -1.2900    0.2049 C.ar    1  UNL1        0.0325
      8 C           8.2041   -1.7957    1.1859 C.ar    1  UNL1       -0.0388
      9 C           8.7059   -3.1088    1.0803 C.ar    1  UNL1       -0.0387
     10 C           8.5983   -3.8186   -0.1239 C.ar    1  UNL1        0.0338
     11 N           9.2377   -5.0829   -0.2866 N.am    1  UNL1       -0.2815
     12 C           9.3434   -5.7648   -1.4947 C.2     1  UNL1        0.2483
     13 O           8.8790   -5.4222   -2.5907 O.2     1  UNL1       -0.2699
     14 C          10.1567   -6.9953   -1.5297 C.ar    1  UNL1        0.0384
     15 C          11.0651   -7.1562   -2.5894 C.ar    1  UNL1       -0.0495
     16 C          11.9310   -8.2458   -2.6097 C.ar    1  UNL1       -0.0597
     17 C          11.7291   -9.2905   -1.7122 C.ar    1  UNL1       -0.0433
     18 C          10.7253   -9.1898   -0.7457 C.ar    1  UNL1        0.0417
     19 CL         10.3776  -10.5447    0.2562 Cl      1  UNL1       -0.0835
     20 C           9.9861   -8.0155   -0.5965 C.ar    1  UNL1       -0.0313
     21 C           7.8728   -3.2250   -1.1556 C.ar    1  UNL1       -0.0387
     22 C           7.2156   -2.0080   -0.9800 C.ar    1  UNL1       -0.0388
     23 N           4.4759   -1.2140    0.2088 N.ar    1  UNL1       -0.1338
     24 N           3.1021   -1.1963    0.1087 N.ar    1  UNL1       -0.1528
     25 H           0.5460    0.9553   -0.1109 H       1  UNL1        0.0293
     26 H           0.6006   -0.4611    0.9453 H       1  UNL1        0.0293
     27 H           0.5901   -0.6704   -0.8232 H       1  UNL1        0.0293
     28 H           2.6552    2.1134   -0.1272 H       1  UNL1        0.0637
     29 H           5.0620    2.0710    0.4632 H       1  UNL1        0.0653
     30 H           7.1036    0.7420    0.4071 H       1  UNL1        0.1536
     31 H           8.3982   -1.2064    2.0782 H       1  UNL1        0.0637
     32 H           9.1478   -3.5516    1.9692 H       1  UNL1        0.0637
     33 H           9.7570   -5.4336    0.5116 H       1  UNL1        0.1551
     34 H          11.0950   -6.4315   -3.4034 H       1  UNL1        0.0625
     35 H          12.7420   -8.2857   -3.3328 H       1  UNL1        0.0618
     36 H          12.3390  -10.1872   -1.7883 H       1  UNL1        0.0632
     37 H           9.2456   -7.9267    0.1909 H       1  UNL1        0.0640
     38 H           7.7449   -3.6993   -2.1190 H       1  UNL1        0.0637
     39 H           6.5668   -1.6592   -1.7791 H       1  UNL1        0.0637
@<TRIPOS>BOND
     1     1     2    1
     2     2     3   ar
     3     3     4   ar
     4     4     5   ar
     5     5     6    1
     6     6     7    1
     7     7     8   ar
     8     8     9   ar
     9     9    10   ar
    10    10    11    1
    11    11    12   am
    12    12    13    2
    13    12    14    1
    14    14    15   ar
    15    15    16   ar
    16    16    17   ar
    17    17    18   ar
    18    18    19    1
    19    18    20   ar
    20    14    20   ar
    21    10    21   ar
    22    21    22   ar
    23     7    22   ar
    24     5    23   ar
    25    23    24   ar
    26     2    24   ar
    27     1    25    1
    28     1    26    1
    29     1    27    1
    30     3    28    1
    31     4    29    1
    32     6    30    1
    33     8    31    1
    34     9    32    1
    35    11    33    1
    36    15    34    1
    37    16    35    1
    38    17    36    1
    39    20    37    1
    40    21    38    1
    41    22    39    1
