@<TRIPOS>MOLECULE
*****
 41 42 0 0 0
SMALL
GASTEIGER

@<TRIPOS>ATOM
      1 C          13.3015   -6.6295    5.4396 C.3     1  UNL1       -0.0135
      2 S          12.0921   -6.4550    4.0923 S.3     1  UNL1       -0.1285
      3 C          11.8940   -4.6838    3.9328 C.ar    1  UNL1        0.0094
      4 C          12.9553   -3.7908    3.8651 C.ar    1  UNL1       -0.0482
      5 C          12.7058   -2.4141    3.8869 C.ar    1  UNL1       -0.0590
      6 C          11.3915   -1.9215    3.8003 C.ar    1  UNL1       -0.0404
      7 C          10.3078   -2.8094    3.6788 C.ar    1  UNL1        0.0345
      8 N           8.9549   -2.2899    3.7547 N.am    1  UNL1       -0.2839
      9 C           7.8637   -3.0753    4.1853 C.2     1  UNL1        0.2372
     10 O           7.7456   -4.2796    4.0519 O.2     1  UNL1       -0.2734
     11 C           6.7405   -2.2956    4.9143 C.3     1  UNL1        0.0948
     12 C           5.7415   -2.0529    3.7833 C.3     1  UNL1       -0.0381
     13 N           7.1785   -1.0455    5.5897 N.pl3   1  UNL1       -0.3329
     14 C           7.8801   -0.9655    6.8045 C.ar    1  UNL1        0.0306
     15 C           7.6177    0.0759    7.7032 C.ar    1  UNL1       -0.0406
     16 C           8.4783    0.3431    8.7934 C.ar    1  UNL1       -0.0600
     17 C           9.6221   -0.4121    9.0146 C.ar    1  UNL1       -0.0614
     18 C           9.8542   -1.4814    8.1998 C.ar    1  UNL1       -0.0571
     19 C           8.9263   -1.8214    7.2114 C.ar    1  UNL1       -0.0296
     20 C           9.3249   -3.0587    6.5328 C.3     1  UNL1       -0.0380
     21 C          10.5899   -4.1809    3.8220 C.ar    1  UNL1       -0.0271
     22 H          13.4867   -7.6993    5.5898 H       1  UNL1        0.0344
     23 H          12.9279   -6.2216    6.3838 H       1  UNL1        0.0344
     24 H          14.2537   -6.1603    5.1835 H       1  UNL1        0.0344
     25 H          13.9763   -4.1541    3.8004 H       1  UNL1        0.0629
     26 H          13.5439   -1.7269    3.9905 H       1  UNL1        0.0618
     27 H          11.2374   -0.8495    3.9155 H       1  UNL1        0.0636
     28 H           8.8809   -1.3160    4.0469 H       1  UNL1        0.1549
     29 H           6.2653   -2.9449    5.6634 H       1  UNL1        0.0591
     30 H           6.2157   -1.5082    2.9592 H       1  UNL1        0.0252
     31 H           4.8474   -1.5132    4.0988 H       1  UNL1        0.0252
     32 H           5.4198   -3.0217    3.3702 H       1  UNL1        0.0252
     33 H           6.6634   -0.2111    5.3179 H       1  UNL1        0.1468
     34 H           6.7263    0.6896    7.5959 H       1  UNL1        0.0636
     35 H           8.2718    1.1657    9.4684 H       1  UNL1        0.0618
     36 H          10.3164   -0.2224    9.8235 H       1  UNL1        0.0618
     37 H          10.7646   -2.0733    8.2940 H       1  UNL1        0.0621
     38 H          10.1949   -3.6168    6.8781 H       1  UNL1        0.0278
     39 H           9.7272   -2.5679    5.6892 H       1  UNL1        0.0278
     40 H           8.4896   -3.7370    6.3955 H       1  UNL1        0.0278
     41 H           9.7876   -4.8953    3.9672 H       1  UNL1        0.0647
@<TRIPOS>BOND
     1     1     2    1
     2     2     3    1
     3     3     4   ar
     4     4     5   ar
     5     5     6   ar
     6     6     7   ar
     7     7     8    1
     8     8     9   am
     9     9    10    2
    10    11    13    1
    11    13    14    1
    12    14    15   ar
    13    15    16   ar
    14    16    17   ar
    15    17    18   ar
    16    18    19   ar
    17    14    19   ar
    18    19    20    1
    19     7    21   ar
    20     3    21   ar
    21    11    12    1
    22    11     9    1
    23     1    22    1
    24     1    23    1
    25     1    24    1
    26     4    25    1
    27     5    26    1
    28     6    27    1
    29     8    28    1
    30    11    29    1
    31    12    30    1
    32    12    31    1
    33    12    32    1
    34    13    33    1
    35    15    34    1
    36    16    35    1
    37    17    36    1
    38    18    37    1
    39    20    38    1
    40    20    39    1
    41    20    40    1
    42    21    41    1
