REMARK  12 active torsions:
REMARK  status: ('A' for Active; 'I' for Inactive)
REMARK    1  A    between atoms: C_2  and  O_3 
REMARK    2  A    between atoms: O_3  and  C_4 
REMARK    3  A    between atoms: C_4  and  C_5 
REMARK    4  A    between atoms: C_5  and  O_6 
REMARK    5  A    between atoms: O_6  and  C_7 
REMARK    6  A    between atoms: C_10  and  C_11 
REMARK       I    between atoms: C_11  and  N_13 
REMARK    7  A    between atoms: N_13  and  C_14 
REMARK    8  A    between atoms: C_14  and  N_16 
REMARK    9  A    between atoms: N_16  and  N_17 
REMARK       I    between atoms: N_17  and  C_18 
REMARK   10  A    between atoms: C_18  and  C_20 
REMARK   11  A    between atoms: C_23  and  N_24 
REMARK       I    between atoms: N_24  and  C_25 
REMARK   12  A    between atoms: C_25  and  C_27 
ROOT
ATOM      1  N   UNL d   1       8.927  -1.504 -11.192  0.00  0.00    -0.273 N 
ATOM      2  H   UNL d   1       8.127  -0.878 -11.265  0.00  0.00     0.189 HD
ENDROOT
BRANCH   1   3
ATOM      3  C   UNL d   1       9.467  -2.044 -10.007  0.00  0.00     0.193 C 
ATOM      4  S   UNL d   1      10.803  -3.075 -10.105  0.00  0.00    -0.039 SA
BRANCH   3   5
ATOM      5  N   UNL d   1       8.819  -1.657  -8.806  0.00  0.00    -0.298 N 
ATOM      6  C   UNL d   1       9.172  -2.059  -7.489  0.00  0.00     0.257 C 
ATOM      7  O   UNL d   1      10.124  -2.801  -7.241  0.00  0.00    -0.267 OA
ATOM      8  H   UNL d   1       8.014  -1.059  -8.902  0.00  0.00     0.171 HD
BRANCH   6   9
ATOM      9  C   UNL d   1       8.379  -1.634  -6.276  0.00  0.00     0.032 A 
ATOM     10  C   UNL d   1       8.775  -2.154  -5.018  0.00  0.00     0.020 A 
ATOM     11  C   UNL d   1       8.027  -1.928  -3.852  0.00  0.00     0.038 A 
ATOM     12  C   UNL d   1       6.897  -1.119  -3.900  0.00  0.00     0.068 A 
ATOM     13  C   UNL d   1       6.533  -0.543  -5.120  0.00  0.00     0.038 A 
ATOM     14  C   UNL d   1       7.261  -0.802  -6.302  0.00  0.00     0.020 A 
BRANCH  12  15
ATOM     15  O   UNL d   1       6.285  -0.861  -2.704  0.00  0.00    -0.349 OA
BRANCH  15  16
ATOM     16  C   UNL d   1       4.855  -0.788  -2.735  0.00  0.00     0.201 C 
BRANCH  16  17
ATOM     17  C   UNL d   1       4.351  -0.383  -1.349  0.00  0.00     0.194 C 
BRANCH  17  18
ATOM     18  O   UNL d   1       2.921  -0.363  -1.331  0.00  0.00    -0.389 OA
BRANCH  18  19
ATOM     19  C   UNL d   1       2.435   0.006  -0.040  0.00  0.00     0.163 C 
ATOM     20  C   UNL d   1       0.920   0.002  -0.054  0.00  0.00     0.033 C 
ENDBRANCH  18  19
ENDBRANCH  17  18
ENDBRANCH  16  17
ENDBRANCH  15  16
ENDBRANCH  12  15
ENDBRANCH   6   9
ENDBRANCH   3   5
ENDBRANCH   1   3
BRANCH   1  21
ATOM     21  N   UNL d   1       9.535  -1.862 -12.465  0.00  0.00    -0.264 N 
ATOM     22  C   UNL d   1       9.130  -1.304 -13.670  0.00  0.00     0.270 C 
ATOM     23  O   UNL d   1       8.201  -0.497 -13.756  0.00  0.00    -0.266 OA
ATOM     24  H   UNL d   1      10.359  -2.462 -12.394  0.00  0.00     0.190 HD
BRANCH  22  25
ATOM     25  C   UNL d   1       9.864  -1.739 -14.913  0.00  0.00     0.033 A 
ATOM     26  C   UNL d   1      10.153  -0.842 -15.959  0.00  0.00     0.019 A 
ATOM     27  C   UNL d   1      10.743  -1.283 -17.178  0.00  0.00     0.030 A 
ATOM     28  C   UNL d   1      11.103  -2.626 -17.352  0.00  0.00     0.034 A 
ATOM     29  C   UNL d   1      10.766  -3.502 -16.312  0.00  0.00     0.030 A 
ATOM     30  C   UNL d   1      10.170  -3.080 -15.113  0.00  0.00     0.019 A 
BRANCH  28  31
ATOM     31  N   UNL d   1      11.811  -3.060 -18.524  0.00  0.00    -0.327 N 
ATOM     32  C   UNL d   1      12.290  -4.356 -18.711  0.00  0.00     0.226 C 
ATOM     33  O   UNL d   1      12.092  -5.282 -17.923  0.00  0.00    -0.273 OA
ATOM     34  H   UNL d   1      12.041  -2.356 -19.216  0.00  0.00     0.169 HD
BRANCH  32  35
ATOM     35  C   UNL d   1      13.089  -4.660 -19.987  0.00  0.00     0.078 C 
ATOM     36  C   UNL d   1      14.374  -3.834 -20.104  0.00  0.00     0.014 C 
ATOM     37  C   UNL d   1      15.239  -4.285 -21.287  0.00  0.00     0.001 C 
ATOM     38  C   UNL d   1      15.573  -5.773 -21.224  0.00  0.00     0.000 C 
ATOM     39  C   UNL d   1      14.303  -6.606 -21.142  0.00  0.00     0.001 C 
ATOM     40  C   UNL d   1      13.447  -6.171 -19.965  0.00  0.00     0.014 C 
ENDBRANCH  32  35
ENDBRANCH  28  31
ENDBRANCH  22  25
ENDBRANCH   1  21
TORSDOF 12
