@<TRIPOS>MOLECULE
*****
 52 55 0 0 0
SMALL
GASTEIGER

@<TRIPOS>ATOM
      1 C           1.0375    0.0903    0.0320 C.3     1  UNL1        0.0365
      2 O           2.4830    0.1659   -0.0169 O.3     1  UNL1       -0.3814
      3 C           2.9956    1.3848   -0.6611 C.3     1  UNL1        0.0628
      4 C           4.6388    1.4404   -0.7722 C.3     1  UNL1        0.0353
      5 N           5.4619    2.5912   -1.6540 N.am    1  UNL1       -0.3090
      6 C           7.0396    2.5615   -1.9432 C.2     1  UNL1        0.2496
      7 O           7.5925    1.6501   -1.2874 O.2     1  UNL1       -0.2700
      8 C           8.1025    3.8013   -2.6329 C.ar    1  UNL1        0.1051
      9 C           8.3743    4.4654   -1.4599 C.ar    1  UNL1        0.1344
     10 N           9.3202    3.7193   -0.6835 N.pl3   1  UNL1       -0.3424
     11 N           8.4140    5.7580   -2.0757 N.ar    1  UNL1       -0.1980
     12 N           7.5356    6.5583   -2.7834 N.2     1  UNL1       -0.1711
     13 C           6.3535    6.2010   -2.9560 C.2     1  UNL1        0.0558
     14 C           5.4069    7.1519   -3.5601 C.ar    1  UNL1       -0.0023
     15 C           5.6740    7.8065   -4.7698 C.ar    1  UNL1       -0.0528
     16 C           4.8988    8.9150   -5.1179 C.ar    1  UNL1       -0.0611
     17 C           3.8218    9.2890   -4.3129 C.ar    1  UNL1       -0.0615
     18 C           3.5059    8.5564   -3.1660 C.ar    1  UNL1       -0.0582
     19 C           4.3364    7.5202   -2.7429 C.ar    1  UNL1       -0.0418
     20 C           4.1632    6.8970   -1.3859 C.3     1  UNL1       -0.0391
     21 C           9.6579    5.8250   -2.5334 C.ar    1  UNL1        0.1830
     22 N          10.4280    6.9087   -2.3559 N.ar    1  UNL1       -0.2244
     23 C          11.6827    6.8139   -2.6090 C.ar    1  UNL1        0.0916
     24 C          12.3712    8.0511   -2.3385 C.ar    1  UNL1       -0.0342
     25 C          13.6884    8.3185   -2.6552 C.ar    1  UNL1       -0.0596
     26 C          14.3545    7.2539   -3.1959 C.ar    1  UNL1       -0.0596
     27 C          13.6750    5.9455   -3.2810 C.ar    1  UNL1       -0.0342
     28 C          12.2061    5.5915   -3.0714 C.ar    1  UNL1        0.0900
     29 N          11.2203    4.2902   -3.2256 N.ar    1  UNL1       -0.2412
     30 C           9.7615    4.5233   -3.0597 C.ar    1  UNL1        0.1241
     31 H           0.7121   -0.8498    0.5077 H       1  UNL1        0.0523
     32 H           0.6073    0.1035   -0.9757 H       1  UNL1        0.0523
     33 H           0.6142    0.9104    0.6234 H       1  UNL1        0.0523
     34 H           2.6045    2.2154   -0.0612 H       1  UNL1        0.0575
     35 H           2.5488    1.4064   -1.6565 H       1  UNL1        0.0575
     36 H           4.9354    0.4750   -1.1908 H       1  UNL1        0.0485
     37 H           5.0019    1.4459    0.2687 H       1  UNL1        0.0485
     38 H           4.8708    3.3949   -1.8404 H       1  UNL1        0.1491
     39 H           9.0178    2.7158   -0.6542 H       1  UNL1        0.1437
     40 H          10.2202    3.5200   -1.1797 H       1  UNL1        0.1437
     41 H           5.9257    5.2596   -2.5524 H       1  UNL1        0.0853
     42 H           6.4884    7.4941   -5.4185 H       1  UNL1        0.0624
     43 H           5.1397    9.5011   -6.0026 H       1  UNL1        0.0618
     44 H           3.2313   10.1662   -4.5672 H       1  UNL1        0.0618
     45 H           2.6346    8.8288   -2.5786 H       1  UNL1        0.0620
     46 H           3.2973    7.3038   -0.8640 H       1  UNL1        0.0278
     47 H           5.0497    7.0929   -0.7677 H       1  UNL1        0.0278
     48 H           4.0285    5.8146   -1.4805 H       1  UNL1        0.0278
     49 H          11.8151    8.8657   -1.8631 H       1  UNL1        0.0639
     50 H          14.1445    9.2996   -2.4809 H       1  UNL1        0.0618
     51 H          15.3819    7.4315   -3.5390 H       1  UNL1        0.0618
     52 H          14.3948    5.1549   -3.5112 H       1  UNL1        0.0639
@<TRIPOS>BOND
     1     1     2    1
     2     2     3    1
     3     3     4    1
     4     4     5    1
     5     5     6   am
     6     6     7    2
     7     6     8    1
     8     8     9   ar
     9     9    10    1
    10     9    11   ar
    11    11    12    1
    12    12    13    2
    13    13    14    1
    14    14    15   ar
    15    15    16   ar
    16    16    17   ar
    17    17    18   ar
    18    18    19   ar
    19    14    19   ar
    20    19    20    1
    21    11    21   ar
    22    21    22   ar
    23    22    23   ar
    24    23    24   ar
    25    24    25   ar
    26    25    26   ar
    27    26    27   ar
    28    27    28   ar
    29    23    28   ar
    30    28    29   ar
    31    29    30   ar
    32     8    30   ar
    33    21    30   ar
    34     1    31    1
    35     1    32    1
    36     1    33    1
    37     3    34    1
    38     3    35    1
    39     4    36    1
    40     4    37    1
    41     5    38    1
    42    10    39    1
    43    10    40    1
    44    13    41    1
    45    15    42    1
    46    16    43    1
    47    17    44    1
    48    18    45    1
    49    20    46    1
    50    20    47    1
    51    20    48    1
    52    24    49    1
    53    25    50    1
    54    26    51    1
    55    27    52    1
