REMARK  13 active torsions:
REMARK  status: ('A' for Active; 'I' for Inactive)
REMARK    1  A    between atoms: C_2  and  C_3 
REMARK    2  A    between atoms: C_3  and  C_4 
REMARK    3  A    between atoms: C_4  and  N_5 
REMARK       I    between atoms: N_5  and  C_6 
REMARK    4  A    between atoms: C_6  and  C_8 
REMARK    5  A    between atoms: C_8  and  C_9 
REMARK    6  A    between atoms: C_8  and  N_18 
REMARK    7  A    between atoms: C_12  and  N_13 
REMARK    8  A    between atoms: N_18  and  C_19 
REMARK       I    between atoms: N_18  and  C_22 
REMARK    9  A    between atoms: C_19  and  C_20 
REMARK   10  A    between atoms: C_22  and  C_24 
REMARK   11  A    between atoms: C_24  and  O_25 
REMARK   12  A    between atoms: C_24  and  C_26 
REMARK   13  A    between atoms: C_24  and  C_32 
ROOT
ATOM      1  N   UNL d   1       8.429   4.358  -1.029  0.00  0.00    -0.331 N 
ATOM      2  C   UNL d   1       9.083   5.500  -1.624  0.00  0.00     0.265 C 
ATOM      3  O   UNL d   1       8.400   6.298  -2.281  0.00  0.00    -0.269 OA
ENDROOT
BRANCH   1   4
ATOM      4  C   UNL d   1       6.856   4.380  -1.101  0.00  0.00     0.212 C 
BRANCH   4   5
ATOM      5  C   UNL d   1       5.979   3.045  -0.943  0.00  0.00     0.245 C 
ATOM      6  N   UNL d   1       4.624   2.975  -0.859  0.00  0.00    -0.359 N 
ATOM      7  H   UNL d   1       4.005   3.767  -0.897  0.00  0.00     0.162 HD
ATOM      8  O   UNL d   1       6.409   1.922  -0.872  0.00  0.00    -0.271 OA
BRANCH   6   9
ATOM      9  C   UNL d   1       4.207   1.627  -0.442  0.00  0.00     0.122 C 
BRANCH   9  10
ATOM     10  C   UNL d   1       2.743   1.500  -0.390  0.00  0.00     0.019 C 
BRANCH  10  11
ATOM     11  C   UNL d   1       2.375   0.077  -0.013  0.00  0.00    -0.003 C 
ATOM     12  C   UNL d   1       0.871   0.027  -0.001  0.00  0.00     0.005 C 
ENDBRANCH  10  11
ENDBRANCH   9  10
ENDBRANCH   6   9
ENDBRANCH   4   5
BRANCH   4  13
ATOM     13  C   UNL d   1       6.386   5.441  -0.093  0.00  0.00    -0.026 C 
ATOM     14  C   UNL d   1       6.424   6.818  -0.395  0.00  0.00     0.012 C 
ATOM     15  C   UNL d   1       6.357   7.771   0.619  0.00  0.00     0.037 C 
ATOM     16  C   UNL d   1       6.046   7.356   1.913  0.00  0.00     0.102 C 
ATOM     17  C   UNL d   1       5.901   5.997   2.214  0.00  0.00     0.037 C 
ATOM     18  C   UNL d   1       6.100   5.048   1.219  0.00  0.00     0.012 C 
BRANCH  16  19
ATOM     19  N   UNL d   1       5.790   8.355   2.950  0.00  0.00    -0.116 N 
ATOM     20  O   UNL d   1       5.920   9.550   2.646  0.00  0.00    -0.532 OA
ATOM     21  O   UNL d   1       5.424   7.946   4.060  0.00  0.00    -0.532 OA
ENDBRANCH  16  19
ENDBRANCH   4  13
ENDBRANCH   1   4
BRANCH   1  22
ATOM     22  C   UNL d   1       9.207   3.228  -0.387  0.00  0.00     0.127 C 
BRANCH  22  23
ATOM     23  C   UNL d   1       8.522   1.932  -0.271  0.00  0.00     0.015 C 
ATOM     24  C   UNL d   1       9.189   0.619  -0.051  0.00  0.00     0.006 C 
ENDBRANCH  22  23
ENDBRANCH   1  22
BRANCH   2  25
ATOM     25  C   UNL d   1      10.707   5.686  -1.603  0.00  0.00     0.194 C 
BRANCH  25  26
ATOM     26  O   UNL d   1      11.237   5.440  -0.292  0.00  0.00    -0.371 OA
ATOM     27  H   UNL d   1      11.148   4.509  -0.074  0.00  0.00     0.212 HD
ENDBRANCH  25  26
BRANCH  25  28
ATOM     28  C   UNL d   1      11.278   4.728  -2.694  0.00  0.00    -0.010 C 
ATOM     29  C   UNL d   1      10.740   3.459  -2.824  0.00  0.00     0.011 C 
ATOM     30  C   UNL d   1      11.277   2.366  -3.465  0.00  0.00     0.001 C 
ATOM     31  C   UNL d   1      12.178   2.653  -4.444  0.00  0.00     0.000 C 
ATOM     32  C   UNL d   1      12.578   3.978  -4.612  0.00  0.00     0.001 C 
ATOM     33  C   UNL d   1      12.135   4.998  -3.748  0.00  0.00     0.011 C 
ENDBRANCH  25  28
BRANCH  25  34
ATOM     34  C   UNL d   1      11.178   7.152  -1.784  0.00  0.00    -0.010 C 
ATOM     35  C   UNL d   1      12.525   7.446  -2.104  0.00  0.00     0.011 C 
ATOM     36  C   UNL d   1      12.952   8.739  -2.393  0.00  0.00     0.001 C 
ATOM     37  C   UNL d   1      12.056   9.791  -2.281  0.00  0.00     0.000 C 
ATOM     38  C   UNL d   1      10.763   9.551  -1.829  0.00  0.00     0.001 C 
ATOM     39  C   UNL d   1      10.338   8.249  -1.558  0.00  0.00     0.011 C 
ENDBRANCH  25  34
ENDBRANCH   2  25
TORSDOF 13
