@<TRIPOS>MOLECULE
*****
 64 66 0 0 0
SMALL
GASTEIGER

@<TRIPOS>ATOM
      1 C           6.6184   -9.0419    2.7664 C.3     1  UNL1        0.0790
      2 O           5.4824   -8.4763    2.1063 O.3     1  UNL1       -0.4915
      3 C           5.7198   -7.5800    1.0994 C.ar    1  UNL1        0.1615
      4 C           5.3123   -6.2933    1.3943 C.ar    1  UNL1       -0.0159
      5 C           5.3530   -5.2845    0.4206 C.ar    1  UNL1       -0.0495
      6 C           5.6758   -5.4932   -0.9179 C.ar    1  UNL1        0.0054
      7 C           5.5264   -4.3853   -1.9910 C.3     1  UNL1        0.0204
      8 C           4.6328   -3.1513   -1.4959 C.3     1  UNL1        0.0591
      9 N           3.4874   -3.5379   -0.6529 N.am    1  UNL1       -0.3055
     10 C           2.7821   -2.6558    0.1301 C.2     1  UNL1        0.2487
     11 O           2.6574   -1.4634   -0.1682 O.2     1  UNL1       -0.2700
     12 C           2.0921   -3.2093    1.3087 C.ar    1  UNL1        0.0916
     13 C           0.7260   -3.1000    1.4206 C.ar    1  UNL1        0.0455
     14 N           0.0099   -3.5080    2.4994 N.ar    1  UNL1       -0.2295
     15 C           0.7055   -4.0689    3.4945 C.ar    1  UNL1        0.1899
     16 S          -0.0042   -4.4748    5.0331 S.3     1  UNL1       -0.0813
     17 C          -1.7939   -4.1177    4.8626 C.3     1  UNL1        0.0262
     18 C          -2.5154   -4.4725    6.1580 C.ar    1  UNL1       -0.0371
     19 C          -3.6810   -3.7976    6.5425 C.ar    1  UNL1       -0.0575
     20 C          -4.2067   -3.9780    7.8290 C.ar    1  UNL1       -0.0586
     21 C          -3.6453   -4.9107    8.7093 C.ar    1  UNL1       -0.0504
     22 C          -4.2622   -5.2042   10.0407 C.3     1  UNL1       -0.0397
     23 C          -2.5272   -5.6335    8.3082 C.ar    1  UNL1       -0.0586
     24 C          -1.9986   -5.4411    7.0394 C.ar    1  UNL1       -0.0575
     25 N           2.0281   -4.2364    3.4806 N.ar    1  UNL1       -0.2095
     26 C           2.6887   -3.7160    2.4412 C.ar    1  UNL1        0.1456
     27 CL          4.3198   -3.4280    2.9088 Cl      1  UNL1       -0.0611
     28 N           4.9258   -4.8477   -3.3660 N.4     1  UNL1        0.2375
     29 C           4.9810   -3.7661   -4.4291 C.3     1  UNL1       -0.0427
     30 C           5.5722   -6.0619   -3.9719 C.3     1  UNL1       -0.0427
     31 C           6.2023   -6.7565   -1.1478 C.ar    1  UNL1       -0.0078
     32 C           6.1753   -7.8074   -0.2038 C.ar    1  UNL1        0.1619
     33 O           6.5960   -8.9590   -0.8198 O.3     1  UNL1       -0.4914
     34 C           6.9150   -9.9806    0.0821 C.3     1  UNL1        0.0790
     35 H           6.3830   -9.2695    3.8073 H       1  UNL1        0.0660
     36 H           7.5202   -8.4242    2.6976 H       1  UNL1        0.0660
     37 H           6.8054  -10.0411    2.3738 H       1  UNL1        0.0660
     38 H           4.9643   -6.0702    2.4009 H       1  UNL1        0.0655
     39 H           5.1106   -4.2893    0.7508 H       1  UNL1        0.0623
     40 H           6.5356   -4.0298   -2.2362 H       1  UNL1        0.0920
     41 H           5.2776   -2.4256   -0.9792 H       1  UNL1        0.0522
     42 H           4.1845   -2.5800   -2.3082 H       1  UNL1        0.0522
     43 H           3.3299   -4.5269   -0.4888 H       1  UNL1        0.1492
     44 H           0.1414   -2.6156    0.6444 H       1  UNL1        0.0839
     45 H          -2.2308   -4.6672    4.0231 H       1  UNL1        0.0429
     46 H          -1.9004   -3.0410    4.6829 H       1  UNL1        0.0429
     47 H          -4.1833   -3.1111    5.8641 H       1  UNL1        0.0621
     48 H          -5.0527   -3.3742    8.1502 H       1  UNL1        0.0620
     49 H          -5.1516   -4.5915   10.2101 H       1  UNL1        0.0278
     50 H          -3.5497   -5.0196   10.8502 H       1  UNL1        0.0278
     51 H          -4.5710   -6.2553   10.0661 H       1  UNL1        0.0278
     52 H          -2.0449   -6.3433    8.9756 H       1  UNL1        0.0620
     53 H          -1.1338   -6.0437    6.7746 H       1  UNL1        0.0621
     54 H           3.9402   -5.0820   -3.1893 H       1  UNL1        0.2035
     55 H           6.0285   -3.4898   -4.5756 H       1  UNL1        0.0778
     56 H           4.3861   -2.9043   -4.1387 H       1  UNL1        0.0778
     57 H           4.5440   -4.1719   -5.3448 H       1  UNL1        0.0778
     58 H           6.6534   -5.8878   -4.0036 H       1  UNL1        0.0778
     59 H           5.1774   -6.2234   -4.9761 H       1  UNL1        0.0778
     60 H           5.2752   -6.9341   -3.3952 H       1  UNL1        0.0778
     61 H           6.6970   -7.0152   -2.0744 H       1  UNL1        0.0660
     62 H           7.3094  -10.8700   -0.4025 H       1  UNL1        0.0660
     63 H           5.9908  -10.2812    0.5842 H       1  UNL1        0.0660
     64 H           7.7267   -9.6053    0.7131 H       1  UNL1        0.0660
@<TRIPOS>UNITY_ATOM_ATTR
28 1
charge 1
@<TRIPOS>BOND
     1     1     2    1
     2     2     3    1
     3     3     4   ar
     4     4     5   ar
     5     5     6   ar
     6     8     9    1
     7     9    10   am
     8    10    11    2
     9    10    12    1
    10    12    13   ar
    11    13    14   ar
    12    14    15   ar
    13    15    16    1
    14    16    17    1
    15    17    18    1
    16    18    19   ar
    17    19    20   ar
    18    20    21   ar
    19    21    22    1
    20    21    23   ar
    21    23    24   ar
    22    18    24   ar
    23    15    25   ar
    24    25    26   ar
    25    12    26   ar
    26    26    27    1
    27     7    28    1
    28    28    29    1
    29    28    30    1
    30     6    31   ar
    31    31    32   ar
    32     3    32   ar
    33    32    33    1
    34    33    34    1
    35     7     8    1
    36     7     6    1
    37     1    35    1
    38     1    36    1
    39     1    37    1
    40     4    38    1
    41     5    39    1
    42     7    40    1
    43     8    41    1
    44     8    42    1
    45     9    43    1
    46    13    44    1
    47    17    45    1
    48    17    46    1
    49    19    47    1
    50    20    48    1
    51    22    49    1
    52    22    50    1
    53    22    51    1
    54    23    52    1
    55    24    53    1
    56    28    54    1
    57    29    55    1
    58    29    56    1
    59    29    57    1
    60    30    58    1
    61    30    59    1
    62    30    60    1
    63    31    61    1
    64    34    62    1
    65    34    63    1
    66    34    64    1
