@<TRIPOS>MOLECULE
*****
 57 58 0 0 0
SMALL
GASTEIGER

@<TRIPOS>ATOM
      1 C           1.0834   -0.0838    0.0188 C.3     1  UNL1       -0.0203
      2 C           2.6039   -0.0633    0.0388 C.2     1  UNL1        0.0633
      3 N           3.1835    1.0722    0.3146 N.2     1  UNL1       -0.1853
      4 N           4.5503    1.1479    0.2565 N.am    1  UNL1       -0.2183
      5 C           5.2679    2.2585    0.5709 C.2     1  UNL1        0.1473
      6 N           4.5778    3.3719    0.8884 N.am    1  UNL1       -0.3394
      7 S           6.9290    2.2398    0.5578 S.2     1  UNL1       -0.0174
      8 C           3.2899   -1.3610   -0.2752 C.ar    1  UNL1       -0.0023
      9 C           4.3911   -1.7758    0.4816 C.ar    1  UNL1       -0.0494
     10 C           5.1686   -2.8585    0.0595 C.ar    1  UNL1       -0.0193
     11 C           4.7785   -3.6274   -1.0379 C.ar    1  UNL1        0.1205
     12 O           5.5764   -4.7096   -1.3084 O.3     1  UNL1       -0.4918
     13 C           5.1013   -5.6111   -2.3108 C.3     1  UNL1        0.0927
     14 C           6.0072   -6.8396   -2.3782 C.3     1  UNL1        0.0157
     15 C           5.5450   -7.7838   -3.4877 C.3     1  UNL1        0.0927
     16 O           6.3675   -8.9562   -3.5034 O.3     1  UNL1       -0.4918
     17 C           6.1296   -9.8083   -4.5512 C.ar    1  UNL1        0.1205
     18 C           6.2090  -11.1728   -4.2826 C.ar    1  UNL1       -0.0193
     19 C           6.0348  -12.1148   -5.3103 C.ar    1  UNL1       -0.0494
     20 C           5.7185  -11.7102   -6.6152 C.ar    1  UNL1       -0.0023
     21 C           5.3593  -12.6743   -7.7285 C.2     1  UNL1        0.0633
     22 C           5.3497  -14.1674   -7.4279 C.3     1  UNL1       -0.0203
     23 N           5.0293  -12.1911   -8.8991 N.2     1  UNL1       -0.1853
     24 N           4.6619  -13.0688   -9.8881 N.am    1  UNL1       -0.2183
     25 C           4.2891  -12.6737  -11.1406 C.2     1  UNL1        0.1473
     26 N           4.2798  -11.3475  -11.3929 N.am    1  UNL1       -0.3394
     27 S           3.8626  -13.7728  -12.3115 S.2     1  UNL1       -0.0174
     28 C           5.6854  -10.3348   -6.8807 C.ar    1  UNL1       -0.0494
     29 C           5.9049   -9.3954   -5.8625 C.ar    1  UNL1       -0.0193
     30 C           3.6340   -3.2581   -1.7490 C.ar    1  UNL1       -0.0193
     31 C           2.8957   -2.1255   -1.3759 C.ar    1  UNL1       -0.0494
     32 H           0.6845    0.9027    0.2759 H       1  UNL1        0.0293
     33 H           0.7090   -0.8114    0.7444 H       1  UNL1        0.0293
     34 H           0.7096   -0.3424   -0.9757 H       1  UNL1        0.0293
     35 H           5.0981    0.3536   -0.0509 H       1  UNL1        0.1762
     36 H           3.5678    3.3378    0.8512 H       1  UNL1        0.1440
     37 H           5.0624    4.2345    1.0883 H       1  UNL1        0.1440
     38 H           4.6792   -1.2344    1.3808 H       1  UNL1        0.0625
     39 H           6.0888   -3.0937    0.5901 H       1  UNL1        0.0654
     40 H           5.1084   -5.1027   -3.2825 H       1  UNL1        0.0697
     41 H           4.0824   -5.9395   -2.0701 H       1  UNL1        0.0697
     42 H           6.0240   -7.3585   -1.4123 H       1  UNL1        0.0331
     43 H           7.0455   -6.5316   -2.5551 H       1  UNL1        0.0331
     44 H           5.6065   -7.2349   -4.4318 H       1  UNL1        0.0697
     45 H           4.5052   -8.0868   -3.3147 H       1  UNL1        0.0697
     46 H           6.3947  -11.5183   -3.2676 H       1  UNL1        0.0654
     47 H           6.1564  -13.1559   -5.0350 H       1  UNL1        0.0625
     48 H           5.6329  -14.4275   -6.4119 H       1  UNL1        0.0293
     49 H           6.0495  -14.6776   -8.0961 H       1  UNL1        0.0293
     50 H           4.3398  -14.5596   -7.5839 H       1  UNL1        0.0293
     51 H           4.6518  -14.0676   -9.7158 H       1  UNL1        0.1762
     52 H           4.5459  -10.7126  -10.6533 H       1  UNL1        0.1440
     53 H           4.0201  -11.0000  -12.3054 H       1  UNL1        0.1440
     54 H           5.4915   -9.9702   -7.8867 H       1  UNL1        0.0625
     55 H           5.9098   -8.3460   -6.1341 H       1  UNL1        0.0654
     56 H           3.3024   -3.8128   -2.6206 H       1  UNL1        0.0654
     57 H           2.0358   -1.8483   -1.9798 H       1  UNL1        0.0625
@<TRIPOS>BOND
     1     1     2    1
     2     2     3    2
     3     3     4    1
     4     4     5    1
     5     5     6    1
     6     5     7    2
     7     2     8    1
     8     8     9   ar
     9     9    10   ar
    10    10    11   ar
    11    11    12    1
    12    12    13    1
    13    13    14    1
    14    14    15    1
    15    15    16    1
    16    16    17    1
    17    17    18   ar
    18    18    19   ar
    19    19    20   ar
    20    20    21    1
    21    21    22    1
    22    21    23    2
    23    23    24    1
    24    24    25    1
    25    25    26    1
    26    25    27    2
    27    20    28   ar
    28    28    29   ar
    29    17    29   ar
    30    11    30   ar
    31    30    31   ar
    32     8    31   ar
    33     1    32    1
    34     1    33    1
    35     1    34    1
    36     4    35    1
    37     6    36    1
    38     6    37    1
    39     9    38    1
    40    10    39    1
    41    13    40    1
    42    13    41    1
    43    14    42    1
    44    14    43    1
    45    15    44    1
    46    15    45    1
    47    18    46    1
    48    19    47    1
    49    22    48    1
    50    22    49    1
    51    22    50    1
    52    24    51    1
    53    26    52    1
    54    26    53    1
    55    28    54    1
    56    29    55    1
    57    30    56    1
    58    31    57    1
