REMARK  6 active torsions:
REMARK  status: ('A' for Active; 'I' for Inactive)
REMARK       I    between atoms: C_2  and  N_3 
REMARK    1  A    between atoms: C_2  and  C_12 
REMARK    2  A    between atoms: N_3  and  C_4 
REMARK    3  A    between atoms: C_4  and  C_5 
REMARK    4  A    between atoms: C_5  and  C_6 
REMARK    5  A    between atoms: C_19  and  C_20 
REMARK    6  A    between atoms: C_21  and  O_22 
ROOT
ATOM      1  C   UNL d   1       3.004   1.318   0.206  0.00  0.00     0.053 C 
ATOM      2  C   UNL d   1       2.542   2.417   0.916  0.00  0.00     0.019 C 
ATOM      3  C   UNL d   1       3.358   3.549   1.031  0.00  0.00     0.002 C 
ATOM      4  C   UNL d   1       4.428   3.726   0.163  0.00  0.00     0.010 C 
ATOM      5  C   UNL d   1       4.820   2.662  -0.628  0.00  0.00    -0.028 C 
ATOM      6  C   UNL d   1       4.290   1.398  -0.326  0.00  0.00     0.031 C 
ATOM      7  N   UNL d   1       5.301   0.429   0.141  0.00  0.00    -0.282 NA
ATOM      8  C   UNL d   1       6.309   0.300  -0.930  0.00  0.00     0.102 C 
ATOM      9  C   UNL d   1       6.875   1.625  -1.459  0.00  0.00     0.024 C 
ATOM     10  C   UNL d   1       7.337   1.366  -2.928  0.00  0.00     0.034 C 
ATOM     11  C   UNL d   1       6.266   1.868  -3.779  0.00  0.00    -0.029 C 
ATOM     12  C   UNL d   1       5.488   2.680  -3.067  0.00  0.00    -0.021 C 
ATOM     13  C   UNL d   1       5.918   2.786  -1.621  0.00  0.00     0.049 C 
ATOM     14  H   UNL d   1       5.675   0.839   1.016  0.00  0.00     0.128 HD
ENDROOT
BRANCH   1  15
ATOM     15  C   UNL d   1       2.141   0.090   0.085  0.00  0.00     0.253 C 
ATOM     16  O   UNL d   1       0.949   0.152   0.091  0.00  0.00    -0.268 OA
ATOM     17  N   UNL d   1       2.857  -1.093  -0.033  0.00  0.00    -0.357 N 
ATOM     18  H   UNL d   1       3.848  -0.991  -0.082  0.00  0.00     0.162 HD
BRANCH  17  19
ATOM     19  C   UNL d   1       2.208  -2.379  -0.019  0.00  0.00     0.127 C 
BRANCH  19  20
ATOM     20  C   UNL d   1       3.145  -3.593  -0.027  0.00  0.00     0.058 C 
BRANCH  20  21
ATOM     21  C   UNL d   1       2.408  -4.915  -0.017  0.00  0.00    -0.057 A 
ATOM     22  C   UNL d   1       1.032  -4.987   0.247  0.00  0.00     0.007 A 
ATOM     23  C   UNL d   1       0.402  -6.209   0.440  0.00  0.00     0.001 A 
ATOM     24  C   UNL d   1       1.112  -7.386   0.247  0.00  0.00     0.000 A 
ATOM     25  C   UNL d   1       2.471  -7.338  -0.060  0.00  0.00     0.001 A 
ATOM     26  C   UNL d   1       3.123  -6.109  -0.178  0.00  0.00     0.007 A 
ENDBRANCH  20  21
ENDBRANCH  19  20
ENDBRANCH  17  19
ENDBRANCH   1  15
BRANCH   8  27
ATOM     27  C   UNL d   1       7.459  -0.677  -0.599  0.00  0.00     0.004 C 
ATOM     28  C   UNL d   1       7.158  -1.918   0.035  0.00  0.00     0.074 C 
ATOM     29  C   UNL d   1       8.123  -2.892   0.174  0.00  0.00     0.038 C 
ATOM     30  C   UNL d   1       9.367  -2.690  -0.396  0.00  0.00     0.014 C 
ATOM     31  C   UNL d   1       9.743  -1.462  -0.968  0.00  0.00    -0.029 C 
ATOM     32  C   UNL d   1      11.096  -1.218  -1.268  0.00  0.00    -0.009 C 
ATOM     33  C   UNL d   1       8.864  -0.429  -1.177  0.00  0.00    -0.019 C 
ATOM     34  C   UNL d   1      11.615   0.013  -1.645  0.00  0.00     0.025 C 
ATOM     35  C   UNL d   1      10.859   0.484  -2.620  0.00  0.00     0.025 C 
ATOM     36  C   UNL d   1       9.613   0.645  -1.981  0.00  0.00    -0.008 C 
BRANCH  28  37
ATOM     37  O   UNL d   1       5.935  -2.346   0.463  0.00  0.00    -0.360 OA
ATOM     38  H   UNL d   1       5.307  -1.627   0.348  0.00  0.00     0.217 HD
ENDBRANCH  28  37
ENDBRANCH   8  27
TORSDOF 6
