REMARK  13 active torsions:
REMARK  status: ('A' for Active; 'I' for Inactive)
REMARK    1  A    between atoms: C_2  and  C_3 
REMARK    2  A    between atoms: C_3  and  C_4 
REMARK    3  A    between atoms: C_4  and  N_5 
REMARK       I    between atoms: N_5  and  C_6 
REMARK    4  A    between atoms: C_8  and  C_6 
REMARK    5  A    between atoms: C_8  and  N_16 
REMARK    6  A    between atoms: C_8  and  C_9 
REMARK    7  A    between atoms: C_13  and  O_14 
REMARK    8  A    between atoms: N_16  and  C_17 
REMARK       I    between atoms: N_16  and  C_20 
REMARK    9  A    between atoms: C_17  and  C_18 
REMARK   10  A    between atoms: C_20  and  C_22 
REMARK   11  A    between atoms: C_22  and  O_23 
REMARK   12  A    between atoms: C_22  and  C_24 
REMARK   13  A    between atoms: C_22  and  C_30 
ROOT
ATOM      1  N   UNL d   1       8.466   3.462   2.833  0.00  0.00    -0.331 N 
ATOM      2  C   UNL d   1       9.170   4.522   3.478  0.00  0.00     0.265 C 
ATOM      3  O   UNL d   1       8.521   5.456   3.977  0.00  0.00    -0.269 OA
ENDROOT
BRANCH   1   4
ATOM      4  C   UNL d   1       6.935   3.565   2.849  0.00  0.00     0.212 C 
BRANCH   4   5
ATOM      5  C   UNL d   1       6.087   2.679   1.875  0.00  0.00    -0.024 C 
ATOM      6  C   UNL d   1       6.191   2.729   0.467  0.00  0.00     0.010 C 
ATOM      7  C   UNL d   1       5.792   1.609  -0.318  0.00  0.00     0.003 C 
ATOM      8  C   UNL d   1       5.069   0.555   0.242  0.00  0.00     0.036 C 
ATOM      9  C   UNL d   1       4.770   0.620   1.585  0.00  0.00     0.066 C 
ATOM     10  C   UNL d   1       5.272   1.647   2.373  0.00  0.00     0.046 C 
BRANCH   9  11
ATOM     11  O   UNL d   1       4.044  -0.324   2.245  0.00  0.00    -0.361 OA
ATOM     12  H   UNL d   1       3.628  -0.920   1.607  0.00  0.00     0.217 HD
ENDBRANCH   9  11
ENDBRANCH   4   5
BRANCH   4  13
ATOM     13  C   UNL d   1       6.537   3.312   4.371  0.00  0.00     0.245 C 
ATOM     14  N   UNL d   1       6.569   4.408   5.218  0.00  0.00    -0.359 N 
ATOM     15  H   UNL d   1       7.244   5.136   4.973  0.00  0.00     0.162 HD
ATOM     16  O   UNL d   1       6.314   2.218   4.853  0.00  0.00    -0.271 OA
BRANCH  14  17
ATOM     17  C   UNL d   1       6.286   4.162   6.611  0.00  0.00     0.122 C 
BRANCH  17  18
ATOM     18  C   UNL d   1       6.684   5.326   7.488  0.00  0.00     0.019 C 
BRANCH  18  19
ATOM     19  C   UNL d   1       6.214   5.087   8.917  0.00  0.00    -0.003 C 
ATOM     20  C   UNL d   1       6.592   6.262   9.795  0.00  0.00     0.005 C 
ENDBRANCH  18  19
ENDBRANCH  17  18
ENDBRANCH  14  17
ENDBRANCH   4  13
ENDBRANCH   1   4
BRANCH   1  21
ATOM     21  C   UNL d   1       9.221   2.454   2.079  0.00  0.00     0.127 C 
BRANCH  21  22
ATOM     22  C   UNL d   1       8.532   1.394   1.292  0.00  0.00     0.015 C 
ATOM     23  C   UNL d   1       9.285   0.420   0.437  0.00  0.00     0.006 C 
ENDBRANCH  21  22
ENDBRANCH   1  21
BRANCH   2  24
ATOM     24  C   UNL d   1      10.789   4.550   3.558  0.00  0.00     0.194 C 
BRANCH  24  25
ATOM     25  O   UNL d   1      11.332   3.377   4.180  0.00  0.00    -0.371 OA
ATOM     26  H   UNL d   1      11.146   2.591   3.665  0.00  0.00     0.212 HD
ENDBRANCH  24  25
BRANCH  24  27
ATOM     27  C   UNL d   1      11.378   4.748   2.132  0.00  0.00    -0.010 C 
ATOM     28  C   UNL d   1      12.001   3.719   1.408  0.00  0.00     0.011 C 
ATOM     29  C   UNL d   1      12.494   3.939   0.116  0.00  0.00     0.001 C 
ATOM     30  C   UNL d   1      12.462   5.210  -0.449  0.00  0.00     0.000 C 
ATOM     31  C   UNL d   1      11.858   6.240   0.235  0.00  0.00     0.001 C 
ATOM     32  C   UNL d   1      11.228   5.962   1.438  0.00  0.00     0.011 C 
ENDBRANCH  24  27
BRANCH  24  33
ATOM     33  C   UNL d   1      11.217   5.687   4.555  0.00  0.00    -0.010 A 
ATOM     34  C   UNL d   1      11.660   5.414   5.861  0.00  0.00     0.011 A 
ATOM     35  C   UNL d   1      11.818   6.449   6.795  0.00  0.00     0.001 A 
ATOM     36  C   UNL d   1      11.665   7.784   6.423  0.00  0.00     0.000 A 
ATOM     37  C   UNL d   1      11.298   8.086   5.133  0.00  0.00     0.001 A 
ATOM     38  C   UNL d   1      11.028   7.050   4.256  0.00  0.00     0.011 A 
ENDBRANCH  24  33
ENDBRANCH   2  24
TORSDOF 13
