REMARK  5 active torsions:
REMARK  status: ('A' for Active; 'I' for Inactive)
REMARK    1  A    between atoms: O_2  and  C_3 
REMARK    2  A    between atoms: C_13  and  C_14 
REMARK    3  A    between atoms: C_14  and  C_16 
REMARK    4  A    between atoms: C_22  and  C_23 
REMARK    5  A    between atoms: C_27  and  N_28 
ROOT
ATOM      1  C   UNL d   1       3.093   0.248  -1.282  0.00  0.00     0.069 A 
ATOM      2  C   UNL d   1       2.693   1.276  -2.154  0.00  0.00     0.039 A 
ATOM      3  C   UNL d   1       3.403   1.530  -3.321  0.00  0.00     0.033 A 
ATOM      4  C   UNL d   1       4.515   0.759  -3.549  0.00  0.00     0.044 A 
ATOM      5  C   UNL d   1       4.959  -0.267  -2.701  0.00  0.00     0.018 A 
ATOM      6  C   UNL d   1       4.234  -0.530  -1.552  0.00  0.00     0.049 A 
ATOM      7  C   UNL d   1       6.194  -0.909  -3.320  0.00  0.00     0.249 C 
ATOM      8  C   UNL d   1       6.477   0.113  -4.449  0.00  0.00     0.264 C 
ATOM      9  O   UNL d   1       7.512   0.205  -5.072  0.00  0.00    -0.270 OA
ATOM     10  N   UNL d   1       5.391   0.935  -4.591  0.00  0.00    -0.324 N 
ATOM     11  C   UNL d   1       5.912  -2.377  -3.711  0.00  0.00     0.122 C 
ATOM     12  C   UNL d   1       6.643  -3.213  -2.561  0.00  0.00     0.065 C 
ATOM     13  C   UNL d   1       7.438  -2.194  -1.702  0.00  0.00     0.209 C 
ATOM     14  C   UNL d   1       8.868  -2.635  -1.373  0.00  0.00     0.109 C 
ATOM     15  S   UNL d   1       9.958  -1.391  -2.056  0.00  0.00    -0.140 SA
ATOM     16  C   UNL d   1       8.752  -0.864  -3.233  0.00  0.00     0.311 C 
ATOM     17  N   UNL d   1       7.453  -0.934  -2.471  0.00  0.00    -0.034 N 
ATOM     18  H   UNL d   1       5.330   1.639  -5.315  0.00  0.00     0.169 HD
ATOM     19  H   UNL d   1       7.443  -0.116  -1.848  0.00  0.00     0.283 HD
ENDROOT
BRANCH  11  20
ATOM     20  C   UNL d   1       6.365  -2.773  -5.159  0.00  0.00     0.169 C 
ATOM     21  O   UNL d   1       7.267  -3.587  -5.321  0.00  0.00    -0.292 OA
BRANCH  20  22
ATOM     22  C   UNL d   1       5.627  -2.260  -6.377  0.00  0.00     0.028 C 
ATOM     23  C   UNL d   1       5.707  -0.960  -6.870  0.00  0.00     0.018 C 
ATOM     24  C   UNL d   1       4.867  -0.428  -7.828  0.00  0.00     0.020 C 
ATOM     25  C   UNL d   1       4.003  -1.300  -8.413  0.00  0.00     0.116 C 
ATOM     26  N   UNL d   1       4.029  -2.628  -8.146  0.00  0.00    -0.272 NA
ATOM     27  C   UNL d   1       4.868  -3.089  -7.169  0.00  0.00     0.131 C 
ENDBRANCH  20  22
ENDBRANCH  11  20
BRANCH  12  28
ATOM     28  C   UNL d   1       5.725  -4.072  -1.691  0.00  0.00    -0.049 C 
ATOM     29  C   UNL d   1       4.983  -5.105  -2.274  0.00  0.00     0.007 C 
ATOM     30  C   UNL d   1       4.109  -5.883  -1.502  0.00  0.00     0.003 C 
ATOM     31  C   UNL d   1       3.866  -5.569  -0.163  0.00  0.00     0.036 C 
ATOM     32  C   UNL d   1       4.616  -4.566   0.436  0.00  0.00     0.103 C 
ATOM     33  C   UNL d   1       5.607  -3.905  -0.296  0.00  0.00     0.043 C 
BRANCH  32  34
ATOM     34  N   UNL d   1       4.347  -4.130   1.814  0.00  0.00    -0.116 N 
ATOM     35  O   UNL d   1       3.427  -4.682   2.426  0.00  0.00    -0.532 OA
ATOM     36  O   UNL d   1       5.037  -3.196   2.255  0.00  0.00    -0.532 OA
ENDBRANCH  32  34
ENDBRANCH  12  28
BRANCH   1  37
ATOM     37  O   UNL d   1       2.479  -0.008  -0.086  0.00  0.00    -0.356 OA
ATOM     38  C   UNL d   1       1.053   0.059  -0.107  0.00  0.00     0.210 C 
ENDBRANCH   1  37
TORSDOF 5
