REMARK  5 active torsions:
REMARK  status: ('A' for Active; 'I' for Inactive)
REMARK       I    between atoms: C_2  and  N_3 
REMARK       I    between atoms: C_2  and  N_12 
REMARK    1  A    between atoms: N_3  and  O_4 
REMARK    2  A    between atoms: O_4  and  C_5 
REMARK    3  A    between atoms: C_5  and  C_6 
REMARK    4  A    between atoms: N_12  and  C_13 
REMARK    5  A    between atoms: C_15  and  C_16 
ROOT
ATOM      1  O   UNL d   1       1.148  -0.001   0.050  0.00  0.00    -0.245 OA
ATOM      2  C   UNL d   1       2.380   0.062   0.025  0.00  0.00     0.340 C 
ATOM      3  N   UNL d   1       3.108   1.205  -0.106  0.00  0.00    -0.216 N 
ATOM      4  N   UNL d   1       3.113  -1.093   0.142  0.00  0.00    -0.336 N 
ATOM      5  H   UNL d   1       4.114   1.212  -0.148  0.00  0.00     0.199 HD
ATOM      6  H   UNL d   1       2.529  -1.912   0.277  0.00  0.00     0.164 HD
ENDROOT
BRANCH   3   7
ATOM      7  O   UNL d   1       2.402   2.416  -0.252  0.00  0.00    -0.272 OA
BRANCH   7   8
ATOM      8  C   UNL d   1       3.305   3.518  -0.407  0.00  0.00     0.240 C 
BRANCH   8   9
ATOM      9  C   UNL d   1       2.544   4.819  -0.542  0.00  0.00    -0.032 A 
ATOM     10  C   UNL d   1       3.227   6.045  -0.584  0.00  0.00     0.009 A 
ATOM     11  C   UNL d   1       2.518   7.250  -0.563  0.00  0.00     0.001 A 
ATOM     12  C   UNL d   1       1.124   7.244  -0.589  0.00  0.00     0.000 A 
ATOM     13  C   UNL d   1       0.437   6.035  -0.601  0.00  0.00     0.001 A 
ATOM     14  C   UNL d   1       1.142   4.834  -0.574  0.00  0.00     0.009 A 
ENDBRANCH   8   9
ENDBRANCH   7   8
ENDBRANCH   3   7
BRANCH   4  15
ATOM     15  C   UNL d   1       4.537  -1.225   0.253  0.00  0.00     0.095 A 
ATOM     16  C   UNL d   1       5.362  -1.651  -0.932  0.00  0.00     0.037 A 
ATOM     17  C   UNL d   1       5.164  -2.600   0.223  0.00  0.00     0.043 A 
BRANCH  17  18
ATOM     18  C   UNL d   1       6.323  -3.077   1.085  0.00  0.00    -0.049 A 
ATOM     19  C   UNL d   1       7.315  -2.278   1.684  0.00  0.00     0.008 A 
ATOM     20  C   UNL d   1       8.382  -2.851   2.407  0.00  0.00     0.004 A 
ATOM     21  C   UNL d   1       8.440  -4.228   2.615  0.00  0.00     0.042 A 
ATOM     22  C   UNL d   1       7.460  -5.026   2.057  0.00  0.00     0.116 A 
ATOM     23  F   UNL d   1       7.502  -6.354   2.226  0.00  0.00    -0.206 F 
ATOM     24  C   UNL d   1       6.434  -4.467   1.302  0.00  0.00     0.049 A 
ENDBRANCH  17  18
ENDBRANCH   4  15
TORSDOF 5
