@<TRIPOS>MOLECULE
*****
 60 62 0 0 0
SMALL
GASTEIGER

@<TRIPOS>ATOM
      1 C           2.2165    1.9099    0.0339 C.3     1  UNL1       -0.0397
      2 C           1.0517    0.9676   -0.0203 C.ar    1  UNL1       -0.0498
      3 C          -0.2967    1.3318    0.0033 C.ar    1  UNL1       -0.0541
      4 C          -1.3373    0.3463   -0.0161 C.ar    1  UNL1       -0.0287
      5 C          -2.7629    0.8466    0.0017 C.3     1  UNL1       -0.0379
      6 C          -1.0183   -1.0466   -0.0381 C.ar    1  UNL1        0.0394
      7 N          -2.0823   -2.0463   -0.0119 N.am    1  UNL1       -0.2822
      8 C          -2.0004   -3.4315   -0.2428 C.2     1  UNL1        0.2549
      9 O          -1.0491   -4.0325   -0.7462 O.2     1  UNL1       -0.2717
     10 C          -3.2344   -4.2807    0.0608 C.3     1  UNL1        0.1655
     11 O          -2.7100   -5.6070    0.2881 O.3     1  UNL1       -0.4828
     12 C          -3.4938   -6.6942    0.0668 C.ar    1  UNL1        0.1212
     13 C          -3.1561   -7.8476    0.7875 C.ar    1  UNL1       -0.0193
     14 C          -3.9093   -9.0254    0.6513 C.ar    1  UNL1       -0.0496
     15 C          -5.0376   -9.0290   -0.1770 C.ar    1  UNL1       -0.0052
     16 C          -5.9806  -10.1883   -0.2059 C.2     1  UNL1        0.0528
     17 N          -7.0607  -10.1379   -0.9279 N.2     1  UNL1       -0.1873
     18 N          -7.9311  -11.2006   -0.9100 N.am    1  UNL1       -0.1992
     19 C          -9.0876  -11.1609   -1.7147 C.2     1  UNL1        0.3184
     20 O          -9.4599  -10.2519   -2.4288 O.2     1  UNL1       -0.2634
     21 C          -9.9281  -12.4640   -1.6481 C.2     1  UNL1        0.3048
     22 O          -9.4704  -13.4060   -1.0222 O.2     1  UNL1       -0.2648
     23 N         -11.1160  -12.4570   -2.3952 N.am    1  UNL1       -0.2764
     24 C         -12.0832  -13.5059   -2.3593 C.ar    1  UNL1        0.0522
     25 C         -12.7058  -13.9080   -3.5593 C.ar    1  UNL1       -0.0390
     26 C         -13.7082  -14.8974   -3.5603 C.ar    1  UNL1       -0.0599
     27 C         -14.0786  -15.5230   -2.3737 C.ar    1  UNL1       -0.0603
     28 C         -13.4862  -15.1248   -1.1799 C.ar    1  UNL1       -0.0416
     29 C         -12.5097  -14.1186   -1.1635 C.ar    1  UNL1        0.0621
     30 CL        -12.0330  -13.5755    0.4116 Cl      1  UNL1       -0.0816
     31 C          -5.3221   -7.8952   -0.9471 C.ar    1  UNL1       -0.0496
     32 C          -4.5416   -6.7414   -0.8404 C.ar    1  UNL1       -0.0193
     33 C           0.3584   -1.3657    0.0011 C.ar    1  UNL1       -0.0287
     34 C           0.9009   -2.7387    0.1858 C.3     1  UNL1       -0.0379
     35 C           1.3565   -0.3805   -0.0416 C.ar    1  UNL1       -0.0541
     36 H           1.9198    2.9593    0.0136 H       1  UNL1        0.0278
     37 H           2.8817    1.7183   -0.8177 H       1  UNL1        0.0278
     38 H           2.7903    1.7249    0.9517 H       1  UNL1        0.0278
     39 H          -0.5460    2.3932    0.0419 H       1  UNL1        0.0623
     40 H          -2.8225    1.9428    0.0119 H       1  UNL1        0.0278
     41 H          -3.2813    0.4895    0.8973 H       1  UNL1        0.0278
     42 H          -3.2928    0.5042   -0.8922 H       1  UNL1        0.0278
     43 H          -3.0175   -1.6710    0.0695 H       1  UNL1        0.1549
     44 H          -3.8538   -4.1949   -0.8354 H       1  UNL1        0.0795
     45 H          -3.7690   -3.9753    0.9628 H       1  UNL1        0.0795
     46 H          -2.3117   -7.8157    1.4767 H       1  UNL1        0.0654
     47 H          -3.6071   -9.9089    1.2072 H       1  UNL1        0.0625
     48 H          -5.7250  -11.0528    0.4329 H       1  UNL1        0.0851
     49 H          -7.7414  -12.0280   -0.3492 H       1  UNL1        0.1777
     50 H         -11.2298  -11.7103   -3.0761 H       1  UNL1        0.1553
     51 H         -12.3916  -13.5092   -4.5222 H       1  UNL1        0.0637
     52 H         -14.2039  -15.1879   -4.4863 H       1  UNL1        0.0618
     53 H         -14.8323  -16.3079   -2.3682 H       1  UNL1        0.0618
     54 H         -13.8120  -15.5763   -0.2460 H       1  UNL1        0.0633
     55 H          -6.1642   -7.8935   -1.6349 H       1  UNL1        0.0625
     56 H          -4.7751   -5.9025   -1.4836 H       1  UNL1        0.0654
     57 H           0.1334   -3.2923    0.6969 H       1  UNL1        0.0278
     58 H           1.6889   -2.8199    0.9345 H       1  UNL1        0.0278
     59 H           1.2258   -3.1571   -0.7746 H       1  UNL1        0.0278
     60 H           2.4025   -0.6889   -0.0318 H       1  UNL1        0.0623
@<TRIPOS>BOND
     1     1     2    1
     2     2     3   ar
     3     3     4   ar
     4     4     5    1
     5     4     6   ar
     6     6     7    1
     7     7     8   am
     8     8     9    2
     9     8    10    1
    10    10    11    1
    11    11    12    1
    12    12    13   ar
    13    13    14   ar
    14    14    15   ar
    15    15    16    1
    16    16    17    2
    17    17    18    1
    18    18    19   am
    19    19    20    2
    20    19    21    1
    21    21    22    2
    22    21    23   am
    23    23    24    1
    24    24    25   ar
    25    25    26   ar
    26    26    27   ar
    27    27    28   ar
    28    28    29   ar
    29    24    29   ar
    30    29    30    1
    31    15    31   ar
    32    31    32   ar
    33    12    32   ar
    34     6    33   ar
    35    33    34    1
    36    33    35   ar
    37     2    35   ar
    38     1    36    1
    39     1    37    1
    40     1    38    1
    41     3    39    1
    42     5    40    1
    43     5    41    1
    44     5    42    1
    45     7    43    1
    46    10    44    1
    47    10    45    1
    48    13    46    1
    49    14    47    1
    50    16    48    1
    51    18    49    1
    52    23    50    1
    53    25    51    1
    54    26    52    1
    55    27    53    1
    56    28    54    1
    57    31    55    1
    58    32    56    1
    59    34    57    1
    60    34    58    1
    61    34    59    1
    62    35    60    1
