@<TRIPOS>MOLECULE
*****
 52 53 0 0 0
SMALL
GASTEIGER

@<TRIPOS>ATOM
      1 C           1.1053    0.0583   -0.0374 C.3     1  UNL1        0.0788
      2 O           2.5255   -0.0000   -0.1468 O.3     1  UNL1       -0.4951
      3 C           3.1476    1.2078   -0.2994 C.ar    1  UNL1        0.1201
      4 C           4.3066    1.2249   -1.0784 C.ar    1  UNL1       -0.0197
      5 C           5.0603    2.3992   -1.2126 C.ar    1  UNL1       -0.0551
      6 C           4.6252    3.5906   -0.6180 C.ar    1  UNL1       -0.0457
      7 C           5.3628    4.8882   -0.8849 C.3     1  UNL1       -0.0121
      8 C           4.7086    6.1008   -0.2131 C.3     1  UNL1        0.0156
      9 N           5.3733    7.3571   -0.4377 N.am    1  UNL1       -0.3135
     10 C           4.8477    8.5186    0.1145 C.2     1  UNL1        0.2330
     11 O           3.8488    8.5119    0.8369 O.2     1  UNL1       -0.2738
     12 C           5.6114    9.8148   -0.2427 C.3     1  UNL1        0.0944
     13 C           5.6142    9.9209   -1.7651 C.3     1  UNL1       -0.0381
     14 N           5.0335   10.9663    0.4993 N.pl3   1  UNL1       -0.3331
     15 C           5.3881   12.2925    0.3650 C.ar    1  UNL1        0.0294
     16 C           5.4534   13.1700    1.4374 C.ar    1  UNL1       -0.0407
     17 C           5.7923   14.5226    1.2297 C.ar    1  UNL1       -0.0583
     18 C           6.1530   15.0012   -0.0485 C.ar    1  UNL1       -0.0404
     19 C           6.0934   14.1404   -1.1386 C.ar    1  UNL1        0.0352
     20 N           6.3849   14.5460   -2.4790 N.am    1  UNL1       -0.2836
     21 C           6.3549   13.7012   -3.5943 C.2     1  UNL1        0.2427
     22 O           6.1345   12.4829   -3.5998 O.2     1  UNL1       -0.2730
     23 C           6.6726   14.3269   -4.9457 C.3     1  UNL1        0.1205
     24 O           6.6193   13.3465   -5.9884 O.3     1  UNL1       -0.3858
     25 C           5.6677   12.8421   -0.8789 C.ar    1  UNL1       -0.0196
     26 C           3.4734    3.5451    0.1809 C.ar    1  UNL1       -0.0551
     27 C           2.7459    2.3702    0.3436 C.ar    1  UNL1       -0.0197
     28 H           0.7477   -0.9479    0.1990 H       1  UNL1        0.0660
     29 H           0.6730    0.3628   -0.9953 H       1  UNL1        0.0660
     30 H           0.7514    0.7096    0.7674 H       1  UNL1        0.0660
     31 H           4.6190    0.3220   -1.5972 H       1  UNL1        0.0654
     32 H           5.9830    2.3730   -1.7889 H       1  UNL1        0.0621
     33 H           5.3819    5.0524   -1.9712 H       1  UNL1        0.0328
     34 H           6.4047    4.7960   -0.5543 H       1  UNL1        0.0328
     35 H           4.6809    5.9602    0.8732 H       1  UNL1        0.0465
     36 H           3.6757    6.2153   -0.5677 H       1  UNL1        0.0465
     37 H           6.1736    7.3921   -1.0553 H       1  UNL1        0.1487
     38 H           6.6403    9.6862    0.1114 H       1  UNL1        0.0591
     39 H           4.6183   10.1650   -2.1543 H       1  UNL1        0.0252
     40 H           5.9447    9.0085   -2.2665 H       1  UNL1        0.0252
     41 H           6.3527   10.6485   -2.0964 H       1  UNL1        0.0252
     42 H           4.1852   10.7545    1.0251 H       1  UNL1        0.1468
     43 H           5.2414   12.8140    2.4432 H       1  UNL1        0.0636
     44 H           5.7607   15.2060    2.0767 H       1  UNL1        0.0619
     45 H           6.4413   16.0427   -0.1545 H       1  UNL1        0.0636
     46 H           6.6352   15.5184   -2.6136 H       1  UNL1        0.1549
     47 H           7.6860   14.7266   -4.9343 H       1  UNL1        0.0654
     48 H           5.9378   15.0986   -5.1789 H       1  UNL1        0.0654
     49 H           6.9816   12.5209   -5.6045 H       1  UNL1        0.2100
     50 H           5.4198   12.2336   -1.7167 H       1  UNL1        0.0655
     51 H           3.1026    4.4204    0.7072 H       1  UNL1        0.0621
     52 H           1.8817    2.4054    0.9956 H       1  UNL1        0.0654
@<TRIPOS>BOND
     1     1     2    1
     2     2     3    1
     3     3     4   ar
     4     4     5   ar
     5     5     6   ar
     6     6     7    1
     7     7     8    1
     8     8     9    1
     9     9    10   am
    10    10    11    2
    11    10    12    1
    12    12    13    1
    13    12    14    1
    14    14    15    1
    15    15    16   ar
    16    16    17   ar
    17    17    18   ar
    18    18    19   ar
    19    19    20    1
    20    20    21   am
    21    21    22    2
    22    21    23    1
    23    23    24    1
    24    19    25   ar
    25    15    25   ar
    26     6    26   ar
    27    26    27   ar
    28     3    27   ar
    29     1    28    1
    30     1    29    1
    31     1    30    1
    32     4    31    1
    33     5    32    1
    34     7    33    1
    35     7    34    1
    36     8    35    1
    37     8    36    1
    38     9    37    1
    39    12    38    1
    40    13    39    1
    41    13    40    1
    42    13    41    1
    43    14    42    1
    44    16    43    1
    45    17    44    1
    46    18    45    1
    47    20    46    1
    48    23    47    1
    49    23    48    1
    50    24    49    1
    51    25    50    1
    52    26    51    1
    53    27    52    1
