REMARK  6 active torsions:
REMARK  status: ('A' for Active; 'I' for Inactive)
REMARK    1  A    between atoms: C_5  and  O_6 
REMARK    2  A    between atoms: C_7  and  C_8 
REMARK       I    between atoms: C_8  and  N_10 
REMARK    3  A    between atoms: N_10  and  C_11 
REMARK    4  A    between atoms: C_11  and  C_12 
REMARK    5  A    between atoms: C_12  and  O_13 
REMARK    6  A    between atoms: C_12  and  C_14 
ROOT
ATOM      1  C   UNL d   1      -1.317  -2.594  -0.119  0.00  0.00     0.254 C 
ATOM      2  O   UNL d   1      -2.545  -2.678  -0.114  0.00  0.00    -0.268 OA
ATOM      3  N   UNL d   1      -0.545  -3.745  -0.203  0.00  0.00    -0.354 N 
ATOM      4  H   UNL d   1       0.456  -3.747  -0.087  0.00  0.00     0.162 HD
ENDROOT
BRANCH   3   5
ATOM      5  C   UNL d   1      -1.193  -5.035  -0.219  0.00  0.00     0.155 C 
BRANCH   5   6
ATOM      6  C   UNL d   1      -0.204  -6.221  -0.231  0.00  0.00     0.140 C 
BRANCH   6   7
ATOM      7  O   UNL d   1       0.668  -6.139   0.904  0.00  0.00    -0.394 OA
ATOM      8  H   UNL d   1       0.118  -6.153   1.707  0.00  0.00     0.210 HD
ENDBRANCH   6   7
BRANCH   6   9
ATOM      9  C   UNL d   1      -0.972  -7.564  -0.243  0.00  0.00     0.016 C 
ATOM     10  C   UNL d   1      -0.056  -8.801  -0.331  0.00  0.00     0.007 C 
ATOM     11  C   UNL d   1      -0.873 -10.100  -0.282  0.00  0.00     0.000 C 
ATOM     12  C   UNL d   1      -1.765 -10.164   0.955  0.00  0.00     0.000 C 
ATOM     13  C   UNL d   1      -2.685  -8.958   1.019  0.00  0.00     0.000 C 
ATOM     14  C   UNL d   1      -1.882  -7.676   0.995  0.00  0.00     0.007 C 
ENDBRANCH   6   9
ENDBRANCH   5   6
ENDBRANCH   3   5
BRANCH   1  15
ATOM     15  C   UNL d   1      -0.604  -1.271  -0.048  0.00  0.00     0.065 A 
ATOM     16  C   UNL d   1      -1.315  -0.057  -0.021  0.00  0.00     0.081 A 
ATOM     17  C   UNL d   1      -0.641   1.170  -0.034  0.00  0.00     0.038 A 
ATOM     18  C   UNL d   1       0.752   1.206  -0.030  0.00  0.00     0.009 A 
ATOM     19  C   UNL d   1       1.484   0.018  -0.003  0.00  0.00    -0.061 A 
ATOM     20  C   UNL d   1       2.982   0.033   0.069  0.00  0.00     0.048 C 
ATOM     21  C   UNL d   1       0.802  -1.208  -0.028  0.00  0.00     0.026 A 
BRANCH  16  22
ATOM     22  O   UNL d   1      -2.682  -0.035   0.023  0.00  0.00    -0.360 OA
ATOM     23  H   UNL d   1      -3.008   0.876   0.081  0.00  0.00     0.217 HD
ENDBRANCH  16  22
ENDBRANCH   1  15
TORSDOF 6
