REMARK  14 active torsions:
REMARK  status: ('A' for Active; 'I' for Inactive)
REMARK    1  A    between atoms: C_2  and  O_3 
REMARK    2  A    between atoms: O_3  and  C_4 
REMARK    3  A    between atoms: C_6  and  C_7 
REMARK       I    between atoms: C_7  and  N_9 
REMARK    4  A    between atoms: N_9  and  C_10 
REMARK    5  A    between atoms: C_12  and  C_13 
REMARK    6  A    between atoms: C_13  and  O_15 
REMARK    7  A    between atoms: O_15  and  C_16 
REMARK    8  A    between atoms: C_21  and  C_22 
REMARK    9  A    between atoms: C_22  and  O_24 
REMARK   10  A    between atoms: O_24  and  C_25 
REMARK   11  A    between atoms: C_29  and  O_30 
REMARK   12  A    between atoms: O_30  and  C_31 
REMARK   13  A    between atoms: C_33  and  O_34 
REMARK   14  A    between atoms: O_34  and  C_35 
ROOT
ATOM      1  C   UNL d   1       6.749  -3.294  -3.038  0.00  0.00     0.256 C 
ATOM      2  O   UNL d   1       5.935  -3.592  -3.910  0.00  0.00    -0.267 OA
ATOM      3  N   UNL d   1       8.053  -3.816  -2.964  0.00  0.00    -0.316 N 
ATOM      4  H   UNL d   1       8.524  -3.798  -2.065  0.00  0.00     0.169 HD
ENDROOT
BRANCH   3   5
ATOM      5  C   UNL d   1       8.611  -4.720  -3.893  0.00  0.00     0.094 A 
ATOM      6  S   UNL d   1       8.316  -4.508  -5.558  0.00  0.00    -0.065 SA
ATOM      7  C   UNL d   1       9.390  -5.772  -6.043  0.00  0.00     0.089 A 
ATOM      8  C   UNL d   1       9.952  -6.384  -4.925  0.00  0.00    -0.020 A 
ATOM      9  C   UNL d   1      10.911  -7.537  -4.960  0.00  0.00     0.051 C 
ATOM     10  C   UNL d   1       9.508  -5.766  -3.661  0.00  0.00     0.080 A 
BRANCH   7  11
ATOM     11  C   UNL d   1       9.550  -6.019  -7.496  0.00  0.00     0.301 C 
ATOM     12  O   UNL d   1       8.965  -5.436  -8.383  0.00  0.00    -0.259 OA
BRANCH  11  13
ATOM     13  O   UNL d   1      10.481  -7.010  -7.736  0.00  0.00    -0.312 OA
BRANCH  13  14
ATOM     14  C   UNL d   1      10.777  -7.393  -9.104  0.00  0.00     0.124 C 
ATOM     15  C   UNL d   1      11.442  -6.246  -9.853  0.00  0.00     0.040 C 
ATOM     16  C   UNL d   1      11.749  -8.587  -9.107  0.00  0.00     0.040 C 
ENDBRANCH  13  14
ENDBRANCH  11  13
ENDBRANCH   7  11
BRANCH  10  17
ATOM     17  C   UNL d   1       9.901  -6.179  -2.294  0.00  0.00     0.297 C 
ATOM     18  O   UNL d   1       9.536  -5.572  -1.299  0.00  0.00    -0.259 OA
BRANCH  17  19
ATOM     19  O   UNL d   1      10.708  -7.293  -2.258  0.00  0.00    -0.313 OA
BRANCH  19  20
ATOM     20  C   UNL d   1      11.145  -7.781  -0.968  0.00  0.00     0.124 C 
ATOM     21  C   UNL d   1       9.963  -8.311  -0.165  0.00  0.00     0.040 C 
ATOM     22  C   UNL d   1      12.143  -8.930  -1.173  0.00  0.00     0.040 C 
ENDBRANCH  19  20
ENDBRANCH  17  19
ENDBRANCH  10  17
ENDBRANCH   3   5
BRANCH   1  23
ATOM     23  C   UNL d   1       6.248  -2.402  -1.898  0.00  0.00     0.037 A 
ATOM     24  C   UNL d   1       4.886  -1.977  -1.889  0.00  0.00     0.057 A 
ATOM     25  C   UNL d   1       4.276  -1.330  -0.774  0.00  0.00     0.105 A 
ATOM     26  C   UNL d   1       5.095  -1.091   0.360  0.00  0.00     0.135 A 
ATOM     27  C   UNL d   1       6.481  -1.429   0.324  0.00  0.00     0.105 A 
ATOM     28  C   UNL d   1       7.045  -2.056  -0.803  0.00  0.00     0.057 A 
BRANCH  25  29
ATOM     29  O   UNL d   1       2.883  -1.260  -0.863  0.00  0.00    -0.349 OA
BRANCH  29  30
ATOM     30  C   UNL d   1       2.205  -0.016  -0.656  0.00  0.00     0.171 C 
ATOM     31  C   UNL d   1       0.702  -0.044  -0.463  0.00  0.00     0.034 C 
ENDBRANCH  29  30
ENDBRANCH  25  29
BRANCH  26  32
ATOM     32  O   UNL d   1       4.738  -0.647   1.609  0.00  0.00    -0.346 OA
BRANCH  32  33
ATOM     33  C   UNL d   1       3.526  -0.034   1.777  0.00  0.00     0.171 C 
ATOM     34  C   UNL d   1       3.084   0.646   3.034  0.00  0.00     0.034 C 
ENDBRANCH  32  33
ENDBRANCH  26  32
BRANCH  27  35
ATOM     35  O   UNL d   1       7.383  -1.251   1.375  0.00  0.00    -0.349 OA
BRANCH  35  36
ATOM     36  C   UNL d   1       6.863  -0.689   2.589  0.00  0.00     0.171 C 
ATOM     37  C   UNL d   1       7.888  -0.559   3.676  0.00  0.00     0.034 C 
ENDBRANCH  35  36
ENDBRANCH  27  35
ENDBRANCH   1  23
TORSDOF 14
