REMARK  3 active torsions:
REMARK  status: ('A' for Active; 'I' for Inactive)
REMARK       I    between atoms: C_2  and  N_3 
REMARK    1  A    between atoms: C_2  and  C_16 
REMARK    2  A    between atoms: N_3  and  N_4 
REMARK       I    between atoms: N_4  and  C_5 
REMARK    3  A    between atoms: C_7  and  C_5 
ROOT
ATOM      1  N   UNL d   1       3.019   3.271   4.882  0.00  0.00    -0.265 N 
ATOM      2  C   UNL d   1       2.643   4.433   4.220  0.00  0.00     0.266 C 
ATOM      3  O   UNL d   1       2.608   5.502   4.841  0.00  0.00    -0.269 OA
ATOM      4  H   UNL d   1       3.123   2.354   4.448  0.00  0.00     0.190 HD
ENDROOT
BRANCH   1   5
ATOM      5  N   UNL d   1       3.349   3.361   6.283  0.00  0.00    -0.262 N 
ATOM      6  C   UNL d   1       3.833   2.253   6.968  0.00  0.00     0.286 C 
ATOM      7  O   UNL d   1       3.987   1.170   6.386  0.00  0.00    -0.264 OA
ATOM      8  H   UNL d   1       3.383   4.304   6.670  0.00  0.00     0.190 HD
BRANCH   6   9
ATOM      9  C   UNL d   1       4.146   2.435   8.383  0.00  0.00     0.102 A 
ATOM     10  C   UNL d   1       5.206   1.904   9.114  0.00  0.00     0.036 A 
ATOM     11  C   UNL d   1       5.046   2.255  10.480  0.00  0.00     0.019 A 
ATOM     12  C   UNL d   1       3.881   2.977  10.570  0.00  0.00     0.088 A 
ATOM     13  N   UNL d   1       3.352   3.094   9.306  0.00  0.00    -0.361 N 
ATOM     14  H   UNL d   1       2.461   3.523   9.102  0.00  0.00     0.165 HD
ENDBRANCH   6   9
ENDBRANCH   1   5
BRANCH   2  15
ATOM     15  C   UNL d   1       2.346   4.344   2.683  0.00  0.00     0.226 C 
ATOM     16  C   UNL d   1       2.524   5.745   2.051  0.00  0.00     0.083 C 
ATOM     17  C   UNL d   1       1.562   5.662   0.931  0.00  0.00    -0.022 A 
ATOM     18  C   UNL d   1       1.381   6.528  -0.141  0.00  0.00     0.010 A 
ATOM     19  C   UNL d   1       0.751   4.556   1.116  0.00  0.00     0.076 A 
ATOM     20  C   UNL d   1       0.394   6.224  -1.080  0.00  0.00     0.001 A 
ATOM     21  C   UNL d   1      -0.407   5.083  -0.916  0.00  0.00     0.003 A 
ATOM     22  C   UNL d   1      -0.244   4.249   0.203  0.00  0.00     0.037 A 
ATOM     23  O   UNL d   1       1.039   3.856   2.274  0.00  0.00    -0.336 OA
ENDBRANCH   2  15
TORSDOF 3
