REMARK  8 active torsions:
REMARK  status: ('A' for Active; 'I' for Inactive)
REMARK    1  A    between atoms: C_2  and  C_3 
REMARK    2  A    between atoms: C_6  and  N_7 
REMARK       I    between atoms: N_7  and  C_8 
REMARK    3  A    between atoms: C_8  and  C_10 
REMARK    4  A    between atoms: N_20  and  N_21 
REMARK    5  A    between atoms: N_21  and  S_22 
REMARK    6  A    between atoms: S_22  and  C_25 
REMARK    7  A    between atoms: C_27  and  O_28 
REMARK    8  A    between atoms: C_32  and  O_33 
ROOT
ATOM      1  C   UNL d   1       3.633   5.935  -5.322  0.00  0.00     0.085 C 
ATOM      2  C   UNL d   1       3.318   7.248  -5.301  0.00  0.00     0.035 C 
ATOM      3  C   UNL d   1       3.611   8.099  -6.454  0.00  0.00    -0.001 C 
ATOM      4  C   UNL d   1       3.885   9.471  -6.351  0.00  0.00     0.014 C 
ATOM      5  C   UNL d   1       4.082  10.243  -7.503  0.00  0.00     0.001 C 
ATOM      6  C   UNL d   1       3.974   9.649  -8.762  0.00  0.00     0.003 C 
ATOM      7  C   UNL d   1       3.725   8.270  -8.873  0.00  0.00     0.038 C 
ATOM      8  C   UNL d   1       3.642   7.492  -7.710  0.00  0.00     0.088 C 
ATOM      9  O   UNL d   1       3.842   6.067  -7.775  0.00  0.00    -0.291 OA
ATOM     10  C   UNL d   1       4.155   5.418  -6.577  0.00  0.00     0.179 C 
ATOM     11  N   UNL d   1       4.881   4.353  -6.618  0.00  0.00    -0.269 N 
ATOM     12  H   UNL d   1       5.261   4.043  -5.718  0.00  0.00     0.190 HD
ENDROOT
BRANCH   1  13
ATOM     13  C   UNL d   1       3.366   5.083  -4.107  0.00  0.00     0.260 C 
ATOM     14  N   UNL d   1       3.886   3.771  -4.037  0.00  0.00    -0.323 N 
ATOM     15  H   UNL d   1       4.309   3.200  -4.739  0.00  0.00     0.169 HD
ATOM     16  O   UNL d   1       2.684   5.619  -3.239  0.00  0.00    -0.267 OA
BRANCH  14  17
ATOM     17  C   UNL d   1       3.648   2.861  -2.982  0.00  0.00     0.035 A 
ATOM     18  C   UNL d   1       4.153   1.543  -3.079  0.00  0.00     0.030 A 
ATOM     19  C   UNL d   1       3.754   0.576  -2.151  0.00  0.00     0.009 A 
ATOM     20  C   UNL d   1       2.931   0.955  -1.090  0.00  0.00    -0.058 A 
ATOM     21  C   UNL d   1       2.519   2.283  -0.973  0.00  0.00     0.009 A 
ATOM     22  C   UNL d   1       2.864   3.219  -1.910  0.00  0.00     0.030 A 
BRANCH  20  23
ATOM     23  C   UNL d   1       2.451   0.012  -0.028  0.00  0.00     0.034 C 
ATOM     24  C   UNL d   1       0.927  -0.002   0.004  0.00  0.00     0.010 C 
ENDBRANCH  20  23
ENDBRANCH  14  17
ENDBRANCH   1  13
BRANCH  11  25
ATOM     25  N   UNL d   1       5.231   3.579  -7.783  0.00  0.00    -0.221 N 
ATOM     26  H   UNL d   1       5.078   4.065  -8.665  0.00  0.00     0.200 HD
BRANCH  25  27
ATOM     27  S   UNL d   1       6.303   2.200  -7.601  0.00  0.00     0.279 S 
ATOM     28  O   UNL d   1       7.053   2.427  -6.392  0.00  0.00    -0.199 OA
ATOM     29  O   UNL d   1       5.377   1.072  -7.648  0.00  0.00    -0.199 OA
BRANCH  27  30
ATOM     30  C   UNL d   1       7.487   2.048  -9.023  0.00  0.00     0.117 C 
ATOM     31  C   UNL d   1       7.733   0.737  -9.521  0.00  0.00     0.065 C 
ATOM     32  C   UNL d   1       8.677   0.512 -10.559  0.00  0.00     0.069 C 
ATOM     33  C   UNL d   1       9.247   1.592 -11.219  0.00  0.00     0.039 C 
ATOM     34  C   UNL d   1       9.052   2.863 -10.733  0.00  0.00     0.041 C 
ATOM     35  C   UNL d   1       8.271   3.092  -9.596  0.00  0.00     0.091 C 
BRANCH  32  36
ATOM     36  O   UNL d   1       9.027  -0.784 -10.857  0.00  0.00    -0.356 OA
ATOM     37  C   UNL d   1      10.129  -0.931 -11.775  0.00  0.00     0.210 C 
ENDBRANCH  32  36
BRANCH  35  38
ATOM     38  O   UNL d   1       8.498   4.403  -9.236  0.00  0.00    -0.354 OA
ATOM     39  C   UNL d   1       7.500   4.854  -8.404  0.00  0.00     0.210 C 
ENDBRANCH  35  38
ENDBRANCH  27  30
ENDBRANCH  25  27
ENDBRANCH  11  25
TORSDOF 8
