@<TRIPOS>MOLECULE
*****
 50 54 0 0 0
SMALL
GASTEIGER

@<TRIPOS>ATOM
      1 O           3.2258   -0.6843    0.0579 O.2     1  UNL1       -0.2717
      2 C           2.0739   -0.2662   -0.0173 C.2     1  UNL1        0.2549
      3 C           1.7230    1.1961   -0.2788 C.3     1  UNL1        0.1656
      4 O           0.4485    1.6826    0.1021 O.3     1  UNL1       -0.4809
      5 C          -0.5407    0.7448    0.0413 C.ar    1  UNL1        0.1424
      6 C          -1.8405    1.2298    0.0522 C.ar    1  UNL1       -0.0162
      7 C          -2.8999    0.3326    0.1530 C.ar    1  UNL1       -0.0315
      8 C          -2.6528   -1.0466    0.2903 C.ar    1  UNL1        0.1105
      9 S          -4.0678   -2.1082    0.5579 S.O2    1  UNL1        0.0724
     10 O          -4.3078   -2.2531    1.9864 O.2     1  UNL1       -0.1500
     11 O          -5.0767   -1.5080   -0.2294 O.2     1  UNL1       -0.1500
     12 N          -3.5850   -3.6147   -0.1103 N.pl3   1  UNL1       -0.2155
     13 C          -4.4909   -4.7436   -0.2002 C.ar    1  UNL1        0.0601
     14 C          -4.2088   -5.9190    0.5409 C.ar    1  UNL1       -0.0386
     15 C          -4.9587   -7.0989    0.3583 C.ar    1  UNL1       -0.0599
     16 C          -6.0545   -7.0976   -0.4918 C.ar    1  UNL1       -0.0609
     17 C          -6.3362   -5.9515   -1.2272 C.ar    1  UNL1       -0.0478
     18 C          -5.5465   -4.7863   -1.1239 C.ar    1  UNL1        0.0593
     19 C          -5.8972   -3.7154   -2.0978 C.2     1  UNL1        0.2501
     20 O          -7.0331   -3.7119   -2.5704 O.2     1  UNL1       -0.2698
     21 N          -4.9087   -2.8111   -2.4585 N.am    1  UNL1       -0.2813
     22 C          -5.2240   -1.4804   -2.8226 C.ar    1  UNL1        0.0374
     23 C          -4.2681   -0.6015   -3.3120 C.ar    1  UNL1       -0.0368
     24 C          -4.7379    0.6323   -3.8119 C.ar    1  UNL1       -0.0144
     25 C          -6.0385    1.0023   -3.4689 C.ar    1  UNL1        0.1663
     26 C          -6.5243    0.4501   -2.3464 C.ar    1  UNL1        0.1680
     27 C          -6.4010   -0.9123   -2.3443 C.ar    1  UNL1        0.0051
     28 O          -7.6551    1.0936   -1.9193 O.3     1  UNL1       -0.4525
     29 C          -8.2586    0.9965   -3.1970 C.3     1  UNL1        0.2332
     30 O          -7.1983    1.3183   -4.2052 O.3     1  UNL1       -0.4526
     31 C          -1.3612   -1.5401    0.1142 C.ar    1  UNL1       -0.0102
     32 C          -0.3042   -0.6345    0.0405 C.ar    1  UNL1        0.0776
     33 N           1.0039   -1.1161    0.0471 N.am    1  UNL1       -0.2797
     34 H           1.8337    1.3733   -1.3540 H       1  UNL1        0.0795
     35 H           2.4631    1.8064    0.2479 H       1  UNL1        0.0795
     36 H          -2.0279    2.3009    0.0182 H       1  UNL1        0.0655
     37 H          -3.9166    0.7238    0.1247 H       1  UNL1        0.0638
     38 H          -2.6135   -3.8831    0.0122 H       1  UNL1        0.1737
     39 H          -3.4010   -5.9613    1.2700 H       1  UNL1        0.0637
     40 H          -4.6962   -8.0258    0.8701 H       1  UNL1        0.0618
     41 H          -6.6851   -7.9784   -0.6012 H       1  UNL1        0.0618
     42 H          -7.1665   -5.9766   -1.9319 H       1  UNL1        0.0626
     43 H          -4.0353   -2.8839   -1.9558 H       1  UNL1        0.1551
     44 H          -3.2147   -0.8706   -3.2935 H       1  UNL1        0.0637
     45 H          -3.9920    1.3596   -4.1361 H       1  UNL1        0.0656
     46 H          -7.1748   -1.4763   -1.8447 H       1  UNL1        0.0674
     47 H          -9.1788    1.5892   -3.2754 H       1  UNL1        0.1166
     48 H          -8.6278   -0.0531   -3.2031 H       1  UNL1        0.1166
     49 H          -1.1462   -2.5964    0.0407 H       1  UNL1        0.0657
     50 H           1.2137   -2.0965    0.1790 H       1  UNL1        0.1550
@<TRIPOS>BOND
     1     1     2    2
     2     2     3    1
     3     3     4    1
     4     4     5    1
     5     5     6   ar
     6     6     7   ar
     7     7     8   ar
     8     8     9    1
     9     9    10    2
    10     9    11    2
    11     9    12    1
    12    12    13    1
    13    13    14   ar
    14    14    15   ar
    15    15    16   ar
    16    16    17   ar
    17    17    18   ar
    18    13    18   ar
    19    18    19    1
    20    19    20    2
    21    19    21   am
    22    21    22    1
    23    22    23   ar
    24    23    24   ar
    25    24    25   ar
    26    25    26   ar
    27    26    27   ar
    28    22    27   ar
    29    26    28    1
    30    28    29    1
    31    29    30    1
    32    25    30    1
    33     8    31   ar
    34    31    32   ar
    35     5    32   ar
    36    32    33    1
    37     2    33   am
    38     3    34    1
    39     3    35    1
    40     6    36    1
    41     7    37    1
    42    12    38    1
    43    14    39    1
    44    15    40    1
    45    16    41    1
    46    17    42    1
    47    21    43    1
    48    23    44    1
    49    24    45    1
    50    27    46    1
    51    29    47    1
    52    29    48    1
    53    31    49    1
    54    33    50    1
