@<TRIPOS>MOLECULE
*****
 44 46 0 0 0
SMALL
GASTEIGER

@<TRIPOS>ATOM
      1 C           2.6614    0.7677    0.0052 C.3     1  UNL1       -0.0379
      2 C           1.2519    0.2841   -0.0007 C.ar    1  UNL1       -0.0290
      3 C           1.1682   -1.1207    0.0047 C.ar    1  UNL1       -0.0571
      4 C          -0.0461   -1.7652   -0.0004 C.ar    1  UNL1       -0.0611
      5 C          -1.2011   -1.0010   -0.0029 C.ar    1  UNL1       -0.0571
      6 C          -1.1589    0.4220   -0.0050 C.ar    1  UNL1       -0.0290
      7 C          -2.5073    1.0997   -0.0055 C.3     1  UNL1       -0.0379
      8 C           0.0957    1.1094   -0.0113 C.ar    1  UNL1        0.0396
      9 N           0.1268    2.5721   -0.0370 N.am    1  UNL1       -0.2792
     10 C           1.2607    3.4144   -0.0540 C.2     1  UNL1        0.2787
     11 O           2.4434    3.1057   -0.0139 O.2     1  UNL1       -0.2673
     12 C           1.1738    4.9088   -0.1094 C.2     1  UNL1        0.2194
     13 C          -0.0602    5.6301   -0.0812 C.1     1  UNL1        0.1261
     14 N          -1.0813    6.1748   -0.0664 N.1     1  UNL1       -0.1891
     15 N           2.3120    5.5609   -0.1745 N.2     1  UNL1       -0.1662
     16 N           2.4128    6.9032   -0.1387 N.pl3   1  UNL1       -0.2364
     17 C           3.6822    7.5239   -0.1724 C.ar    1  UNL1        0.0489
     18 C           4.7374    7.0727   -0.9723 C.ar    1  UNL1       -0.0386
     19 C           5.9559    7.7737   -1.0208 C.ar    1  UNL1       -0.0522
     20 C           6.1647    8.9242   -0.2427 C.ar    1  UNL1       -0.0178
     21 C           7.3640    9.6602   -0.3110 C.ar    1  UNL1       -0.0540
     22 C           7.5567   10.7948    0.4794 C.ar    1  UNL1       -0.0612
     23 C           6.5551   11.2054    1.3523 C.ar    1  UNL1       -0.0612
     24 C           5.3593   10.4852    1.4308 C.ar    1  UNL1       -0.0540
     25 C           5.1401    9.3482    0.6288 C.ar    1  UNL1       -0.0161
     26 C           3.9220    8.6318    0.6581 C.ar    1  UNL1       -0.0314
     27 H           3.4314   -0.0020    0.0200 H       1  UNL1        0.0278
     28 H           2.8095    1.3211    0.9391 H       1  UNL1        0.0278
     29 H           2.8249    1.3022   -0.9371 H       1  UNL1        0.0278
     30 H           2.0844   -1.7092    0.0113 H       1  UNL1        0.0621
     31 H          -0.0773   -2.8503   -0.0013 H       1  UNL1        0.0618
     32 H          -2.1505   -1.5359   -0.0047 H       1  UNL1        0.0621
     33 H          -3.3265    0.3654    0.0208 H       1  UNL1        0.0278
     34 H          -2.6413    1.6872   -0.9169 H       1  UNL1        0.0278
     35 H          -2.6243    1.7287    0.8804 H       1  UNL1        0.0278
     36 H          -0.7897    3.0065   -0.0455 H       1  UNL1        0.1552
     37 H           1.6209    7.5253   -0.0165 H       1  UNL1        0.1744
     38 H           4.6074    6.2043   -1.6137 H       1  UNL1        0.0637
     39 H           6.7437    7.4204   -1.6839 H       1  UNL1        0.0624
     40 H           8.1576    9.3565   -0.9904 H       1  UNL1        0.0624
     41 H           8.4873   11.3538    0.4141 H       1  UNL1        0.0618
     42 H           6.7010   12.0891    1.9688 H       1  UNL1        0.0618
     43 H           4.5915   10.8265    2.1213 H       1  UNL1        0.0624
     44 H           3.1413    8.9437    1.3472 H       1  UNL1        0.0643
@<TRIPOS>BOND
     1     1     2    1
     2     2     3   ar
     3     3     4   ar
     4     4     5   ar
     5     5     6   ar
     6     6     7    1
     7     6     8   ar
     8     2     8   ar
     9     8     9    1
    10     9    10   am
    11    10    11    2
    12    10    12    1
    13    12    13    1
    14    13    14    3
    15    12    15    2
    16    15    16    1
    17    16    17    1
    18    17    18   ar
    19    18    19   ar
    20    19    20   ar
    21    20    21   ar
    22    21    22   ar
    23    22    23   ar
    24    23    24   ar
    25    24    25   ar
    26    20    25   ar
    27    25    26   ar
    28    17    26   ar
    29     1    27    1
    30     1    28    1
    31     1    29    1
    32     3    30    1
    33     4    31    1
    34     5    32    1
    35     7    33    1
    36     7    34    1
    37     7    35    1
    38     9    36    1
    39    16    37    1
    40    18    38    1
    41    19    39    1
    42    21    40    1
    43    22    41    1
    44    23    42    1
    45    24    43    1
    46    26    44    1
