REMARK  8 active torsions:
REMARK  status: ('A' for Active; 'I' for Inactive)
REMARK    1  A    between atoms: C_2  and  C_3 
REMARK    2  A    between atoms: C_3  and  N_4 
REMARK       I    between atoms: N_4  and  C_5 
REMARK    3  A    between atoms: C_5  and  C_7 
REMARK    4  A    between atoms: C_7  and  N_9 
REMARK       I    between atoms: N_9  and  C_10 
REMARK    5  A    between atoms: C_10  and  C_12 
REMARK    6  A    between atoms: C_16  and  C_17 
REMARK    7  A    between atoms: C_17  and  S_18 
REMARK    8  A    between atoms: S_18  and  C_19 
ROOT
ATOM      1  C   UNL d   1       9.133   4.857   3.016  0.00  0.00     0.081 A 
ATOM      2  S   UNL d   1      10.317   5.799   2.211  0.00  0.00    -0.063 SA
ATOM      3  C   UNL d   1      10.279   6.990   3.416  0.00  0.00     0.116 A 
ATOM      4  N   UNL d   1      11.018   8.121   3.303  0.00  0.00    -0.226 NA
ATOM      5  C   UNL d   1      10.894   8.941   4.300  0.00  0.00     0.117 A 
ATOM      6  N   UNL d   1      10.113   8.695   5.400  0.00  0.00    -0.310 N 
ATOM      7  C   UNL d   1       9.345   7.581   5.559  0.00  0.00     0.260 A 
ATOM      8  O   UNL d   1       8.646   7.430   6.563  0.00  0.00    -0.267 OA
ATOM      9  C   UNL d   1       9.433   6.651   4.454  0.00  0.00     0.075 A 
ATOM     10  C   UNL d   1       8.758   5.401   4.237  0.00  0.00    -0.021 A 
ATOM     11  C   UNL d   1       7.813   4.761   5.199  0.00  0.00     0.051 C 
ATOM     12  H   UNL d   1      10.095   9.377   6.148  0.00  0.00     0.170 HD
ENDROOT
BRANCH   1  13
ATOM     13  C   UNL d   1       8.724   3.628   2.366  0.00  0.00     0.259 C 
ATOM     14  N   UNL d   1       7.362   3.453   2.221  0.00  0.00    -0.344 N 
ATOM     15  H   UNL d   1       6.709   4.157   2.551  0.00  0.00     0.163 HD
ATOM     16  O   UNL d   1       9.529   2.810   1.928  0.00  0.00    -0.267 OA
BRANCH  14  17
ATOM     17  C   UNL d   1       6.807   2.329   1.459  0.00  0.00     0.172 C 
ATOM     18  C   UNL d   1       7.289   2.363   0.009  0.00  0.00     0.042 C 
BRANCH  17  19
ATOM     19  C   UNL d   1       5.255   2.368   1.505  0.00  0.00     0.240 C 
ATOM     20  N   UNL d   1       4.598   1.326   0.869  0.00  0.00    -0.359 N 
ATOM     21  H   UNL d   1       5.127   0.591   0.416  0.00  0.00     0.162 HD
ATOM     22  O   UNL d   1       4.650   3.275   2.079  0.00  0.00    -0.271 OA
BRANCH  20  23
ATOM     23  C   UNL d   1       3.145   1.273   0.827  0.00  0.00     0.122 C 
BRANCH  23  24
ATOM     24  C   UNL d   1       2.609   0.055   0.074  0.00  0.00     0.015 C 
ATOM     25  C   UNL d   1       1.086   0.040   0.064  0.00  0.00     0.006 C 
ENDBRANCH  23  24
ENDBRANCH  20  23
ENDBRANCH  17  19
ENDBRANCH  14  17
ENDBRANCH   1  13
BRANCH   5  26
ATOM     26  C   UNL d   1      11.690  10.218   4.314  0.00  0.00     0.158 C 
BRANCH  26  27
ATOM     27  S   UNL d   1      11.389  11.200   5.841  0.00  0.00    -0.122 SA
BRANCH  27  28
ATOM     28  C   UNL d   1      12.421  12.644   5.643  0.00  0.00     0.007 C 
ATOM     29  C   UNL d   1      11.852  13.871   6.028  0.00  0.00     0.025 C 
ATOM     30  C   UNL d   1      12.508  15.082   5.776  0.00  0.00    -0.061 C 
ATOM     31  C   UNL d   1      11.904  16.395   6.171  0.00  0.00     0.048 C 
ATOM     32  C   UNL d   1      13.772  15.054   5.192  0.00  0.00     0.007 C 
ATOM     33  C   UNL d   1      14.438  13.844   5.052  0.00  0.00     0.009 C 
ATOM     34  C   UNL d   1      13.756  12.631   5.208  0.00  0.00    -0.045 C 
ATOM     35  C   UNL d   1      14.480  11.386   4.807  0.00  0.00     0.049 C 
ENDBRANCH  27  28
ENDBRANCH  26  27
ENDBRANCH   5  26
TORSDOF 8
