@<TRIPOS>MOLECULE
*****
 49 51 0 0 0
SMALL
GASTEIGER

@<TRIPOS>ATOM
      1 C           0.8471   -0.5509    0.2595 C.3     1  UNL1        0.0789
      2 O           2.2652   -0.4176    0.2204 O.3     1  UNL1       -0.4933
      3 C           2.9391   -0.9984   -0.8181 C.ar    1  UNL1        0.1412
      4 C           4.0702   -1.7159   -0.3936 C.ar    1  UNL1       -0.0174
      5 C           4.8349   -2.4774   -1.2793 C.ar    1  UNL1       -0.0475
      6 C           4.4319   -2.5963   -2.6083 C.ar    1  UNL1        0.0192
      7 C           5.1589   -3.5050   -3.5101 C.ar    1  UNL1        0.1354
      8 C           5.9232   -3.2915   -4.6379 C.ar    1  UNL1       -0.0155
      9 C           6.3052   -4.5582   -5.1315 C.ar    1  UNL1       -0.0178
     10 C           5.7871   -5.5029   -4.2702 C.ar    1  UNL1        0.1310
     11 C           5.8351   -6.9956   -4.2970 C.3     1  UNL1        0.1019
     12 O           6.5424   -7.3993   -5.4770 O.3     1  UNL1       -0.3873
     13 O           5.1010   -4.8641   -3.2564 O.2     1  UNL1       -0.4574
     14 C           3.3572   -1.7675   -3.0612 C.ar    1  UNL1       -0.0263
     15 C           2.6424   -0.8919   -2.1850 C.ar    1  UNL1        0.0755
     16 N           1.6557    0.0410   -2.7106 N.am    1  UNL1       -0.2937
     17 C           1.2960    1.3057   -2.1505 C.2     1  UNL1        0.1412
     18 S           2.2763    2.3104   -1.2285 S.2     1  UNL1       -0.0182
     19 N          -0.0157    1.7074   -2.4735 N.am    1  UNL1       -0.2635
     20 C          -0.9725    2.2871   -1.6227 C.2     1  UNL1        0.2531
     21 O          -0.9306    2.2416   -0.3821 O.2     1  UNL1       -0.2697
     22 C          -2.2119    2.8742   -2.2077 C.ar    1  UNL1        0.0796
     23 C          -2.5026    4.1929   -1.7776 C.ar    1  UNL1       -0.0321
     24 C          -3.7073    4.8148   -2.1161 C.ar    1  UNL1        0.0188
     25 BR         -4.1692    6.4872   -1.3599 Br      1  UNL1       -0.0503
     26 C          -4.6110    4.1753   -2.9510 C.ar    1  UNL1       -0.0443
     27 C          -4.3466    2.8658   -3.3593 C.ar    1  UNL1       -0.0182
     28 C          -3.1746    2.1804   -2.9668 C.ar    1  UNL1        0.1323
     29 O          -3.2161    0.8708   -3.3695 O.3     1  UNL1       -0.4944
     30 C          -2.1476    0.0022   -3.0498 C.3     1  UNL1        0.0788
     31 H           0.4848    0.1841    0.9857 H       1  UNL1        0.0660
     32 H           0.5628   -1.5505    0.5902 H       1  UNL1        0.0660
     33 H           0.3284   -0.3536   -0.6770 H       1  UNL1        0.0660
     34 H           4.3425   -1.6859    0.6596 H       1  UNL1        0.0655
     35 H           5.7316   -2.9755   -0.9131 H       1  UNL1        0.0626
     36 H           6.1662   -2.3305   -5.0632 H       1  UNL1        0.0655
     37 H           6.8846   -4.7773   -6.0177 H       1  UNL1        0.0653
     38 H           4.8375   -7.4416   -4.3438 H       1  UNL1        0.0638
     39 H           6.3745   -7.4083   -3.4405 H       1  UNL1        0.0638
     40 H           6.0493   -7.0496   -6.2387 H       1  UNL1        0.2100
     41 H           3.1256   -1.7975   -4.1241 H       1  UNL1        0.0644
     42 H           1.2956   -0.1956   -3.6273 H       1  UNL1        0.1539
     43 H          -0.1948    1.8096   -3.4622 H       1  UNL1        0.1568
     44 H          -1.7992    4.7184   -1.1316 H       1  UNL1        0.0637
     45 H          -5.5345    4.6643   -3.2556 H       1  UNL1        0.0630
     46 H          -5.0976    2.3501   -3.9583 H       1  UNL1        0.0655
     47 H          -2.3763   -1.0216   -3.3488 H       1  UNL1        0.0660
     48 H          -1.9383   -0.0113   -1.9758 H       1  UNL1        0.0660
     49 H          -1.2965    0.2667   -3.6733 H       1  UNL1        0.0660
@<TRIPOS>BOND
     1     1     2    1
     2     2     3    1
     3     3     4   ar
     4     4     5   ar
     5     5     6   ar
     6     6     7    1
     7     7     8   ar
     8     8     9   ar
     9     9    10   ar
    10    10    11    1
    11    11    12    1
    12    10    13   ar
    13     7    13   ar
    14     6    14   ar
    15    14    15   ar
    16     3    15   ar
    17    15    16    1
    18    16    17    1
    19    17    18    2
    20    17    19    1
    21    19    20   am
    22    20    21    2
    23    20    22    1
    24    22    23   ar
    25    23    24   ar
    26    24    25    1
    27    24    26   ar
    28    26    27   ar
    29    27    28   ar
    30    22    28   ar
    31    28    29    1
    32    29    30    1
    33     1    31    1
    34     1    32    1
    35     1    33    1
    36     4    34    1
    37     5    35    1
    38     8    36    1
    39     9    37    1
    40    11    38    1
    41    11    39    1
    42    12    40    1
    43    14    41    1
    44    16    42    1
    45    19    43    1
    46    23    44    1
    47    26    45    1
    48    27    46    1
    49    30    47    1
    50    30    48    1
    51    30    49    1
