@<TRIPOS>MOLECULE
*****
 60 61 0 0 0
SMALL
GASTEIGER

@<TRIPOS>ATOM
      1 C           0.9625    0.0256    0.0837 C.3     1  UNL1       -0.0653
      2 C           2.4854    0.0236    0.0967 C.3     1  UNL1       -0.0552
      3 C           3.0257   -0.1877    1.5138 C.3     1  UNL1       -0.0438
      4 C           4.5601   -0.1969    1.5547 C.3     1  UNL1        0.0011
      5 S           5.0993   -0.4782    3.2799 S.3     1  UNL1       -0.0860
      6 C           6.8614   -0.4341    3.1117 C.ar    1  UNL1        0.1896
      7 N           7.5232   -1.5962    2.9898 N.ar    1  UNL1       -0.2295
      8 C           8.8794   -1.5460    3.0021 C.ar    1  UNL1        0.0455
      9 C           9.6058   -0.3824    3.1344 C.ar    1  UNL1        0.0916
     10 C          11.0883   -0.4347    3.0785 C.2     1  UNL1        0.2487
     11 O          11.6833   -1.5071    2.9616 O.2     1  UNL1       -0.2700
     12 N          11.7758    0.7501    3.1443 N.am    1  UNL1       -0.3055
     13 C          13.2229    0.8429    3.0798 C.3     1  UNL1        0.0591
     14 C          13.7383    2.3102    3.3031 C.3     1  UNL1        0.0204
     15 C          13.2797    2.8736    4.6450 C.ar    1  UNL1        0.0054
     16 C          13.2357    4.2496    4.8952 C.ar    1  UNL1       -0.0495
     17 C          13.1253    4.7121    6.2094 C.ar    1  UNL1       -0.0159
     18 C          12.8863    3.8253    7.2705 C.ar    1  UNL1        0.1615
     19 O          12.7081    4.4416    8.4820 O.3     1  UNL1       -0.4915
     20 C          12.2583    3.6169    9.5548 C.3     1  UNL1        0.0790
     21 C          12.8468    2.4499    7.0159 C.ar    1  UNL1        0.1619
     22 O          12.6736    1.5716    8.0454 O.3     1  UNL1       -0.4914
     23 C          12.6560    0.1771    7.7760 C.3     1  UNL1        0.0790
     24 C          13.0448    2.0047    5.7161 C.ar    1  UNL1       -0.0078
     25 N          15.2749    2.3517    3.2110 N.4     1  UNL1        0.2375
     26 C          15.8000    1.7728    1.9285 C.3     1  UNL1       -0.0427
     27 C          15.8453    3.7403    3.3905 C.3     1  UNL1       -0.0427
     28 C           8.8102    0.7388    3.2773 C.ar    1  UNL1        0.1456
     29 CL          9.4099    2.3450    3.5074 Cl      1  UNL1       -0.0611
     30 N           7.4620    0.7481    3.2649 N.ar    1  UNL1       -0.2095
     31 H           0.5879    0.1766   -0.9337 H       1  UNL1        0.0230
     32 H           0.5662    0.8287    0.7137 H       1  UNL1        0.0230
     33 H           0.5661   -0.9259    0.4532 H       1  UNL1        0.0230
     34 H           2.8486    0.9763   -0.3054 H       1  UNL1        0.0263
     35 H           2.8484   -0.7711   -0.5651 H       1  UNL1        0.0263
     36 H           2.6345   -1.1379    1.9003 H       1  UNL1        0.0273
     37 H           2.6372    0.6100    2.1605 H       1  UNL1        0.0273
     38 H           4.9485    0.7592    1.1868 H       1  UNL1        0.0381
     39 H           4.9459   -0.9972    0.9146 H       1  UNL1        0.0381
     40 H           9.3648   -2.5158    2.8974 H       1  UNL1        0.0839
     41 H          11.2514    1.6054    3.3083 H       1  UNL1        0.1492
     42 H          13.5057    0.4508    2.1011 H       1  UNL1        0.0522
     43 H          13.6598    0.1499    3.8128 H       1  UNL1        0.0522
     44 H          13.3555    2.9407    2.4903 H       1  UNL1        0.0920
     45 H          13.3717    4.9787    4.0971 H       1  UNL1        0.0623
     46 H          13.2492    5.7753    6.4168 H       1  UNL1        0.0655
     47 H          12.0297    4.2487   10.4144 H       1  UNL1        0.0660
     48 H          13.0558    2.9327    9.8644 H       1  UNL1        0.0660
     49 H          11.3354    3.0829    9.2932 H       1  UNL1        0.0660
     50 H          12.5070   -0.3429    8.7241 H       1  UNL1        0.0660
     51 H          13.6150   -0.1508    7.3596 H       1  UNL1        0.0660
     52 H          11.8240   -0.0801    7.1118 H       1  UNL1        0.0660
     53 H          13.0213    0.9384    5.5457 H       1  UNL1        0.0660
     54 H          15.6328    1.7895    3.9966 H       1  UNL1        0.2035
     55 H          15.3787    2.3530    1.1035 H       1  UNL1        0.0778
     56 H          15.5151    0.7227    1.8652 H       1  UNL1        0.0778
     57 H          16.8895    1.8355    1.9466 H       1  UNL1        0.0778
     58 H          15.4148    4.3843    2.6183 H       1  UNL1        0.0778
     59 H          16.9314    3.6840    3.3048 H       1  UNL1        0.0778
     60 H          15.6191    4.1021    4.3929 H       1  UNL1        0.0778
@<TRIPOS>UNITY_ATOM_ATTR
25 1
charge 1
@<TRIPOS>BOND
     1     1     2    1
     2     2     3    1
     3     3     4    1
     4     4     5    1
     5     5     6    1
     6     6     7   ar
     7     7     8   ar
     8     8     9   ar
     9     9    10    1
    10    10    11    2
    11    10    12   am
    12    12    13    1
    13    13    14    1
    14    14    15    1
    15    15    16   ar
    16    16    17   ar
    17    17    18   ar
    18    18    19    1
    19    19    20    1
    20    18    21   ar
    21    21    22    1
    22    22    23    1
    23    21    24   ar
    24    15    24   ar
    25    14    25    1
    26    25    26    1
    27    25    27    1
    28     9    28   ar
    29    28    29    1
    30    28    30   ar
    31     6    30   ar
    32     1    31    1
    33     1    32    1
    34     1    33    1
    35     2    34    1
    36     2    35    1
    37     3    36    1
    38     3    37    1
    39     4    38    1
    40     4    39    1
    41     8    40    1
    42    12    41    1
    43    13    42    1
    44    13    43    1
    45    14    44    1
    46    16    45    1
    47    17    46    1
    48    20    47    1
    49    20    48    1
    50    20    49    1
    51    23    50    1
    52    23    51    1
    53    23    52    1
    54    24    53    1
    55    25    54    1
    56    26    55    1
    57    26    56    1
    58    26    57    1
    59    27    58    1
    60    27    59    1
    61    27    60    1
