@<TRIPOS>MOLECULE
*****
 71 73 0 0 0
SMALL
GASTEIGER

@<TRIPOS>ATOM
      1 C           1.0302    0.5401   -0.1579 C.3     1  UNL1       -0.0489
      2 C           2.4793    0.1408    0.0067 C.3     1  UNL1        0.0173
      3 N           2.8586   -0.9592    0.9582 N.am    1  UNL1       -0.2677
      4 C           2.0154   -1.7847    1.7710 C.2     1  UNL1        0.2508
      5 O           2.4227   -2.5502    2.6481 O.2     1  UNL1       -0.2696
      6 C           0.5396   -1.8000    1.6188 C.ar    1  UNL1        0.0373
      7 C          -0.3881   -1.5877    2.6536 C.ar    1  UNL1       -0.0479
      8 C          -1.8000   -1.5199    2.3873 C.ar    1  UNL1       -0.0398
      9 C          -2.2767   -1.5105    1.0658 C.ar    1  UNL1        0.0326
     10 N          -3.6722   -1.2241    0.6940 N.am    1  UNL1       -0.2966
     11 C          -4.1671   -0.9542   -0.6255 C.2     1  UNL1        0.1408
     12 S          -3.1911   -0.7415   -1.9946 S.2     1  UNL1       -0.0182
     13 N          -5.5808   -0.8289   -0.7525 N.am    1  UNL1       -0.2676
     14 C          -6.2202   -0.6465   -1.9980 C.2     1  UNL1        0.2185
     15 O          -5.6356   -0.6713   -3.0833 O.2     1  UNL1       -0.2754
     16 C          -7.7215   -0.4345   -2.0900 C.3     1  UNL1        0.0248
     17 C          -8.0609   -0.2662   -3.6070 C.3     1  UNL1       -0.0347
     18 C          -9.5323   -0.0520   -3.9362 C.3     1  UNL1        0.0454
     19 C          -9.7461    0.0969   -5.4332 C.2     1  UNL1        0.3071
     20 O          -8.8460    0.0514   -6.2838 O.2     1  UNL1       -0.2509
     21 O         -11.0612    0.2897   -5.7362 O.3     1  UNL1       -0.4646
     22 C         -11.3148    0.4387   -7.1484 C.3     1  UNL1        0.0928
     23 C         -12.8048    0.6525   -7.3946 C.3     1  UNL1       -0.0146
     24 C         -13.1127    0.8184   -8.8898 C.3     1  UNL1       -0.0246
     25 C         -14.5932    1.0140   -9.1056 C.ar    1  UNL1       -0.0472
     26 C         -15.1471    2.2997   -9.1555 C.ar    1  UNL1       -0.0586
     27 C         -16.5327    2.4672   -9.1721 C.ar    1  UNL1       -0.0615
     28 C         -17.3713    1.3547   -9.2206 C.ar    1  UNL1       -0.0617
     29 C         -16.8272    0.0721   -9.2172 C.ar    1  UNL1       -0.0615
     30 C         -15.4448   -0.0980   -9.1517 C.ar    1  UNL1       -0.0586
     31 C          -1.2998   -1.8247    0.1203 C.ar    1  UNL1       -0.0398
     32 C           0.0402   -2.0935    0.3822 C.ar    1  UNL1       -0.0479
     33 C           4.2991   -1.1246    1.1187 C.ar    1  UNL1        0.0366
     34 C           4.8709   -2.3973    1.2624 C.ar    1  UNL1       -0.0403
     35 C           6.2261   -2.5530    1.5832 C.ar    1  UNL1       -0.0600
     36 C           7.0536   -1.4402    1.6922 C.ar    1  UNL1       -0.0616
     37 C           6.5222   -0.1719    1.4912 C.ar    1  UNL1       -0.0600
     38 C           5.1613   -0.0170    1.1975 C.ar    1  UNL1       -0.0403
     39 H           0.8898    1.4603   -0.7280 H       1  UNL1        0.0245
     40 H           0.5410    0.6689    0.8105 H       1  UNL1        0.0245
     41 H           0.5389   -0.1978   -0.7830 H       1  UNL1        0.0245
     42 H           2.9940    1.0603    0.2941 H       1  UNL1        0.0466
     43 H           2.8660   -0.1540   -0.9794 H       1  UNL1        0.0466
     44 H          -0.0133   -1.4596    3.6686 H       1  UNL1        0.0626
     45 H          -2.4707   -1.4542    3.2410 H       1  UNL1        0.0636
     46 H          -4.3019   -1.1328    1.4852 H       1  UNL1        0.1538
     47 H          -6.1584   -0.8295    0.0763 H       1  UNL1        0.1565
     48 H          -8.0034    0.4686   -1.5439 H       1  UNL1        0.0359
     49 H          -8.2375   -1.3098   -1.6891 H       1  UNL1        0.0359
     50 H          -7.7079   -1.1516   -4.1607 H       1  UNL1        0.0275
     51 H          -7.4843    0.5783   -4.0185 H       1  UNL1        0.0275
     52 H          -9.8785    0.8580   -3.4385 H       1  UNL1        0.0378
     53 H         -10.1043   -0.9144   -3.5827 H       1  UNL1        0.0378
     54 H         -10.9861   -0.4672   -7.6719 H       1  UNL1        0.0697
     55 H         -10.7561    1.3028   -7.5273 H       1  UNL1        0.0697
     56 H         -13.1475    1.5324   -6.8348 H       1  UNL1        0.0301
     57 H         -13.3664   -0.1947   -6.9793 H       1  UNL1        0.0301
     58 H         -12.7792   -0.0647   -9.4496 H       1  UNL1        0.0314
     59 H         -12.5596    1.6709   -9.3038 H       1  UNL1        0.0314
     60 H         -14.5056    3.1780   -9.1593 H       1  UNL1        0.0620
     61 H         -16.9594    3.4658   -9.1283 H       1  UNL1        0.0618
     62 H         -18.4489    1.4876   -9.2592 H       1  UNL1        0.0618
     63 H         -17.4791   -0.7969   -9.2397 H       1  UNL1        0.0618
     64 H         -15.0326   -1.1037   -9.1168 H       1  UNL1        0.0620
     65 H          -1.4576   -1.8239   -0.9367 H       1  UNL1        0.0636
     66 H           0.6882   -2.3279   -0.4586 H       1  UNL1        0.0626
     67 H           4.2668   -3.2918    1.1301 H       1  UNL1        0.0636
     68 H           6.6252   -3.5458    1.7747 H       1  UNL1        0.0618
     69 H           8.1048   -1.5603    1.9403 H       1  UNL1        0.0618
     70 H           7.1544    0.7055    1.6041 H       1  UNL1        0.0618
     71 H           4.7968    1.0004    1.1174 H       1  UNL1        0.0636
@<TRIPOS>BOND
     1     1     2    1
     2     2     3    1
     3     3     4   am
     4     4     5    2
     5     4     6    1
     6     6     7   ar
     7     7     8   ar
     8     8     9   ar
     9     9    10    1
    10    10    11    1
    11    11    12    2
    12    11    13    1
    13    13    14   am
    14    14    15    2
    15    14    16    1
    16    16    17    1
    17    17    18    1
    18    18    19    1
    19    19    20    2
    20    19    21    1
    21    21    22    1
    22    22    23    1
    23    23    24    1
    24    24    25    1
    25    25    26   ar
    26    26    27   ar
    27    27    28   ar
    28    28    29   ar
    29    29    30   ar
    30    25    30   ar
    31     9    31   ar
    32    31    32   ar
    33     6    32   ar
    34     3    33    1
    35    33    34   ar
    36    34    35   ar
    37    35    36   ar
    38    36    37   ar
    39    37    38   ar
    40    33    38   ar
    41     1    39    1
    42     1    40    1
    43     1    41    1
    44     2    42    1
    45     2    43    1
    46     7    44    1
    47     8    45    1
    48    10    46    1
    49    13    47    1
    50    16    48    1
    51    16    49    1
    52    17    50    1
    53    17    51    1
    54    18    52    1
    55    18    53    1
    56    22    54    1
    57    22    55    1
    58    23    56    1
    59    23    57    1
    60    24    58    1
    61    24    59    1
    62    26    60    1
    63    27    61    1
    64    28    62    1
    65    29    63    1
    66    30    64    1
    67    31    65    1
    68    32    66    1
    69    34    67    1
    70    35    68    1
    71    36    69    1
    72    37    70    1
    73    38    71    1
