@<TRIPOS>MOLECULE
*****
 45 46 0 0 0
SMALL
GASTEIGER

@<TRIPOS>ATOM
      1 C           1.0546    0.0139    0.0716 C.3     1  UNL1        0.0366
      2 O           2.4770    0.0230    0.0725 O.3     1  UNL1       -0.3796
      3 C           2.9712    1.3551    0.1032 C.3     1  UNL1        0.0813
      4 C           4.4934    1.3478    0.0899 C.3     1  UNL1        0.1128
      5 O           4.9093    2.7150    0.1278 O.3     1  UNL1       -0.4889
      6 C           6.2621    2.9034    0.1535 C.ar    1  UNL1        0.1328
      7 C           7.1313    2.2359   -0.7268 C.ar    1  UNL1       -0.0181
      8 C           8.5032    2.5160   -0.7424 C.ar    1  UNL1       -0.0443
      9 C           9.0172    3.4760    0.1150 C.ar    1  UNL1        0.0188
     10 BR         10.8646    3.8781    0.0831 Br      1  UNL1       -0.0503
     11 C           8.1661    4.1465    0.9873 C.ar    1  UNL1       -0.0321
     12 C           6.7728    3.8733    1.0172 C.ar    1  UNL1        0.0797
     13 C           5.9641    4.6493    2.0043 C.2     1  UNL1        0.2531
     14 O           6.6346    5.4586    2.6576 O.2     1  UNL1       -0.2697
     15 N           4.5694    4.4765    2.1540 N.am    1  UNL1       -0.2635
     16 C           3.7643    5.1048    3.1339 C.2     1  UNL1        0.1412
     17 S           4.4317    6.0904    4.3466 S.2     1  UNL1       -0.0182
     18 N           2.3691    4.8293    3.0361 N.am    1  UNL1       -0.2937
     19 C           1.4068    5.4784    3.9022 C.ar    1  UNL1        0.0749
     20 C           1.4581    6.8734    4.0236 C.ar    1  UNL1       -0.0340
     21 C           0.7375    7.5734    4.9963 C.ar    1  UNL1       -0.0485
     22 C           1.0041    9.0355    5.1979 C.3     1  UNL1       -0.0396
     23 C          -0.1708    6.8773    5.7897 C.ar    1  UNL1       -0.0553
     24 C          -0.3214    5.4946    5.6256 C.ar    1  UNL1       -0.0181
     25 C           0.4668    4.7949    4.6888 C.ar    1  UNL1        0.1380
     26 O           0.3559    3.4312    4.6143 O.3     1  UNL1       -0.5049
     27 H           0.7141   -1.0235    0.0450 H       1  UNL1        0.0524
     28 H           0.6728    0.5343   -0.8123 H       1  UNL1        0.0524
     29 H           0.6727    0.4888    0.9806 H       1  UNL1        0.0524
     30 H           2.6119    1.8692    1.0033 H       1  UNL1        0.0593
     31 H           2.6025    1.9151   -0.7653 H       1  UNL1        0.0593
     32 H           4.8373    0.8367   -0.8149 H       1  UNL1        0.0720
     33 H           4.8766    0.8097    0.9660 H       1  UNL1        0.0720
     34 H           6.7620    1.5082   -1.4426 H       1  UNL1        0.0655
     35 H           9.1567    1.9929   -1.4367 H       1  UNL1        0.0630
     36 H           8.5914    4.8993    1.6533 H       1  UNL1        0.0637
     37 H           4.1346    3.8289    1.5085 H       1  UNL1        0.1568
     38 H           2.0572    3.9389    2.6653 H       1  UNL1        0.1539
     39 H           2.1373    7.4320    3.3845 H       1  UNL1        0.0640
     40 H           1.7886    9.3916    4.5193 H       1  UNL1        0.0278
     41 H           1.3548    9.2223    6.2186 H       1  UNL1        0.0278
     42 H           0.1005    9.6173    5.0041 H       1  UNL1        0.0278
     43 H          -0.7523    7.4076    6.5420 H       1  UNL1        0.0621
     44 H          -1.0349    4.9847    6.2694 H       1  UNL1        0.0655
     45 H          -0.2459    3.1443    5.3264 H       1  UNL1        0.2922
@<TRIPOS>BOND
     1     1     2    1
     2     2     3    1
     3     3     4    1
     4     4     5    1
     5     5     6    1
     6     6     7   ar
     7     7     8   ar
     8     8     9   ar
     9     9    10    1
    10     9    11   ar
    11    11    12   ar
    12     6    12   ar
    13    12    13    1
    14    13    14    2
    15    13    15   am
    16    15    16    1
    17    16    17    2
    18    16    18    1
    19    18    19    1
    20    19    20   ar
    21    20    21   ar
    22    21    22    1
    23    21    23   ar
    24    23    24   ar
    25    24    25   ar
    26    19    25   ar
    27    25    26    1
    28     1    27    1
    29     1    28    1
    30     1    29    1
    31     3    30    1
    32     3    31    1
    33     4    32    1
    34     4    33    1
    35     7    34    1
    36     8    35    1
    37    11    36    1
    38    15    37    1
    39    18    38    1
    40    20    39    1
    41    22    40    1
    42    22    41    1
    43    22    42    1
    44    23    43    1
    45    24    44    1
    46    26    45    1
