REMARK  9 active torsions:
REMARK  status: ('A' for Active; 'I' for Inactive)
REMARK    1  A    between atoms: C_2  and  C_4 
REMARK    2  A    between atoms: C_7  and  C_8 
REMARK    3  A    between atoms: C_8  and  C_9 
REMARK    4  A    between atoms: C_9  and  C_10 
REMARK    5  A    between atoms: C_10  and  N_11 
REMARK       I    between atoms: N_11  and  C_12 
REMARK       I    between atoms: C_12  and  N_14 
REMARK    6  A    between atoms: N_14  and  CA_15 
REMARK    7  A    between atoms: CA_15  and  C_16 
REMARK    8  A    between atoms: CA_15  and  C_18 
REMARK    9  A    between atoms: C_16  and  O_17 
ROOT
ATOM      1  N   UNL d   1       5.518   2.514  -6.484  0.00  0.00    -0.343 N 
ATOM      2  C   UNL d   1       6.128   2.897  -7.651  0.00  0.00     0.316 C 
ATOM      3  O   UNL d   1       6.481   2.077  -8.502  0.00  0.00    -0.247 OA
ATOM      4  N   UNL d   1       6.297   4.247  -7.808  0.00  0.00    -0.332 N 
ATOM      5  H   UNL d   1       5.342   3.187  -5.752  0.00  0.00     0.164 HD
ATOM      6  H   UNL d   1       6.071   4.873  -7.049  0.00  0.00     0.165 HD
ENDROOT
BRANCH   1   7
ATOM      7  C   UNL d   1       5.186   1.107  -6.273  0.00  0.00     0.125 C 
BRANCH   7   8
ATOM      8  C   UNL d   1       4.629   0.817  -4.887  0.00  0.00     0.028 C 
BRANCH   8   9
ATOM      9  C   UNL d   1       4.287  -0.667  -4.676  0.00  0.00     0.090 C 
BRANCH   9  10
ATOM     10  C   UNL d   1       3.764  -0.868  -3.301  0.00  0.00     0.172 A 
ATOM     11  O   UNL d   1       3.416  -2.134  -2.931  0.00  0.00    -0.196 OA
ATOM     12  N   UNL d   1       2.937  -2.039  -1.620  0.00  0.00    -0.111 NA
ATOM     13  C   UNL d   1       3.051  -0.731  -1.345  0.00  0.00     0.159 A 
ATOM     14  N   UNL d   1       3.565   0.026  -2.360  0.00  0.00    -0.208 NA
BRANCH  13  15
ATOM     15  C   UNL d   1       2.572  -0.107  -0.079  0.00  0.00     0.051 C 
ATOM     16  C   UNL d   1       1.045  -0.050  -0.059  0.00  0.00     0.018 C 
ATOM     17  C   UNL d   1       3.095  -0.835   1.157  0.00  0.00     0.018 C 
ENDBRANCH  13  15
ENDBRANCH   9  10
ENDBRANCH   8   9
ENDBRANCH   7   8
ENDBRANCH   1   7
BRANCH   4  18
ATOM     18  CA  UNL d   1       6.830   4.822  -9.066  0.00  0.00     0.143 C 
BRANCH  18  19
ATOM     19  C   UNL d   1       5.873   4.539 -10.272  0.00  0.00     0.194 C 
BRANCH  19  20
ATOM     20  O   UNL d   1       5.627   3.188 -10.622  0.00  0.00    -0.398 OA
ATOM     21  H   UNL d   1       6.380   2.656 -10.296  0.00  0.00     0.209 HD
ENDBRANCH  19  20
ENDBRANCH  18  19
BRANCH  18  22
ATOM     22  C   UNL d   1       7.079   6.341  -8.947  0.00  0.00    -0.033 A 
ATOM     23  C   UNL d   1       7.788   6.884  -7.865  0.00  0.00     0.009 A 
ATOM     24  C   UNL d   1       7.882   8.275  -7.700  0.00  0.00     0.001 A 
ATOM     25  C   UNL d   1       7.368   9.146  -8.660  0.00  0.00     0.000 A 
ATOM     26  C   UNL d   1       6.737   8.632  -9.780  0.00  0.00     0.001 A 
ATOM     27  C   UNL d   1       6.598   7.253  -9.916  0.00  0.00     0.009 A 
ENDBRANCH  18  22
ENDBRANCH   4  18
TORSDOF 9
