@<TRIPOS>MOLECULE
*****
 77 80 0 0 0
SMALL
GASTEIGER

@<TRIPOS>ATOM
      1 C           1.0788   -0.0581   -0.0162 C.3     1  UNL1       -0.0653
      2 C           2.5951   -0.0527   -0.0221 C.3     1  UNL1       -0.0559
      3 C           3.1184    0.9219   -1.0707 C.3     1  UNL1       -0.0529
      4 C           4.6455    0.9357   -1.0870 C.3     1  UNL1       -0.0448
      5 C           5.1646    1.9200   -2.1380 C.3     1  UNL1        0.0243
      6 C           6.6901    1.9989   -2.2232 C.2     1  UNL1        0.2186
      7 O           7.3887    1.3169   -1.4651 O.2     1  UNL1       -0.2754
      8 N           7.2711    2.7676   -3.2408 N.am    1  UNL1       -0.2647
      9 C           6.5431    3.7080   -3.9789 C.ar    1  UNL1        0.1648
     10 N           5.5184    4.3276   -3.4597 N.ar    1  UNL1       -0.2290
     11 C           5.0153    5.2498   -4.3182 C.ar    1  UNL1        0.0578
     12 C           5.3515    5.1891   -5.6193 C.ar    1  UNL1        0.0149
     13 S           6.8429    4.2309   -5.6569 S.2     1  UNL1       -0.0567
     14 C           4.3600    6.1494   -6.5243 C.3     1  UNL1       -0.0156
     15 C           2.7912    6.9845   -5.6447 C.3     1  UNL1       -0.0207
     16 C           0.9508    7.4021   -4.3128 C.3     1  UNL1        0.0206
     17 C          -0.4564    8.6675   -3.7788 C.3     1  UNL1       -0.0548
     18 C           0.7677    7.5897   -2.4785 C.3     1  UNL1        0.0522
     19 O           1.6303    8.6406   -2.1305 O.3     1  UNL1       -0.3944
     20 C          -0.1198    7.3777   -5.3636 C.3     1  UNL1        0.0630
     21 O          -1.2365    6.5847   -5.1773 O.3     1  UNL1       -0.3912
     22 C           1.0149    6.6301   -5.5819 C.3     1  UNL1       -0.0257
     23 C           2.4910    8.0892   -5.1935 C.3     1  UNL1       -0.0444
     24 C           3.8442    7.4344   -4.8824 C.3     1  UNL1       -0.0195
     25 C           5.1806    8.2306   -5.1693 C.3     1  UNL1       -0.0587
     26 C           3.9509    6.2105   -3.9804 C.3     1  UNL1        0.0161
     27 C           4.1654    6.8673   -2.6806 C.3     1  UNL1        0.0327
     28 C           4.0664    8.4405   -2.6961 C.2     1  UNL1        0.2139
     29 O           3.8653    9.2624   -3.6020 O.2     1  UNL1       -0.2758
     30 N           4.2962    9.1083   -1.5885 N.am    1  UNL1       -0.3111
     31 C           4.0322   10.5163   -1.7865 C.3     1  UNL1        0.0383
     32 C           4.0625   11.1874   -0.5101 C.ar    1  UNL1       -0.0122
     33 C           4.6787   12.4167   -0.4211 C.ar    1  UNL1       -0.0542
     34 C           4.6087   13.0604    0.7854 C.ar    1  UNL1       -0.0433
     35 C           3.9363   12.4352    1.8270 C.ar    1  UNL1        0.0276
     36 N           3.3527   11.2197    1.7617 N.ar    1  UNL1       -0.2629
     37 C           3.4168   10.6182    0.5764 C.ar    1  UNL1        0.0322
     38 H           0.7040   -0.7574    0.7360 H       1  UNL1        0.0230
     39 H           0.6915   -0.3604   -0.9943 H       1  UNL1        0.0230
     40 H           0.6915    0.9395    0.2143 H       1  UNL1        0.0230
     41 H           2.9636   -1.0631   -0.2337 H       1  UNL1        0.0263
     42 H           2.9636    0.2320    0.9703 H       1  UNL1        0.0263
     43 H           2.7395    1.9291   -0.8559 H       1  UNL1        0.0265
     44 H           2.7395    0.6351   -2.0595 H       1  UNL1        0.0265
     45 H           5.0152   -0.0750   -1.2953 H       1  UNL1        0.0270
     46 H           5.0138    1.2161   -0.0925 H       1  UNL1        0.0270
     47 H           4.7710    2.9037   -1.8734 H       1  UNL1        0.0358
     48 H           4.7875    1.6175   -3.1213 H       1  UNL1        0.0358
     49 H           8.2846    2.7478   -3.2507 H       1  UNL1        0.1567
     50 H           4.3407    5.7214   -7.5448 H       1  UNL1        0.0322
     51 H           5.1199    6.9606   -6.8770 H       1  UNL1        0.0322
     52 H           2.5519    7.1827   -6.8156 H       1  UNL1        0.0316
     53 H          -1.3044    9.0935   -4.3622 H       1  UNL1        0.0237
     54 H          -0.2589    9.5659   -3.1128 H       1  UNL1        0.0237
     55 H          -1.2455    8.0742   -3.1065 H       1  UNL1        0.0237
     56 H          -0.0415    8.2562   -1.8951 H       1  UNL1        0.0563
     57 H           0.2013    6.8325   -1.8668 H       1  UNL1        0.0563
     58 H           1.4865    9.2891   -2.8670 H       1  UNL1        0.2094
     59 H          -0.2114    8.3253   -5.9298 H       1  UNL1        0.0599
     60 H          -0.9698    5.8351   -4.6226 H       1  UNL1        0.2098
     61 H           1.0545    6.2210   -6.5891 H       1  UNL1        0.0290
     62 H           1.2156    5.6758   -4.8899 H       1  UNL1        0.0290
     63 H           2.3506    8.4836   -4.1875 H       1  UNL1        0.0272
     64 H           2.3793    9.0044   -5.8071 H       1  UNL1        0.0272
     65 H           4.9967    9.0769   -5.8293 H       1  UNL1        0.0235
     66 H           6.0788    7.6644   -5.4337 H       1  UNL1        0.0235
     67 H           5.6272    8.6224   -4.2482 H       1  UNL1        0.0235
     68 H           3.1007    5.5054   -4.1076 H       1  UNL1        0.0374
     69 H           3.4263    6.3873   -2.0474 H       1  UNL1        0.0365
     70 H           5.1837    6.6150   -2.3843 H       1  UNL1        0.0365
     71 H           4.2713    8.5818   -0.7373 H       1  UNL1        0.1490
     72 H           3.0594   10.7376   -2.2833 H       1  UNL1        0.0512
     73 H           4.7953   10.9005   -2.4904 H       1  UNL1        0.0512
     74 H           5.1793   12.8503   -1.2836 H       1  UNL1        0.0622
     75 H           5.0568   14.0332    0.9057 H       1  UNL1        0.0633
     76 H           3.8385   12.9281    2.7832 H       1  UNL1        0.0829
     77 H           2.9350    9.6434    0.5016 H       1  UNL1        0.0833
@<TRIPOS>BOND
     1     1     2    1
     2     2     3    1
     3     3     4    1
     4     4     5    1
     5     5     6    1
     6     6     7    2
     7     6     8   am
     8     9    10   ar
     9    10    11   ar
    10    11    12   ar
    11    12    13   ar
    12     9    13   ar
    13    12    14    1
    14    14    15    1
    15    15    16    1
    16    18    19    1
    17    16    20    1
    18    20    22    1
    19    22    23    1
    20    23    24    1
    21    15    24    1
    22    24    26    1
    23    11    26    1
    24    27    28    1
    25    28    29    2
    26    28    30   am
    27    30    31    1
    28    31    32    1
    29    32    33   ar
    30    33    34   ar
    31    34    35   ar
    32    35    36   ar
    33    36    37   ar
    34    32    37   ar
    35     8     9    1
    36    16    17    1
    37    16    18    1
    38    24    25    1
    39    26    27    1
    40    20    21    1
    41     1    38    1
    42     1    39    1
    43     1    40    1
    44     2    41    1
    45     2    42    1
    46     3    43    1
    47     3    44    1
    48     4    45    1
    49     4    46    1
    50     5    47    1
    51     5    48    1
    52     8    49    1
    53    14    50    1
    54    14    51    1
    55    15    52    1
    56    17    53    1
    57    17    54    1
    58    17    55    1
    59    18    56    1
    60    18    57    1
    61    19    58    1
    62    20    59    1
    63    21    60    1
    64    22    61    1
    65    22    62    1
    66    23    63    1
    67    23    64    1
    68    25    65    1
    69    25    66    1
    70    25    67    1
    71    26    68    1
    72    27    69    1
    73    27    70    1
    74    30    71    1
    75    31    72    1
    76    31    73    1
    77    33    74    1
    78    34    75    1
    79    35    76    1
    80    37    77    1
