REMARK  7 active torsions:
REMARK  status: ('A' for Active; 'I' for Inactive)
REMARK    1  A    between atoms: C_2  and  C_3 
REMARK    2  A    between atoms: C_3  and  C_4 
REMARK    3  A    between atoms: C_5  and  C_4 
REMARK    4  A    between atoms: C_8  and  C_9 
REMARK    5  A    between atoms: C_14  and  N_15 
REMARK    6  A    between atoms: C_18  and  C_19 
REMARK       I    between atoms: C_19  and  N_21 
REMARK    7  A    between atoms: N_21  and  C_22 
ROOT
ATOM      1  C   UNL d   1       7.499  -3.613  -5.782  0.00  0.00     0.153 A 
ATOM      2  N   UNL d   1       8.567  -4.330  -6.138  0.00  0.00    -0.213 NA
ATOM      3  C   UNL d   1       8.455  -4.455  -7.527  0.00  0.00     0.190 A 
ATOM      4  C   UNL d   1       9.389  -5.110  -8.408  0.00  0.00     0.124 C 
ATOM      5  N   UNL d   1      10.045  -5.601  -9.226  0.00  0.00    -0.190 NA
ATOM      6  C   UNL d   1       7.334  -3.802  -7.990  0.00  0.00     0.187 A 
ATOM      7  O   UNL d   1       6.727  -3.239  -6.880  0.00  0.00    -0.276 OA
ENDROOT
BRANCH   6   8
ATOM      8  N   UNL d   1       6.780  -3.645  -9.229  0.00  0.00    -0.359 N 
ATOM      9  C   UNL d   1       6.430  -4.773 -10.093  0.00  0.00     0.126 C 
ATOM     10  C   UNL d   1       7.210  -4.725 -11.414  0.00  0.00     0.034 C 
ATOM     11  C   UNL d   1       7.031  -3.384 -12.137  0.00  0.00     0.081 C 
ATOM     12  C   UNL d   1       7.385  -2.239 -11.154  0.00  0.00     0.034 C 
ATOM     13  C   UNL d   1       6.593  -2.329  -9.830  0.00  0.00     0.126 C 
BRANCH  11  14
ATOM     14  C   UNL d   1       5.605  -3.184 -12.678  0.00  0.00     0.226 C 
ATOM     15  O   UNL d   1       4.904  -2.270 -12.248  0.00  0.00    -0.273 OA
ATOM     16  N   UNL d   1       5.131  -4.129 -13.576  0.00  0.00    -0.322 N 
ATOM     17  H   UNL d   1       5.651  -4.983 -13.726  0.00  0.00     0.169 HD
BRANCH  16  18
ATOM     18  C   UNL d   1       3.836  -4.069 -14.072  0.00  0.00     0.101 A 
ATOM     19  C   UNL d   1       3.034  -5.146 -14.177  0.00  0.00     0.121 A 
ATOM     20  N   UNL d   1       1.740  -5.094 -14.645  0.00  0.00    -0.373 N 
ATOM     21  C   UNL d   1       1.187  -3.922 -15.084  0.00  0.00     0.091 A 
ATOM     22  H   UNL d   1       1.155  -5.925 -14.604  0.00  0.00     0.164 HD
ATOM     23  C   UNL d   1       1.855  -2.765 -15.078  0.00  0.00     0.074 A 
ATOM     24  C   UNL d   1       3.251  -2.752 -14.563  0.00  0.00     0.201 A 
ATOM     25  O   UNL d   1       3.900  -1.714 -14.659  0.00  0.00    -0.286 OA
ENDBRANCH  16  18
ENDBRANCH  11  14
ENDBRANCH   6   8
BRANCH   1  26
ATOM     26  C   UNL d   1       7.071  -3.062  -4.368  0.00  0.00     0.063 C 
ATOM     27  C   UNL d   1       5.629  -3.485  -3.924  0.00  0.00     0.013 C 
ATOM     28  C   UNL d   1       5.085  -2.729  -2.690  0.00  0.00     0.005 C 
ATOM     29  C   UNL d   1       5.160  -1.199  -2.804  0.00  0.00    -0.014 C 
ATOM     30  C   UNL d   1       6.620  -0.806  -3.091  0.00  0.00     0.005 C 
ATOM     31  C   UNL d   1       7.280  -1.529  -4.298  0.00  0.00     0.013 C 
BRANCH  29  32
ATOM     32  C   UNL d   1       4.155  -0.596  -3.822  0.00  0.00     0.004 C 
BRANCH  32  33
ATOM     33  C   UNL d   1       4.655  -0.678  -5.247  0.00  0.00     0.000 C 
BRANCH  33  34
ATOM     34  C   UNL d   1       3.746  -0.271  -6.362  0.00  0.00    -0.005 C 
ATOM     35  C   UNL d   1       4.457  -0.619  -7.667  0.00  0.00     0.005 C 
ENDBRANCH  33  34
ENDBRANCH  32  33
ENDBRANCH  29  32
ENDBRANCH   1  26
TORSDOF 7
