@<TRIPOS>MOLECULE
*****
 74 76 0 0 0
SMALL
GASTEIGER

@<TRIPOS>ATOM
      1 C          15.5782   14.5734    0.1591 C.2     1  UNL1       -0.1023
      2 C          14.8101   13.5168    0.4738 C.2     1  UNL1       -0.0867
      3 C          15.0128   12.7068    1.7212 C.3     1  UNL1       -0.0061
      4 C          14.7073   11.2310    1.5268 C.ar    1  UNL1        0.0023
      5 C          13.7694   10.6788    2.4370 C.ar    1  UNL1       -0.0459
      6 C          13.4297    9.3289    2.3806 C.ar    1  UNL1       -0.0015
      7 C          12.6887    8.6982    3.5071 C.2     1  UNL1        0.0529
      8 N          12.3874    7.4488    3.7387 N.2     1  UNL1       -0.1877
      9 N          12.8000    6.4741    2.8891 N.am    1  UNL1       -0.2070
     10 C          12.4307    5.1528    3.0351 C.2     1  UNL1        0.2323
     11 O          11.8070    4.6688    3.9846 O.2     1  UNL1       -0.2741
     12 C          12.9398    4.3347    1.8725 C.3     1  UNL1        0.0282
     13 C          12.7637    2.8405    2.0835 C.3     1  UNL1       -0.0144
     14 C          13.4871    1.9625    1.0562 C.3     1  UNL1        0.0806
     15 O          12.9179    0.6486    1.1752 O.3     1  UNL1       -0.3872
     16 C          15.0021    1.9082    1.2106 C.ar    1  UNL1       -0.0189
     17 C          15.8076    3.0597    1.1609 C.ar    1  UNL1       -0.0527
     18 C          17.1924    3.0103    1.2480 C.ar    1  UNL1       -0.0196
     19 C          17.8250    1.7936    1.3970 C.ar    1  UNL1        0.1205
     20 O          19.1791    1.8787    1.5215 O.3     1  UNL1       -0.4922
     21 C          19.8363    0.6437    1.7656 C.3     1  UNL1        0.0868
     22 C          21.3046    0.9322    1.9739 C.3     1  UNL1       -0.0307
     23 C          17.0625    0.6272    1.4032 C.ar    1  UNL1       -0.0196
     24 C          15.6693    0.6835    1.3147 C.ar    1  UNL1       -0.0527
     25 C          13.8716    8.5995    1.2919 C.ar    1  UNL1       -0.0076
     26 C          14.9008    9.0413    0.4827 C.ar    1  UNL1        0.1628
     27 O          15.3830    8.0224   -0.3161 O.3     1  UNL1       -0.4885
     28 C          16.3859    8.3934   -1.2464 C.3     1  UNL1        0.0870
     29 C          16.8758    7.2386   -2.0749 C.3     1  UNL1       -0.0307
     30 C          15.3284   10.3755    0.5773 C.ar    1  UNL1        0.1659
     31 O          16.3143   10.6663   -0.3156 O.3     1  UNL1       -0.4834
     32 C          16.7761   11.9607   -0.5312 C.3     1  UNL1        0.1148
     33 C          17.7645   12.1860   -1.6123 C.ar    1  UNL1       -0.0104
     34 C          17.9621   11.2496   -2.6089 C.ar    1  UNL1       -0.0554
     35 C          18.9150   11.4906   -3.5700 C.ar    1  UNL1       -0.0614
     36 C          19.5207   12.7454   -3.6396 C.ar    1  UNL1       -0.0617
     37 C          19.1982   13.7536   -2.7347 C.ar    1  UNL1       -0.0614
     38 C          18.3334   13.4645   -1.7025 C.ar    1  UNL1       -0.0554
     39 H          15.6733   14.8830   -0.8825 H       1  UNL1        0.0532
     40 H          16.2638   15.0112    0.8760 H       1  UNL1        0.0532
     41 H          14.2414   13.0225   -0.3219 H       1  UNL1        0.0570
     42 H          14.3599   13.1533    2.4742 H       1  UNL1        0.0357
     43 H          16.0369   12.7660    2.1145 H       1  UNL1        0.0357
     44 H          13.2964   11.3265    3.1765 H       1  UNL1        0.0628
     45 H          12.3680    9.3975    4.3007 H       1  UNL1        0.0851
     46 H          13.6654    6.6167    2.3861 H       1  UNL1        0.1772
     47 H          13.9820    4.6093    1.8350 H       1  UNL1        0.0360
     48 H          12.4958    4.6504    0.9189 H       1  UNL1        0.0360
     49 H          11.6879    2.6183    2.0564 H       1  UNL1        0.0298
     50 H          13.0942    2.5601    3.0915 H       1  UNL1        0.0298
     51 H          13.2563    2.2913    0.0370 H       1  UNL1        0.0643
     52 H          13.1138    0.3309    2.0743 H       1  UNL1        0.2102
     53 H          15.4300    4.0576    1.0202 H       1  UNL1        0.0622
     54 H          17.7633    3.9329    1.1793 H       1  UNL1        0.0654
     55 H          19.7151   -0.0101    0.8953 H       1  UNL1        0.0694
     56 H          19.4322    0.1636    2.6651 H       1  UNL1        0.0694
     57 H          21.7159    1.4618    1.1090 H       1  UNL1        0.0262
     58 H          21.8543    0.0003    2.1224 H       1  UNL1        0.0262
     59 H          21.4496    1.5778    2.8464 H       1  UNL1        0.0262
     60 H          17.5178   -0.3542    1.4600 H       1  UNL1        0.0654
     61 H          15.1214   -0.2560    1.3071 H       1  UNL1        0.0622
     62 H          13.4222    7.6645    0.9996 H       1  UNL1        0.0662
     63 H          17.2676    8.7823   -0.7214 H       1  UNL1        0.0694
     64 H          15.9326    9.1072   -1.9399 H       1  UNL1        0.0694
     65 H          17.3272    6.4751   -1.4382 H       1  UNL1        0.0262
     66 H          17.6274    7.6049   -2.7836 H       1  UNL1        0.0262
     67 H          16.0471    6.7943   -2.6275 H       1  UNL1        0.0262
     68 H          17.2124   12.3386    0.3941 H       1  UNL1        0.0748
     69 H          15.9711   12.4799   -1.0235 H       1  UNL1        0.0748
     70 H          17.3686   10.3495   -2.6454 H       1  UNL1        0.0621
     71 H          19.1727   10.6904   -4.2526 H       1  UNL1        0.0618
     72 H          20.2437   12.9399   -4.4198 H       1  UNL1        0.0618
     73 H          19.6269   14.7473   -2.8083 H       1  UNL1        0.0618
     74 H          18.0682   14.2427   -0.9893 H       1  UNL1        0.0621
@<TRIPOS>BOND
     1     1     2    2
     2     2     3    1
     3     3     4    1
     4     4     5   ar
     5     5     6   ar
     6     6     7    1
     7     7     8    2
     8     8     9    1
     9     9    10   am
    10    10    11    2
    11    10    12    1
    12    12    13    1
    13    14    16    1
    14    16    17   ar
    15    17    18   ar
    16    18    19   ar
    17    19    20    1
    18    20    21    1
    19    21    22    1
    20    19    23   ar
    21    23    24   ar
    22    16    24   ar
    23     6    25   ar
    24    25    26   ar
    25    26    27    1
    26    27    28    1
    27    28    29    1
    28    26    30   ar
    29     4    30   ar
    30    30    31    1
    31    31    32    1
    32    32    33    1
    33    33    34   ar
    34    34    35   ar
    35    35    36   ar
    36    36    37   ar
    37    37    38   ar
    38    33    38   ar
    39    14    15    1
    40    14    13    1
    41     1    39    1
    42     1    40    1
    43     2    41    1
    44     3    42    1
    45     3    43    1
    46     5    44    1
    47     7    45    1
    48     9    46    1
    49    12    47    1
    50    12    48    1
    51    13    49    1
    52    13    50    1
    53    14    51    1
    54    15    52    1
    55    17    53    1
    56    18    54    1
    57    21    55    1
    58    21    56    1
    59    22    57    1
    60    22    58    1
    61    22    59    1
    62    23    60    1
    63    24    61    1
    64    25    62    1
    65    28    63    1
    66    28    64    1
    67    29    65    1
    68    29    66    1
    69    29    67    1
    70    32    68    1
    71    32    69    1
    72    34    70    1
    73    35    71    1
    74    36    72    1
    75    37    73    1
    76    38    74    1
