REMARK  13 active torsions:
REMARK  status: ('A' for Active; 'I' for Inactive)
REMARK    1  A    between atoms: C_2  and  C_3 
REMARK    2  A    between atoms: C_3  and  C_4 
REMARK    3  A    between atoms: C_4  and  N_5 
REMARK       I    between atoms: N_5  and  C_6 
REMARK    4  A    between atoms: C_6  and  C_8 
REMARK    5  A    between atoms: C_8  and  C_9 
REMARK    6  A    between atoms: C_8  and  N_16 
REMARK    7  A    between atoms: C_12  and  O_13 
REMARK    8  A    between atoms: N_16  and  C_17 
REMARK       I    between atoms: N_16  and  C_20 
REMARK    9  A    between atoms: C_17  and  C_18 
REMARK   10  A    between atoms: C_20  and  C_22 
REMARK   11  A    between atoms: C_22  and  O_23 
REMARK   12  A    between atoms: C_22  and  C_24 
REMARK   13  A    between atoms: C_22  and  C_30 
ROOT
ATOM      1  N   UNL d   1       8.417   0.864  -4.301  0.00  0.00    -0.331 N 
ATOM      2  C   UNL d   1       9.046   1.058  -5.574  0.00  0.00     0.265 C 
ATOM      3  O   UNL d   1       8.365   1.173  -6.600  0.00  0.00    -0.269 OA
ENDROOT
BRANCH   1   4
ATOM      4  C   UNL d   1       6.871   0.885  -4.258  0.00  0.00     0.212 C 
BRANCH   4   5
ATOM      5  C   UNL d   1       6.003   0.552  -2.961  0.00  0.00     0.245 C 
ATOM      6  N   UNL d   1       4.655   0.475  -2.880  0.00  0.00    -0.359 N 
ATOM      7  H   UNL d   1       4.042   0.810  -3.611  0.00  0.00     0.162 HD
ATOM      8  O   UNL d   1       6.452   0.323  -1.825  0.00  0.00    -0.271 OA
BRANCH   6   9
ATOM      9  C   UNL d   1       4.216   0.268  -1.494  0.00  0.00     0.122 C 
BRANCH   9  10
ATOM     10  C   UNL d   1       2.750   0.254  -1.361  0.00  0.00     0.019 C 
BRANCH  10  11
ATOM     11  C   UNL d   1       2.376  -0.031   0.083  0.00  0.00    -0.003 C 
ATOM     12  C   UNL d   1       0.871  -0.041   0.137  0.00  0.00     0.005 C 
ENDBRANCH  10  11
ENDBRANCH   9  10
ENDBRANCH   6   9
ENDBRANCH   4   5
BRANCH   4  13
ATOM     13  C   UNL d   1       6.412   2.257  -4.753  0.00  0.00    -0.026 A 
ATOM     14  C   UNL d   1       7.005   3.416  -4.225  0.00  0.00     0.012 A 
ATOM     15  C   UNL d   1       6.652   4.674  -4.702  0.00  0.00     0.037 A 
ATOM     16  C   UNL d   1       5.688   4.774  -5.699  0.00  0.00     0.065 A 
ATOM     17  C   UNL d   1       5.079   3.640  -6.225  0.00  0.00     0.037 A 
ATOM     18  C   UNL d   1       5.442   2.377  -5.760  0.00  0.00     0.012 A 
BRANCH  16  19
ATOM     19  O   UNL d   1       5.308   5.983  -6.201  0.00  0.00    -0.361 OA
ATOM     20  H   UNL d   1       5.846   6.674  -5.782  0.00  0.00     0.217 HD
ENDBRANCH  16  19
ENDBRANCH   4  13
ENDBRANCH   1   4
BRANCH   1  21
ATOM     21  C   UNL d   1       9.268   0.622  -3.119  0.00  0.00     0.127 C 
BRANCH  21  22
ATOM     22  C   UNL d   1       8.623   0.355  -1.834  0.00  0.00     0.015 C 
ATOM     23  C   UNL d   1       9.261   0.089  -0.519  0.00  0.00     0.006 C 
ENDBRANCH  21  22
ENDBRANCH   1  21
BRANCH   2  24
ATOM     24  C   UNL d   1      10.671   1.082  -5.646  0.00  0.00     0.194 C 
BRANCH  24  25
ATOM     25  O   UNL d   1      11.218   2.178  -4.893  0.00  0.00    -0.371 OA
ATOM     26  H   UNL d   1      11.066   2.054  -3.957  0.00  0.00     0.212 HD
ENDBRANCH  24  25
BRANCH  24  27
ATOM     27  C   UNL d   1      11.193  -0.282  -5.143  0.00  0.00    -0.010 A 
ATOM     28  C   UNL d   1      10.671  -1.459  -5.730  0.00  0.00     0.011 A 
ATOM     29  C   UNL d   1      10.975  -2.713  -5.224  0.00  0.00     0.001 A 
ATOM     30  C   UNL d   1      11.767  -2.815  -4.087  0.00  0.00     0.000 A 
ATOM     31  C   UNL d   1      12.273  -1.668  -3.473  0.00  0.00     0.001 A 
ATOM     32  C   UNL d   1      12.037  -0.409  -4.025  0.00  0.00     0.011 A 
ENDBRANCH  24  27
BRANCH  24  33
ATOM     33  C   UNL d   1      11.182   1.401  -7.061  0.00  0.00    -0.010 A 
ATOM     34  C   UNL d   1      11.762   0.435  -7.905  0.00  0.00     0.011 A 
ATOM     35  C   UNL d   1      12.306   0.769  -9.135  0.00  0.00     0.001 A 
ATOM     36  C   UNL d   1      12.242   2.080  -9.576  0.00  0.00     0.000 A 
ATOM     37  C   UNL d   1      11.667   3.061  -8.772  0.00  0.00     0.001 A 
ATOM     38  C   UNL d   1      11.139   2.727  -7.527  0.00  0.00     0.011 A 
ENDBRANCH  24  33
ENDBRANCH   2  24
TORSDOF 13
