@<TRIPOS>MOLECULE
*****
 63 66 0 0 0
SMALL
GASTEIGER

@<TRIPOS>ATOM
      1 C           0.8377   -0.0155   -0.1493 C.3     1  UNL1       -0.0253
      2 C           2.3609    0.0084   -0.2265 C.3     1  UNL1        0.1068
      3 C           2.8597    0.9367   -1.3342 C.3     1  UNL1       -0.0253
      4 C           2.7311    0.6590    1.0683 C.3     1  UNL1       -0.0253
      5 O           2.9045   -1.3639   -0.2911 O.3     1  UNL1       -0.4447
      6 C           4.2464   -1.5555   -0.4647 C.2     1  UNL1        0.4011
      7 O           5.0481   -0.6358   -0.6757 O.2     1  UNL1       -0.2265
      8 N           4.6838   -2.8509   -0.3176 N.am    1  UNL1       -0.2741
      9 C           6.1285   -3.1991   -0.2929 C.3     1  UNL1        0.0709
     10 C           6.8611   -2.6950    0.9954 C.3     1  UNL1       -0.0024
     11 C           6.7563   -1.2529    1.3362 C.2     1  UNL1        0.0095
     12 C           5.8703   -0.7086    2.1750 C.ar    1  UNL1        0.0509
     13 C           4.7642   -1.2550    2.8911 C.ar    1  UNL1       -0.0482
     14 C           3.9676   -0.4161    3.5711 C.ar    1  UNL1       -0.0608
     15 C           4.1581    1.0385    3.5033 C.ar    1  UNL1       -0.0555
     16 C           5.1078    1.6332    2.7425 C.ar    1  UNL1        0.0098
     17 C           6.0419    0.7477    2.0051 C.ar    1  UNL1        0.2086
     18 N           6.9476    1.0282    1.1444 N.2     1  UNL1       -0.2369
     19 C           7.5668   -0.2115    0.6295 C.3     1  UNL1        0.1661
     20 C           6.4620   -4.7319   -0.4527 C.3     1  UNL1        0.1433
     21 N           5.3903   -5.6881   -0.7575 N.3     1  UNL1       -0.2248
     22 N           5.8165   -6.9511   -0.0543 N.3     1  UNL1       -0.2181
     23 C           7.0621   -6.6349    0.6237 C.3     1  UNL1        0.1723
     24 S           8.4890   -7.0317   -0.3633 S.3     1  UNL1       -0.1081
     25 C           8.7001   -8.8093   -0.4569 C.3     1  UNL1        0.0252
     26 C           9.9276   -9.1930   -1.2979 C.ar    1  UNL1       -0.0009
     27 C          10.9602   -8.3222   -1.7600 C.ar    1  UNL1        0.0463
     28 CL         11.1466   -6.6009   -1.5497 Cl      1  UNL1       -0.0832
     29 C          12.0797   -8.8166   -2.4275 C.ar    1  UNL1       -0.0430
     30 C          12.3182  -10.1710   -2.4874 C.ar    1  UNL1       -0.0590
     31 C          11.2996  -11.0469   -2.1518 C.ar    1  UNL1       -0.0430
     32 C          10.1000  -10.5649   -1.6100 C.ar    1  UNL1        0.0463
     33 CL          8.8551  -11.7427   -1.3468 Cl      1  UNL1       -0.0832
     34 O           7.0871   -5.2200    0.7435 O.3     1  UNL1       -0.3303
     35 H           0.4522    1.0037    0.0037 H       1  UNL1        0.0268
     36 H           0.4982   -0.6140    0.7075 H       1  UNL1        0.0268
     37 H           0.4027   -0.4338   -1.0521 H       1  UNL1        0.0268
     38 H           2.4680    1.9505   -1.1984 H       1  UNL1        0.0268
     39 H           2.5839    0.5456   -2.3103 H       1  UNL1        0.0268
     40 H           3.9459    1.0686   -1.3258 H       1  UNL1        0.0268
     41 H           2.4101    1.7010    1.1885 H       1  UNL1        0.0268
     42 H           3.8044    0.6530    1.0700 H       1  UNL1        0.0268
     43 H           2.3130    0.0862    1.8977 H       1  UNL1        0.0268
     44 H           4.0051   -3.6062   -0.2932 H       1  UNL1        0.1524
     45 H           6.5663   -2.6767   -1.1582 H       1  UNL1        0.0542
     46 H           7.9334   -2.9266    0.9280 H       1  UNL1        0.0332
     47 H           6.4754   -3.2621    1.8524 H       1  UNL1        0.0332
     48 H           4.4938   -2.3001    2.7555 H       1  UNL1        0.0626
     49 H           3.0224   -0.7951    3.9653 H       1  UNL1        0.0618
     50 H           3.3146    1.6288    3.8690 H       1  UNL1        0.0620
     51 H           5.0512    2.6933    2.5164 H       1  UNL1        0.0683
     52 H           7.1511    1.9685    0.8162 H       1  UNL1        0.4459
     53 H           8.6147   -0.2327    0.9336 H       1  UNL1        0.1077
     54 H           7.4733   -0.2450   -0.4607 H       1  UNL1        0.1077
     55 H           7.1963   -4.7783   -1.2744 H       1  UNL1        0.0799
     56 H           5.3792   -5.8508   -1.7692 H       1  UNL1        0.1434
     57 H           6.0296   -7.7062   -0.7072 H       1  UNL1        0.1442
     58 H           7.1539   -7.0683    1.6243 H       1  UNL1        0.0904
     59 H           7.7972   -9.2241   -0.9182 H       1  UNL1        0.0427
     60 H           8.8106   -9.2418    0.5471 H       1  UNL1        0.0427
     61 H          12.7977   -8.1217   -2.8581 H       1  UNL1        0.0632
     62 H          13.2937  -10.5218   -2.8049 H       1  UNL1        0.0618
     63 H          11.4493  -12.1092   -2.3271 H       1  UNL1        0.0632
@<TRIPOS>UNITY_ATOM_ATTR
18 1
charge 1
@<TRIPOS>BOND
     1     1     2    1
     2     2     3    1
     3     2     4    1
     4     2     5    1
     5     5     6    1
     6     6     7    2
     7     6     8   am
     8     8     9    1
     9     9    10    1
    10    10    11    1
    11    11    12    2
    12    12    13   ar
    13    13    14   ar
    14    14    15   ar
    15    15    16   ar
    16    16    17   ar
    17    12    17   ar
    18    17    18    2
    19    18    19    1
    20    11    19    1
    21     9    20    1
    22    20    21    1
    23    21    22    1
    24    22    23    1
    25    23    24    1
    26    24    25    1
    27    25    26    1
    28    26    27   ar
    29    27    28    1
    30    27    29   ar
    31    29    30   ar
    32    30    31   ar
    33    31    32   ar
    34    26    32   ar
    35    32    33    1
    36    23    34    1
    37    20    34    1
    38     1    35    1
    39     1    36    1
    40     1    37    1
    41     3    38    1
    42     3    39    1
    43     3    40    1
    44     4    41    1
    45     4    42    1
    46     4    43    1
    47     8    44    1
    48     9    45    1
    49    10    46    1
    50    10    47    1
    51    13    48    1
    52    14    49    1
    53    15    50    1
    54    16    51    1
    55    18    52    1
    56    19    53    1
    57    19    54    1
    58    20    55    1
    59    21    56    1
    60    22    57    1
    61    23    58    1
    62    25    59    1
    63    25    60    1
    64    29    61    1
    65    30    62    1
    66    31    63    1
