REMARK  8 active torsions:
REMARK  status: ('A' for Active; 'I' for Inactive)
REMARK    1  A    between atoms: C_2  and  C_3 
REMARK       I    between atoms: C_2  and  N_17 
REMARK    2  A    between atoms: C_3  and  S_4 
REMARK    3  A    between atoms: C_5  and  S_4 
REMARK    4  A    between atoms: C_8  and  C_9 
REMARK    5  A    between atoms: N_17  and  CA_18 
REMARK    6  A    between atoms: CA_18  and  CB_19 
REMARK    7  A    between atoms: CA_18  and  C_29 
REMARK    8  A    between atoms: CB_19  and  CG_20 
ROOT
ATOM      1  O   UNK d   0       7.636   2.806   1.703  0.00  0.00    -0.273 OA
ATOM      2  C   UNK d   0       6.864   3.729   1.321  0.00  0.00     0.227 C 
ATOM      3  N   TRP d   1       7.435   4.927   0.884  0.00  0.00    -0.346 N 
ATOM      4  H   TRP d   1       8.450   4.922   0.798  0.00  0.00     0.163 HD
ENDROOT
BRANCH   2   5
ATOM      5  C   UNK d   0       5.339   3.573   1.461  0.00  0.00     0.180 C 
BRANCH   5   6
ATOM      6  S   UNK d   0       4.521   2.425   2.879  0.00  0.00    -0.112 SA
BRANCH   6   7
ATOM      7  C   UNK d   0       2.584   2.903   3.491  0.00  0.00     0.275 C 
ATOM      8  N   UNK d   0       2.407   2.584   4.897  0.00  0.00    -0.222 NA
ATOM      9  N   UNK d   0       2.007   4.078   5.667  0.00  0.00    -0.226 NA
ATOM     10  H   UNK d   0       3.322   2.267   5.205  0.00  0.00     0.144 HD
ATOM     11  C   UNK d   0       1.955   5.028   4.560  0.00  0.00     0.245 C 
ATOM     12  H   UNK d   0       2.876   4.331   6.152  0.00  0.00     0.143 HD
ATOM     13  O   UNK d   0       2.034   4.187   3.467  0.00  0.00    -0.336 OA
BRANCH  11  14
ATOM     14  C   UNK d   0       1.324   6.475   4.338  0.00  0.00    -0.013 C 
ATOM     15  C   UNK d   0       1.705   7.470   5.258  0.00  0.00     0.011 C 
ATOM     16  C   UNK d   0       1.251   8.796   5.190  0.00  0.00     0.002 C 
ATOM     17  C   UNK d   0       0.452   9.218   4.136  0.00  0.00     0.024 C 
ATOM     18  C   UNK d   0       0.242   8.348   3.082  0.00  0.00     0.034 C 
ATOM     19 CL   UNK d   0      -0.660   8.892   1.708  0.00  0.00    -0.084 Cl
ATOM     20  C   UNK d   0       0.709   7.017   3.160  0.00  0.00     0.035 C 
ENDBRANCH  11  14
ENDBRANCH   6   7
ENDBRANCH   5   6
ENDBRANCH   2   5
BRANCH   3  21
ATOM     21  CA  TRP d   1       6.926   6.303   0.415  0.00  0.00     0.190 C 
BRANCH  21  22
ATOM     22  CB  TRP d   1       6.417   7.269   1.508  0.00  0.00     0.077 C 
BRANCH  22  23
ATOM     23  CG  TRP d   1       5.163   6.747   2.037  0.00  0.00    -0.028 C 
ATOM     24  CD1 TRP d   1       5.068   6.256   3.316  0.00  0.00     0.096 C 
ATOM     25  NE1 TRP d   1       4.040   5.388   3.167  0.00  0.00    -0.365 N 
ATOM     26  CE2 TRP d   1       3.259   5.528   1.977  0.00  0.00     0.042 A 
ATOM     27  HE1 TRP d   1       4.042   4.562   3.763  0.00  0.00     0.165 HD
ATOM     28  CZ2 TRP d   1       2.053   4.898   1.372  0.00  0.00     0.030 A 
ATOM     29  CD2 TRP d   1       4.026   6.352   1.216  0.00  0.00    -0.002 A 
ATOM     30  CH2 TRP d   1       1.673   4.940   0.077  0.00  0.00     0.002 A 
ATOM     31  CZ3 TRP d   1       2.523   5.649  -0.696  0.00  0.00     0.001 A 
ATOM     32  CE3 TRP d   1       3.641   6.360  -0.149  0.00  0.00     0.014 A 
ENDBRANCH  22  23
ENDBRANCH  21  22
BRANCH  21  33
ATOM     33  C   TRP d   1       7.987   7.247  -0.228  0.00  0.00     0.197 C 
ATOM     34  O   TRP d   1       9.162   6.779  -0.239  0.00  0.00    -0.646 OA
ATOM     35  OXT TRP d   1       7.559   8.353  -0.671  0.00  0.00    -0.646 OA
ENDBRANCH  21  33
ENDBRANCH   3  21
TORSDOF 8
