@<TRIPOS>MOLECULE
*****
 47 49 0 0 0
SMALL
GASTEIGER

@<TRIPOS>ATOM
      1 C           1.2781   -1.4224    1.7676 C.3     1  UNL1       -0.0455
      2 C           0.6804   -2.7742    2.0614 C.3     1  UNL1        0.0313
      3 N           1.1040   -3.7840    1.0256 N.3     1  UNL1       -0.2993
      4 C           1.2320   -5.2451    1.3806 C.3     1  UNL1        0.0827
      5 C           1.9260   -6.1100    0.3771 C.3     1  UNL1       -0.0411
      6 C          -0.1422   -5.9682    1.3610 C.2     1  UNL1        0.2340
      7 O          -0.5201   -6.9123    0.6958 O.2     1  UNL1       -0.2738
      8 N          -0.8629   -5.3370    2.2580 N.am    1  UNL1       -0.2831
      9 C          -2.0799   -5.5412    2.9510 C.ar    1  UNL1        0.0509
     10 C          -3.2669   -4.2948    4.0559 C.ar    1  UNL1       -0.0392
     11 C          -5.0004   -4.8143    4.2913 C.ar    1  UNL1       -0.0599
     12 C          -5.4150   -6.4710    3.8183 C.ar    1  UNL1       -0.0604
     13 C          -4.2734   -7.5965    3.0463 C.ar    1  UNL1       -0.0425
     14 C          -2.6480   -7.1778    2.5829 C.ar    1  UNL1        0.0729
     15 C          -1.5750   -8.1390    2.7761 C.1     1  UNL1        0.1010
     16 N          -0.6144   -8.7261    3.0700 N.1     1  UNL1       -0.1908
     17 C          -0.8375   -2.5284    2.1622 C.ar    1  UNL1       -0.0230
     18 C          -1.5693   -1.6955    1.3024 C.ar    1  UNL1       -0.0565
     19 C          -2.9762   -1.7139    1.1556 C.ar    1  UNL1       -0.0609
     20 C          -3.7282   -2.8129    1.4735 C.ar    1  UNL1       -0.0540
     21 C          -3.0682   -3.8254    2.0788 C.ar    1  UNL1       -0.0176
     22 C          -3.9050   -5.3396    2.6037 C.ar    1  UNL1       -0.0540
     23 C          -3.2582   -6.1581    4.3413 C.ar    1  UNL1       -0.0612
     24 C          -1.7505   -5.6640    5.0743 C.ar    1  UNL1       -0.0612
     25 C          -0.9696   -4.2863    4.3965 C.ar    1  UNL1       -0.0537
     26 C          -1.5952   -3.3376    2.9655 C.ar    1  UNL1       -0.0132
     27 H           0.9077   -0.7190    2.5256 H       1  UNL1        0.0248
     28 H           0.9678   -1.0712    0.7797 H       1  UNL1        0.0248
     29 H           2.3631   -1.4529    1.7962 H       1  UNL1        0.0248
     30 H           1.0842   -3.0956    3.0303 H       1  UNL1        0.0508
     31 H           0.5216   -3.7051    0.1915 H       1  UNL1        0.1232
     32 H           1.7302   -5.3227    2.3647 H       1  UNL1        0.0554
     33 H           1.3353   -6.1017   -0.5468 H       1  UNL1        0.0249
     34 H           1.9168   -7.1421    0.7676 H       1  UNL1        0.0249
     35 H           2.9408   -5.7935    0.1940 H       1  UNL1        0.0249
     36 H          -0.2947   -4.5567    2.4639 H       1  UNL1        0.1549
     37 H          -3.3121   -3.1670    4.0708 H       1  UNL1        0.0636
     38 H          -5.7285   -4.1186    3.7397 H       1  UNL1        0.0618
     39 H          -6.4539   -6.7912    3.7975 H       1  UNL1        0.0618
     40 H          -4.3079   -8.5922    3.5202 H       1  UNL1        0.0631
     41 H          -1.0478   -0.9393    0.7361 H       1  UNL1        0.0621
     42 H          -3.4944   -0.8541    0.7562 H       1  UNL1        0.0618
     43 H          -4.8022   -2.7604    1.6475 H       1  UNL1        0.0624
     44 H          -4.8121   -5.5310    2.0201 H       1  UNL1        0.0624
     45 H          -3.6718   -6.9373    4.9888 H       1  UNL1        0.0618
     46 H          -1.0612   -6.5772    5.0323 H       1  UNL1        0.0618
     47 H           0.1063   -4.6714    4.2516 H       1  UNL1        0.0624
@<TRIPOS>BOND
     1     4     6    1
     2     6     7    2
     3     6     8   am
     4     8     9    1
     5     9    10   ar
     6    10    11   ar
     7    11    12   ar
     8    12    13   ar
     9    13    14   ar
    10     9    14   ar
    11    14    15    1
    12    15    16    3
    13     2    17    1
    14    17    18   ar
    15    18    19   ar
    16    19    20   ar
    17    20    21   ar
    18    21    22   ar
    19    22    23   ar
    20    23    24   ar
    21    24    25   ar
    22    25    26   ar
    23    17    26   ar
    24    21    26   ar
    25     4     5    1
    26     4     3    1
    27     2     3    1
    28     2     1    1
    29     1    27    1
    30     1    28    1
    31     1    29    1
    32     2    30    1
    33     3    31    1
    34     4    32    1
    35     5    33    1
    36     5    34    1
    37     5    35    1
    38     8    36    1
    39    10    37    1
    40    11    38    1
    41    12    39    1
    42    13    40    1
    43    18    41    1
    44    19    42    1
    45    20    43    1
    46    22    44    1
    47    23    45    1
    48    24    46    1
    49    25    47    1
