@<TRIPOS>MOLECULE
*****
 51 52 0 0 0
SMALL
GASTEIGER

@<TRIPOS>ATOM
      1 C           0.7110    7.1038    1.4294 C.3     1  UNL1       -0.0570
      2 C           1.3731    5.8256    0.9117 C.3     1  UNL1        0.0215
      3 C           2.0885    6.1236   -0.3937 C.2     1  UNL1        0.2169
      4 O           1.8765    7.1878   -0.9849 O.2     1  UNL1       -0.2755
      5 N           2.9051    5.1177   -0.8831 N.am    1  UNL1       -0.2853
      6 C           3.7089    5.2887   -2.0454 C.ar    1  UNL1        0.0364
      7 C           3.6833    4.2955   -3.0255 C.ar    1  UNL1       -0.0385
      8 C           4.4602    4.4191   -4.1906 C.ar    1  UNL1       -0.0391
      9 C           5.3538    5.4779   -4.3880 C.ar    1  UNL1        0.0280
     10 N           6.1088    5.6532   -5.5508 N.pl3   1  UNL1       -0.3331
     11 C           6.2355    4.5919   -6.5699 C.3     1  UNL1        0.0948
     12 C           6.8564    3.2986   -6.0120 C.3     1  UNL1       -0.0381
     13 C           7.1210    5.0364   -7.7621 C.2     1  UNL1        0.2372
     14 O           8.0783    4.3461   -8.1240 O.2     1  UNL1       -0.2734
     15 N           6.7687    6.2238   -8.3953 N.am    1  UNL1       -0.2839
     16 C           7.4613    6.6709   -9.5490 C.ar    1  UNL1        0.0345
     17 C           7.7691    8.0173   -9.7326 C.ar    1  UNL1       -0.0404
     18 C           8.4474    8.4190  -10.8910 C.ar    1  UNL1       -0.0590
     19 C           8.8297    7.4765  -11.8543 C.ar    1  UNL1       -0.0482
     20 C           8.5016    6.1268  -11.6980 C.ar    1  UNL1        0.0094
     21 S           8.9389    4.9866  -13.0074 S.3     1  UNL1       -0.1285
     22 C           8.2430    3.4038  -12.4363 C.3     1  UNL1       -0.0135
     23 C           7.8231    5.7468  -10.5401 C.ar    1  UNL1       -0.0271
     24 C           5.3806    6.4584   -3.3893 C.ar    1  UNL1       -0.0362
     25 C           4.5730    6.3860   -2.2258 C.ar    1  UNL1       -0.0275
     26 C           4.7383    7.4645   -1.1896 C.3     1  UNL1       -0.0379
     27 H           0.1308    6.9223    2.3373 H       1  UNL1        0.0234
     28 H           0.0336    7.5256    0.6767 H       1  UNL1        0.0234
     29 H           1.4654    7.8694    1.6483 H       1  UNL1        0.0234
     30 H           0.6064    5.0670    0.7238 H       1  UNL1        0.0356
     31 H           2.0745    5.4434    1.6614 H       1  UNL1        0.0356
     32 H           2.6600    4.1673   -0.6302 H       1  UNL1        0.1548
     33 H           3.0194    3.4383   -2.9465 H       1  UNL1        0.0637
     34 H           4.3472    3.6416   -4.9393 H       1  UNL1        0.0637
     35 H           6.9037    6.2833   -5.4676 H       1  UNL1        0.1468
     36 H           5.2406    4.3820   -6.9796 H       1  UNL1        0.0591
     37 H           7.8941    3.4566   -5.6974 H       1  UNL1        0.0252
     38 H           6.8572    2.5200   -6.7858 H       1  UNL1        0.0252
     39 H           6.3285    2.8803   -5.1546 H       1  UNL1        0.0252
     40 H           6.1216    6.8517   -7.9309 H       1  UNL1        0.1549
     41 H           7.5603    8.7547   -8.9628 H       1  UNL1        0.0636
     42 H           8.6876    9.4683  -11.0501 H       1  UNL1        0.0618
     43 H           9.3847    7.8073  -12.7306 H       1  UNL1        0.0629
     44 H           8.4374    2.6383  -13.1922 H       1  UNL1        0.0344
     45 H           7.1589    3.4716  -12.3001 H       1  UNL1        0.0344
     46 H           8.7153    3.0840  -11.5028 H       1  UNL1        0.0344
     47 H           7.5373    4.7124  -10.3976 H       1  UNL1        0.0647
     48 H           6.0559    7.3053   -3.4963 H       1  UNL1        0.0639
     49 H           5.5559    8.1450   -1.4395 H       1  UNL1        0.0278
     50 H           4.9576    7.0167   -0.2153 H       1  UNL1        0.0278
     51 H           3.8560    8.0992   -1.1202 H       1  UNL1        0.0278
@<TRIPOS>BOND
     1     1     2    1
     2     2     3    1
     3     3     4    2
     4     3     5   am
     5     5     6    1
     6     6     7   ar
     7     7     8   ar
     8     8     9   ar
     9     9    10    1
    10    11    13    1
    11    13    14    2
    12    13    15   am
    13    15    16    1
    14    16    17   ar
    15    17    18   ar
    16    18    19   ar
    17    19    20   ar
    18    20    21    1
    19    21    22    1
    20    20    23   ar
    21    16    23   ar
    22     9    24   ar
    23    24    25   ar
    24     6    25   ar
    25    25    26    1
    26    11    12    1
    27    11    10    1
    28     1    27    1
    29     1    28    1
    30     1    29    1
    31     2    30    1
    32     2    31    1
    33     5    32    1
    34     7    33    1
    35     8    34    1
    36    10    35    1
    37    11    36    1
    38    12    37    1
    39    12    38    1
    40    12    39    1
    41    15    40    1
    42    17    41    1
    43    18    42    1
    44    19    43    1
    45    22    44    1
    46    22    45    1
    47    22    46    1
    48    23    47    1
    49    24    48    1
    50    26    49    1
    51    26    50    1
    52    26    51    1
