@<TRIPOS>MOLECULE
*****
 58 62 0 0 0
SMALL
GASTEIGER

@<TRIPOS>ATOM
      1 C           2.5022    8.4880  -15.7269 C.3     1  UNL1        0.0820
      2 O           2.2636    8.4605  -14.3065 O.3     1  UNL1       -0.4646
      3 C           1.4793    9.4687  -13.8564 C.2     1  UNL1        0.3375
      4 O           1.0124   10.3653  -14.5727 O.2     1  UNL1       -0.2452
      5 C           1.2311    9.3726  -12.4071 C.2     1  UNL1        0.0670
      6 C           0.0001    9.4950  -11.8660 C.2     1  UNL1       -0.0441
      7 C          -1.2809    9.9196  -12.5361 C.3     1  UNL1       -0.0298
      8 C          -1.8398   11.1535  -11.8157 C.3     1  UNL1       -0.0493
      9 C          -1.9682   10.9083  -10.3077 C.3     1  UNL1       -0.0515
     10 C          -0.6008   10.5691   -9.7101 C.3     1  UNL1       -0.0373
     11 C          -0.0842    9.2894  -10.3710 C.3     1  UNL1        0.0291
     12 S           1.5643    8.7340   -9.8440 S.3     1  UNL1       -0.1257
     13 C           2.3521    9.1208  -11.4425 C.3     1  UNL1        0.1034
     14 N           3.3245   10.2439  -11.3698 N.am    1  UNL1       -0.2831
     15 C           3.1903   11.3665  -10.5656 C.2     1  UNL1        0.3049
     16 O           2.2434   11.5338   -9.8131 O.2     1  UNL1       -0.2525
     17 N           4.2062   12.3268  -10.6182 N.am    1  UNL1       -0.2695
     18 C           4.1611   13.4801   -9.7124 C.ar    1  UNL1        0.0348
     19 C           4.4440   14.7900  -10.0707 C.ar    1  UNL1       -0.0400
     20 C           4.3511   15.8852   -9.0868 C.ar    1  UNL1       -0.0502
     21 C           3.7791   15.7971   -7.7320 C.ar    1  UNL1        0.0240
     22 C           3.5289   17.1206   -6.6062 C.3     1  UNL1        0.1985
     23 C           2.2979   18.3594   -6.2165 C.2     1  UNL1        0.0013
     24 C           1.9055   19.1046   -7.2766 C.ar    1  UNL1        0.0497
     25 C           1.1310   20.1375   -7.9755 C.ar    1  UNL1       -0.0300
     26 C           0.7810   19.7637   -9.2414 C.ar    1  UNL1        0.0419
     27 CL         -0.4444   20.5108  -10.1912 Cl      1  UNL1       -0.0835
     28 C           1.2927   18.5331   -9.8018 C.ar    1  UNL1       -0.0372
     29 C           2.3226   17.9062   -9.2225 C.ar    1  UNL1        0.0112
     30 C           2.9676   18.5565   -8.0844 C.ar    1  UNL1        0.2089
     31 N           4.0487   18.2091   -7.4488 N.2     1  UNL1       -0.2304
     32 C           3.6789   14.4389   -7.3881 C.ar    1  UNL1       -0.0502
     33 C           3.8612   13.3370   -8.3465 C.ar    1  UNL1       -0.0400
     34 H           3.1400    7.6397  -15.9953 H       1  UNL1        0.0661
     35 H           3.0267    9.4080  -16.0070 H       1  UNL1        0.0661
     36 H           1.5657    8.3989  -16.2906 H       1  UNL1        0.0661
     37 H          -2.0127    9.1039  -12.4991 H       1  UNL1        0.0311
     38 H          -1.1466   10.1658  -13.5920 H       1  UNL1        0.0311
     39 H          -2.8156   11.4220  -12.2329 H       1  UNL1        0.0268
     40 H          -1.1717   12.0090  -11.9900 H       1  UNL1        0.0268
     41 H          -2.6547   10.0722  -10.1303 H       1  UNL1        0.0266
     42 H          -2.3840   11.7922   -9.8152 H       1  UNL1        0.0266
     43 H          -0.6735   10.4551   -8.6235 H       1  UNL1        0.0279
     44 H           0.0464   11.4288   -9.9015 H       1  UNL1        0.0279
     45 H          -0.7631    8.4642  -10.1297 H       1  UNL1        0.0458
     46 H           2.8892    8.2070  -11.7191 H       1  UNL1        0.0668
     47 H           4.0388   10.2085  -12.0783 H       1  UNL1        0.1516
     48 H           4.7844   12.3529  -11.4486 H       1  UNL1        0.1564
     49 H           4.6609   15.0259  -11.1176 H       1  UNL1        0.0636
     50 H           4.6940   16.8390   -9.5035 H       1  UNL1        0.0623
     51 H           4.2002   16.9556   -5.7548 H       1  UNL1        0.1166
     52 H           2.2451   18.9143   -5.2554 H       1  UNL1        0.0649
     53 H           0.7431   21.0841   -7.5970 H       1  UNL1        0.0640
     54 H           0.8333   18.0190  -10.6327 H       1  UNL1        0.0634
     55 H           2.4168   16.8626   -9.4346 H       1  UNL1        0.0684
     56 H           4.4148   18.8078   -6.6902 H       1  UNL1        0.4466
     57 H           3.5367   14.1222   -6.3602 H       1  UNL1        0.0623
     58 H           3.7862   12.3110   -7.9770 H       1  UNL1        0.0636
@<TRIPOS>UNITY_ATOM_ATTR
31 1
charge 1
@<TRIPOS>BOND
     1     1     2    1
     2     2     3    1
     3     3     4    2
     4     3     5    1
     5     5     6    2
     6     6     7    1
     7     7     8    1
     8     8     9    1
     9     9    10    1
    10    10    11    1
    11     6    11    1
    12    11    12    1
    13    12    13    1
    14     5    13    1
    15    14    15   am
    16    15    16    2
    17    15    17   am
    18    17    18    1
    19    18    19   ar
    20    19    20   ar
    21    20    21   ar
    22    22    23    1
    23    23    24    2
    24    24    25   ar
    25    25    26   ar
    26    26    27    1
    27    26    28   ar
    28    28    29   ar
    29    29    30   ar
    30    24    30   ar
    31    30    31    2
    32    22    31    1
    33    21    32   ar
    34    32    33   ar
    35    18    33   ar
    36    22    21    1
    37    13    14    1
    38     1    34    1
    39     1    35    1
    40     1    36    1
    41     7    37    1
    42     7    38    1
    43     8    39    1
    44     8    40    1
    45     9    41    1
    46     9    42    1
    47    10    43    1
    48    10    44    1
    49    11    45    1
    50    13    46    1
    51    14    47    1
    52    17    48    1
    53    19    49    1
    54    20    50    1
    55    22    51    1
    56    23    52    1
    57    25    53    1
    58    28    54    1
    59    29    55    1
    60    31    56    1
    61    32    57    1
    62    33    58    1
