@<TRIPOS>MOLECULE
*****
 61 62 0 0 0
SMALL
GASTEIGER

@<TRIPOS>ATOM
      1 C           1.0157    0.2130    0.1710 C.3     1  UNL1       -0.0245
      2 C           2.5137    0.1109   -0.0384 C.3     1  UNL1       -0.0348
      3 N           2.9613   -1.2125   -0.6552 N.4     1  UNL1        0.2359
      4 C           2.4691   -1.4593   -2.0747 C.3     1  UNL1       -0.0348
      5 C           0.9733   -1.6329   -2.2004 C.3     1  UNL1       -0.0245
      6 C           4.5045   -1.2644   -0.6136 C.3     1  UNL1       -0.0160
      7 C           5.0782   -2.5961   -1.1188 C.3     1  UNL1        0.0520
      8 N           6.5223   -2.6471   -1.1389 N.am    1  UNL1       -0.3063
      9 C           7.1448   -3.7562   -1.7124 C.2     1  UNL1        0.2442
     10 O           6.5292   -4.7041   -2.1557 O.2     1  UNL1       -0.2702
     11 C           8.6285   -3.7434   -1.7072 C.ar    1  UNL1        0.0368
     12 C           9.4279   -4.3031   -2.7151 C.ar    1  UNL1       -0.0479
     13 C          10.8521   -4.4052   -2.5656 C.ar    1  UNL1       -0.0398
     14 C          11.4929   -3.9095   -1.4169 C.ar    1  UNL1        0.0326
     15 N          12.9562   -3.8681   -1.2419 N.am    1  UNL1       -0.2966
     16 C          13.6693   -3.2431   -0.1609 C.2     1  UNL1        0.1411
     17 S          12.9456   -2.4277    1.1359 S.2     1  UNL1       -0.0182
     18 N          15.0883   -3.3110   -0.2092 N.am    1  UNL1       -0.2640
     19 C          15.9099   -2.7905    0.8191 C.2     1  UNL1        0.2424
     20 O          15.5114   -2.2626    1.8567 O.2     1  UNL1       -0.2704
     21 C          17.3862   -2.8621    0.7027 C.2     1  UNL1        0.0011
     22 C          18.0841   -2.3593    1.7501 C.2     1  UNL1       -0.0497
     23 C          19.5425   -2.2601    1.8168 C.ar    1  UNL1       -0.0245
     24 C          20.2396   -2.5121    3.0102 C.ar    1  UNL1       -0.0482
     25 C          21.6272   -2.3263    3.0701 C.ar    1  UNL1        0.0161
     26 C          22.3202   -1.9499    1.9124 C.ar    1  UNL1        0.2732
     27 N          23.7877   -1.9100    1.9117 N.pl3   1  UNL1        0.0796
     28 O          24.3733   -2.1900    2.9665 O.2     1  UNL1        0.0414
     29 O          24.3534   -1.6284    0.8452 O.co2   1  UNL1       -0.5760
     30 C          21.6277   -1.6689    0.7303 C.ar    1  UNL1        0.0161
     31 C          20.2428   -1.8087    0.6956 C.ar    1  UNL1       -0.0482
     32 C          10.6095   -3.4435   -0.4396 C.ar    1  UNL1       -0.0398
     33 C           9.2376   -3.3046   -0.5636 C.ar    1  UNL1       -0.0479
     34 H           0.7675    1.0777    0.7910 H       1  UNL1        0.0281
     35 H           0.6018   -0.6894    0.6304 H       1  UNL1        0.0281
     36 H           0.4914    0.4266   -0.7560 H       1  UNL1        0.0281
     37 H           3.0039    0.1814    0.9392 H       1  UNL1        0.0812
     38 H           2.8829    0.9110   -0.6871 H       1  UNL1        0.0812
     39 H           2.6222   -1.9758   -0.0503 H       1  UNL1        0.2034
     40 H           2.8959   -2.4074   -2.4014 H       1  UNL1        0.0812
     41 H           2.8534   -0.6471   -2.6977 H       1  UNL1        0.0812
     42 H           0.5759   -2.3002   -1.4300 H       1  UNL1        0.0281
     43 H           0.7274   -2.0401   -3.1842 H       1  UNL1        0.0281
     44 H           0.4464   -0.6847   -2.1874 H       1  UNL1        0.0281
     45 H           4.8085   -1.0956    0.4267 H       1  UNL1        0.0830
     46 H           4.8672   -0.4278   -1.2228 H       1  UNL1        0.0830
     47 H           4.7784   -2.7857   -2.1513 H       1  UNL1        0.0515
     48 H           4.7076   -3.4258   -0.5060 H       1  UNL1        0.0515
     49 H           7.0852   -1.8480   -0.8691 H       1  UNL1        0.1492
     50 H           8.9427   -4.6648   -3.6209 H       1  UNL1        0.0626
     51 H          11.4011   -4.9113   -3.3579 H       1  UNL1        0.0636
     52 H          13.4771   -4.2466   -2.0292 H       1  UNL1        0.1538
     53 H          15.5431   -3.7180   -1.0138 H       1  UNL1        0.1568
     54 H          17.8566   -3.2766   -0.1711 H       1  UNL1        0.0670
     55 H          17.5798   -1.9340    2.6260 H       1  UNL1        0.0625
     56 H          19.7191   -2.8716    3.8983 H       1  UNL1        0.0626
     57 H          22.1506   -2.4853    4.0116 H       1  UNL1        0.0685
     58 H          22.1422   -1.3423   -0.1695 H       1  UNL1        0.0685
     59 H          19.7093   -1.5611   -0.2182 H       1  UNL1        0.0626
     60 H          10.8953   -3.1970    0.5584 H       1  UNL1        0.0636
     61 H           8.6989   -2.9169    0.2960 H       1  UNL1        0.0626
@<TRIPOS>UNITY_ATOM_ATTR
3 1
charge 1
27 1
charge 1
29 1
charge -1
@<TRIPOS>BOND
     1     1     2    1
     2     2     3    1
     3     3     4    1
     4     4     5    1
     5     3     6    1
     6     6     7    1
     7     7     8    1
     8     8     9   am
     9     9    10    2
    10     9    11    1
    11    11    12   ar
    12    12    13   ar
    13    13    14   ar
    14    14    15    1
    15    15    16    1
    16    16    17    2
    17    16    18    1
    18    18    19   am
    19    19    20    2
    20    19    21    1
    21    21    22    2
    22    22    23    1
    23    23    24   ar
    24    24    25   ar
    25    25    26   ar
    26    26    27    1
    27    27    28    2
    28    27    29    1
    29    26    30   ar
    30    30    31   ar
    31    23    31   ar
    32    14    32   ar
    33    32    33   ar
    34    11    33   ar
    35     1    34    1
    36     1    35    1
    37     1    36    1
    38     2    37    1
    39     2    38    1
    40     3    39    1
    41     4    40    1
    42     4    41    1
    43     5    42    1
    44     5    43    1
    45     5    44    1
    46     6    45    1
    47     6    46    1
    48     7    47    1
    49     7    48    1
    50     8    49    1
    51    12    50    1
    52    13    51    1
    53    15    52    1
    54    18    53    1
    55    21    54    1
    56    22    55    1
    57    24    56    1
    58    25    57    1
    59    30    58    1
    60    31    59    1
    61    32    60    1
    62    33    61    1
