REMARK  5 active torsions:
REMARK  status: ('A' for Active; 'I' for Inactive)
REMARK       I    between atoms: N_1  and  C_2 
REMARK       I    between atoms: C_2  and  N_4 
REMARK    1  A    between atoms: N_4  and  N_5 
REMARK       I    between atoms: N_5  and  C_6 
REMARK       I    between atoms: C_6  and  N_8 
REMARK    2  A    between atoms: N_8  and  C_9 
REMARK    3  A    between atoms: C_9  and  C_10 
REMARK    4  A    between atoms: C_14  and  O_15 
REMARK    5  A    between atoms: O_15  and  C_16 
ROOT
ATOM      1  N   UNL d   1       4.602  -0.136  -1.242  0.00  0.00    -0.248 N 
ATOM      2  C   UNL d   1       5.234  -0.291  -2.466  0.00  0.00     0.335 C 
ATOM      3  O   UNL d   1       4.608  -0.408  -3.518  0.00  0.00    -0.246 OA
ATOM      4  N   UNL d   1       6.615  -0.314  -2.416  0.00  0.00    -0.338 N 
ATOM      5  H   UNL d   1       5.082  -0.043  -0.352  0.00  0.00     0.192 HD
ATOM      6  H   UNL d   1       7.097  -0.187  -1.538  0.00  0.00     0.164 HD
ENDROOT
BRANCH   4   7
ATOM      7  C   UNL d   1       7.409  -0.498  -3.630  0.00  0.00     0.163 C 
BRANCH   7   8
ATOM      8  C   UNL d   1       8.902  -0.509  -3.397  0.00  0.00    -0.035 A 
ATOM      9  C   UNL d   1       9.680  -1.652  -3.276  0.00  0.00     0.028 A 
ATOM     10  C   UNL d   1      11.051  -1.506  -3.070  0.00  0.00     0.120 A 
ATOM     11  N   UNL d   1      11.690  -0.315  -2.982  0.00  0.00    -0.237 NA
ATOM     12  C   UNL d   1      10.935   0.791  -3.118  0.00  0.00     0.164 A 
ATOM     13  C   UNL d   1       9.565   0.708  -3.326  0.00  0.00     0.066 A 
BRANCH  12  14
ATOM     14  O   UNL d   1      11.632   1.965  -3.032  0.00  0.00    -0.329 OA
BRANCH  14  15
ATOM     15  C   UNL d   1      10.939   3.212  -3.028  0.00  0.00     0.130 C 
ATOM     16  C   UNL d   1      10.214   3.586  -4.325  0.00  0.00     0.032 C 
ATOM     17  C   UNL d   1       9.239   4.674  -3.897  0.00  0.00     0.002 C 
ATOM     18  C   UNL d   1       8.958   4.466  -2.406  0.00  0.00     0.002 C 
ATOM     19  C   UNL d   1       9.911   3.390  -1.904  0.00  0.00     0.032 C 
ENDBRANCH  14  15
ENDBRANCH  12  14
ENDBRANCH   7   8
ENDBRANCH   4   7
BRANCH   1  20
ATOM     20  N   UNL d   1       3.171  -0.131  -1.181  0.00  0.00    -0.248 N 
ATOM     21  C   UNL d   1       2.526   0.007   0.023  0.00  0.00     0.332 C 
ATOM     22  N   UNL d   1       1.168  -0.001  -0.037  0.00  0.00    -0.351 N 
ATOM     23  O   UNL d   1       3.103   0.133   1.105  0.00  0.00    -0.246 OA
ATOM     24  H   UNL d   1       0.661   0.100   0.836  0.00  0.00     0.160 HD
ATOM     25  H   UNL d   1       0.623  -0.100  -0.880  0.00  0.00     0.160 HD
ATOM     26  H   UNL d   1       2.679  -0.238  -2.063  0.00  0.00     0.192 HD
ENDBRANCH   1  20
TORSDOF 5
