@<TRIPOS>MOLECULE
*****
 54 58 0 0 0
SMALL
GASTEIGER

@<TRIPOS>ATOM
      1 C           1.0712    0.1081   -0.0975 C.3     1  UNL1       -0.0358
      2 C           2.6024    0.1369   -0.0385 C.3     1  UNL1        0.0684
      3 C           3.0322    0.2879    1.4293 C.3     1  UNL1       -0.0358
      4 C           3.0918   -1.1814   -0.5842 C.3     1  UNL1        0.0025
      5 C           4.5705   -1.2279   -0.8297 C.ar    1  UNL1       -0.0158
      6 C           5.3076   -0.0281   -0.9375 C.ar    1  UNL1        0.0697
      7 C           6.7015   -0.0707   -1.1381 C.ar    1  UNL1        0.2785
      8 N           7.4786    1.0655   -1.2449 N.pl3   1  UNL1       -0.2733
      9 C           7.4992    2.2113   -0.2860 C.3     1  UNL1        0.0408
     10 C           7.3496    3.5706   -1.0115 C.3     1  UNL1        0.0636
     11 O           8.3172    3.6951   -2.0617 O.3     1  UNL1       -0.3767
     12 C           8.1429    2.6525   -3.0287 C.3     1  UNL1        0.0636
     13 C           8.3808    1.2681   -2.3927 C.3     1  UNL1        0.0408
     14 N           7.2827   -1.2954   -1.2683 N.ar    1  UNL1       -0.1851
     15 C           6.5634   -2.4704   -1.1750 C.ar    1  UNL1        0.2566
     16 S           7.1807   -4.0810   -1.2850 S.2     1  UNL1       -0.0132
     17 C           5.6239   -4.8044   -1.0479 C.ar    1  UNL1        0.1033
     18 C           5.2710   -6.2388   -1.0049 C.2     1  UNL1        0.2781
     19 O           4.0991   -6.6030   -0.8261 O.2     1  UNL1       -0.2673
     20 N           6.2972   -7.1127   -1.1756 N.am    1  UNL1       -0.1518
     21 C           5.9927   -8.3675   -1.1447 C.ar    1  UNL1        0.1631
     22 N           4.8288   -9.0951   -0.9724 N.ar    1  UNL1       -0.3421
     23 C           4.9461  -10.4628   -1.0165 C.ar    1  UNL1        0.0104
     24 C           6.1968  -10.8970   -1.2205 C.ar    1  UNL1       -0.0052
     25 S           7.3162   -9.5551   -1.3697 S.2     1  UNL1       -0.0608
     26 C           4.6777   -3.8100   -0.9009 C.ar    1  UNL1        0.0582
     27 N           3.3739   -4.1071   -0.7014 N.pl3   1  UNL1       -0.3563
     28 C           5.2015   -2.4777   -0.9628 C.ar    1  UNL1        0.0793
     29 C           4.5475    1.2829   -0.8138 C.3     1  UNL1        0.0812
     30 O           3.1200    1.1623   -0.8862 O.3     1  UNL1       -0.3687
     31 H           0.6767   -0.7056    0.5261 H       1  UNL1        0.0257
     32 H           0.7045   -0.0516   -1.1182 H       1  UNL1        0.0257
     33 H           0.6493    1.0505    0.2582 H       1  UNL1        0.0257
     34 H           2.6189   -0.5185    2.0446 H       1  UNL1        0.0257
     35 H           2.7027    1.2517    1.8215 H       1  UNL1        0.0257
     36 H           4.1189    0.2422    1.5562 H       1  UNL1        0.0257
     37 H           2.6023   -1.4349   -1.5350 H       1  UNL1        0.0341
     38 H           2.8357   -1.9186    0.1793 H       1  UNL1        0.0341
     39 H           8.4815    2.2025    0.2021 H       1  UNL1        0.0488
     40 H           6.7590    2.1284    0.5126 H       1  UNL1        0.0488
     41 H           7.5129    4.3992   -0.3122 H       1  UNL1        0.0575
     42 H           6.3489    3.7025   -1.4380 H       1  UNL1        0.0575
     43 H           8.8644    2.8211   -3.8337 H       1  UNL1        0.0575
     44 H           7.1356    2.7292   -3.4559 H       1  UNL1        0.0575
     45 H           9.4080    1.2148   -2.0151 H       1  UNL1        0.0488
     46 H           8.2428    0.4935   -3.1522 H       1  UNL1        0.0488
     47 H           8.2878   -1.3387   -1.4022 H       1  UNL1        0.4554
     48 H           3.9287   -8.6486   -0.8231 H       1  UNL1        0.1671
     49 H           4.0685  -11.0891   -0.8919 H       1  UNL1        0.0813
     50 H           6.5150  -11.9275   -1.2910 H       1  UNL1        0.0709
     51 H           3.0468   -5.0786   -0.6579 H       1  UNL1        0.1424
     52 H           2.5876   -3.4748   -0.7506 H       1  UNL1        0.1424
     53 H           4.8493    1.9657   -1.6112 H       1  UNL1        0.0613
     54 H           4.7754    1.7547    0.1447 H       1  UNL1        0.0613
@<TRIPOS>UNITY_ATOM_ATTR
14 1
charge 1
@<TRIPOS>BOND
     1     1     2    1
     2     2     3    1
     3     2     4    1
     4     4     5    1
     5     5     6   ar
     6     6     7   ar
     7     7     8    1
     8     8     9    1
     9     9    10    1
    10    10    11    1
    11    11    12    1
    12    12    13    1
    13     8    13    1
    14     7    14   ar
    15    14    15   ar
    16    15    16   ar
    17    16    17   ar
    18    17    18    1
    19    18    19    2
    20    18    20    1
    21    20    21    2
    22    21    22   ar
    23    22    23   ar
    24    23    24   ar
    25    24    25   ar
    26    21    25   ar
    27    17    26   ar
    28    26    27    1
    29    26    28   ar
    30     5    28   ar
    31    15    28   ar
    32     6    29    1
    33    29    30    1
    34     2    30    1
    35     1    31    1
    36     1    32    1
    37     1    33    1
    38     3    34    1
    39     3    35    1
    40     3    36    1
    41     4    37    1
    42     4    38    1
    43     9    39    1
    44     9    40    1
    45    10    41    1
    46    10    42    1
    47    12    43    1
    48    12    44    1
    49    13    45    1
    50    13    46    1
    51    14    47    1
    52    22    48    1
    53    23    49    1
    54    24    50    1
    55    27    51    1
    56    27    52    1
    57    29    53    1
    58    29    54    1
