@<TRIPOS>MOLECULE
*****
 57 60 0 0 0
SMALL
GASTEIGER

@<TRIPOS>ATOM
      1 C          -2.6979    1.6397   -0.0321 C.3     1  UNL1       -0.0397
      2 C          -1.6462    0.5732    0.0197 C.ar    1  UNL1       -0.0490
      3 C          -2.0193   -0.7605    0.0468 C.ar    1  UNL1       -0.0570
      4 C          -1.0457   -1.7577    0.0965 C.ar    1  UNL1       -0.0388
      5 C           0.3359   -1.4921    0.0955 C.ar    1  UNL1        0.0532
      6 N           1.3158   -2.5611    0.0823 N.am    1  UNL1       -0.2679
      7 C           0.9938   -3.9075    0.2472 C.2     1  UNL1        0.3082
      8 O          -0.1245   -4.2895    0.6004 O.2     1  UNL1       -0.2521
      9 N           2.0017   -4.8190   -0.0387 N.am    1  UNL1       -0.2675
     10 C           1.6744   -6.2219   -0.1565 C.ar    1  UNL1        0.0576
     11 C           2.4211   -7.1889    0.5884 C.ar    1  UNL1       -0.0174
     12 C           2.1643   -8.5728    0.4496 C.ar    1  UNL1        0.0355
     13 N           3.0161   -9.5723    1.0328 N.am    1  UNL1       -0.2814
     14 C           2.9414  -10.9355    0.7287 C.2     1  UNL1        0.2483
     15 O           2.1126  -11.4845   -0.0063 O.2     1  UNL1       -0.2699
     16 C           3.9296  -11.8773    1.3039 C.ar    1  UNL1        0.0372
     17 C           4.2978  -12.9947    0.5229 C.ar    1  UNL1       -0.0469
     18 C           5.0034  -14.0559    1.0883 C.ar    1  UNL1       -0.0257
     19 C           5.4015  -13.9661    2.4140 C.ar    1  UNL1        0.1234
     20 F           6.1205  -14.9592    2.9527 F       1  UNL1       -0.2055
     21 C           5.0640  -12.8593    3.1929 C.ar    1  UNL1       -0.0257
     22 C           4.3155  -11.8113    2.6433 C.ar    1  UNL1       -0.0469
     23 C           1.0749   -8.9441   -0.3333 C.ar    1  UNL1       -0.0386
     24 C           0.3407   -8.0136   -1.0605 C.ar    1  UNL1       -0.0371
     25 C           0.6258   -6.6478   -1.0245 C.ar    1  UNL1        0.0514
     26 N          -0.0830   -5.8603   -1.9115 N.pl3   1  UNL1       -0.3285
     27 C           0.5178   -4.8726   -2.7823 C.3     1  UNL1        0.0123
     28 C          -0.4250   -3.6892   -2.6937 C.3     1  UNL1       -0.0358
     29 C          -1.7932   -4.3118   -2.4707 C.3     1  UNL1       -0.0358
     30 C          -1.5221   -5.6396   -1.7469 C.3     1  UNL1        0.0123
     31 C           0.7026   -0.1379    0.0471 C.ar    1  UNL1        0.0624
     32 CL          2.3630    0.3420    0.0045 Cl      1  UNL1       -0.0816
     33 C          -0.2779    0.8812    0.0307 C.ar    1  UNL1       -0.0387
     34 H          -3.7067    1.2078   -0.0372 H       1  UNL1        0.0278
     35 H          -2.5892    2.2312   -0.9456 H       1  UNL1        0.0278
     36 H          -2.6211    2.2903    0.8433 H       1  UNL1        0.0278
     37 H          -3.0657   -1.0602    0.0251 H       1  UNL1        0.0621
     38 H          -1.4406   -2.7656    0.0798 H       1  UNL1        0.0637
     39 H           2.2828   -2.2824   -0.0311 H       1  UNL1        0.1564
     40 H           2.9548   -4.5727    0.1768 H       1  UNL1        0.1564
     41 H           3.1605   -6.8498    1.3096 H       1  UNL1        0.0655
     42 H           3.8142   -9.2454    1.5638 H       1  UNL1        0.1551
     43 H           3.9901  -13.0581   -0.5214 H       1  UNL1        0.0626
     44 H           5.2149  -14.9543    0.5155 H       1  UNL1        0.0646
     45 H           5.3537  -12.8428    4.2388 H       1  UNL1        0.0646
     46 H           3.9874  -10.9954    3.2784 H       1  UNL1        0.0626
     47 H           0.7584   -9.9726   -0.4463 H       1  UNL1        0.0637
     48 H          -0.4177   -8.3919   -1.7415 H       1  UNL1        0.0637
     49 H           0.5060   -5.2664   -3.8022 H       1  UNL1        0.0464
     50 H           1.5499   -4.6112   -2.5370 H       1  UNL1        0.0464
     51 H          -0.3712   -3.0237   -3.5565 H       1  UNL1        0.0281
     52 H          -0.1632   -3.0793   -1.8454 H       1  UNL1        0.0281
     53 H          -2.2662   -4.4933   -3.4397 H       1  UNL1        0.0281
     54 H          -2.4630   -3.6611   -1.8971 H       1  UNL1        0.0281
     55 H          -2.0951   -6.4394   -2.2297 H       1  UNL1        0.0464
     56 H          -1.8375   -5.5915   -0.6976 H       1  UNL1        0.0464
     57 H           0.0222    1.9272    0.0236 H       1  UNL1        0.0635
@<TRIPOS>BOND
     1     1     2    1
     2     2     3   ar
     3     3     4   ar
     4     4     5   ar
     5     5     6    1
     6     6     7   am
     7     7     8    2
     8     7     9   am
     9     9    10    1
    10    10    11   ar
    11    11    12   ar
    12    12    13    1
    13    13    14   am
    14    14    15    2
    15    14    16    1
    16    16    17   ar
    17    17    18   ar
    18    18    19   ar
    19    19    20    1
    20    19    21   ar
    21    21    22   ar
    22    16    22   ar
    23    12    23   ar
    24    23    24   ar
    25    24    25   ar
    26    10    25   ar
    27    25    26    1
    28    26    27    1
    29    27    28    1
    30    28    29    1
    31    29    30    1
    32    26    30    1
    33     5    31   ar
    34    31    32    1
    35    31    33   ar
    36     2    33   ar
    37     1    34    1
    38     1    35    1
    39     1    36    1
    40     3    37    1
    41     4    38    1
    42     6    39    1
    43     9    40    1
    44    11    41    1
    45    13    42    1
    46    17    43    1
    47    18    44    1
    48    21    45    1
    49    22    46    1
    50    23    47    1
    51    24    48    1
    52    27    49    1
    53    27    50    1
    54    28    51    1
    55    28    52    1
    56    29    53    1
    57    29    54    1
    58    30    55    1
    59    30    56    1
    60    33    57    1
