REMARK  7 active torsions:
REMARK  status: ('A' for Active; 'I' for Inactive)
REMARK    1  A    between atoms: O_2  and  C_3 
REMARK    2  A    between atoms: C_6  and  C_7 
REMARK       I    between atoms: C_7  and  N_9 
REMARK       I    between atoms: C_10  and  N_11 
REMARK       I    between atoms: C_10  and  N_23 
REMARK    3  A    between atoms: N_11  and  C_12 
REMARK    4  A    between atoms: C_12  and  C_13 
REMARK    5  A    between atoms: C_13  and  C_14 
REMARK    6  A    between atoms: N_23  and  C_24 
REMARK    7  A    between atoms: C_32  and  O_33 
ROOT
ATOM      1  C   UNL d   1       5.483  -4.293  -2.266  0.00  0.00     0.294 C 
ATOM      2  O   UNL d   1       6.427  -4.703  -1.572  0.00  0.00    -0.265 OA
ATOM      3  N   UNL d   1       5.098  -4.854  -3.465  0.00  0.00    -0.023 NA
ATOM      4  C   UNL d   1       5.697  -5.932  -3.904  0.00  0.00     0.704 C 
ATOM      5  N   UNL d   1       5.288  -6.496  -5.087  0.00  0.00    -0.224 N 
ATOM      6  N   UNL d   1       6.691  -6.622  -3.255  0.00  0.00    -0.190 N 
ATOM      7  H   UNL d   1       5.667  -7.408  -5.316  0.00  0.00     0.177 HD
ATOM      8  H   UNL d   1       6.991  -6.190  -2.377  0.00  0.00     0.184 HD
ENDROOT
BRANCH   5   9
ATOM      9  C   UNL d   1       4.164  -6.020  -5.850  0.00  0.00     0.142 C 
BRANCH   9  10
ATOM     10  C   UNL d   1       3.954  -6.863  -7.096  0.00  0.00     0.057 C 
BRANCH  10  11
ATOM     11  C   UNL d   1       2.805  -6.467  -7.971  0.00  0.00    -0.048 A 
ATOM     12  C   UNL d   1       2.577  -7.106  -9.118  0.00  0.00    -0.006 A 
ATOM     13  C   UNL d   1       3.272  -8.177  -9.734  0.00  0.00     0.014 A 
ATOM     14  C   UNL d   1       1.430  -6.443  -9.745  0.00  0.00     0.038 A 
ATOM     15  C   UNL d   1       2.938  -8.505 -10.986  0.00  0.00     0.001 A 
ATOM     16  C   UNL d   1       1.795  -7.893 -11.644  0.00  0.00     0.002 A 
ATOM     17  C   UNL d   1       1.042  -6.916 -11.092  0.00  0.00     0.030 A 
ATOM     18  N   UNL d   1       0.953  -5.523  -8.994  0.00  0.00    -0.385 N 
ATOM     19  C   UNL d   1       1.804  -5.362  -7.772  0.00  0.00     0.155 A 
ATOM     20  H   UNL d   1       0.108  -5.003  -9.233  0.00  0.00     0.160 HD
ENDBRANCH  10  11
ENDBRANCH   9  10
ENDBRANCH   5   9
BRANCH   6  21
ATOM     21  C   UNL d   1       7.539  -7.663  -3.671  0.00  0.00     0.049 A 
ATOM     22  C   UNL d   1       7.914  -8.648  -2.747  0.00  0.00     0.030 A 
ATOM     23  C   UNL d   1       8.734  -9.714  -3.127  0.00  0.00     0.003 A 
ATOM     24  C   UNL d   1       9.132  -9.849  -4.455  0.00  0.00     0.007 A 
ATOM     25  C   UNL d   1       8.777  -8.877  -5.391  0.00  0.00    -0.060 A 
ATOM     26  C   UNL d   1       9.247  -8.951  -6.811  0.00  0.00     0.048 C 
ATOM     27  C   UNL d   1       8.000  -7.785  -4.985  0.00  0.00     0.036 A 
ENDBRANCH   6  21
BRANCH   1  28
ATOM     28  C   UNL d   1       4.678  -3.136  -1.747  0.00  0.00     0.037 A 
ATOM     29  C   UNL d   1       5.000  -2.551  -0.520  0.00  0.00     0.020 A 
ATOM     30  C   UNL d   1       4.176  -1.556   0.040  0.00  0.00     0.040 A 
ATOM     31  C   UNL d   1       3.045  -1.053  -0.636  0.00  0.00     0.101 A 
ATOM     32  C   UNL d   1       2.765  -1.591  -1.913  0.00  0.00     0.102 A 
ATOM     33  C   UNL d   1       3.574  -2.633  -2.437  0.00  0.00     0.056 A 
BRANCH  31  34
ATOM     34  O   UNL d   1       2.531   0.080  -0.042  0.00  0.00    -0.353 OA
ATOM     35  C   UNL d   1       1.161   0.164   0.358  0.00  0.00     0.210 C 
ENDBRANCH  31  34
BRANCH  32  36
ATOM     36  O   UNL d   1       1.821  -1.245  -2.853  0.00  0.00    -0.353 OA
ATOM     37  C   UNL d   1       0.847  -0.333  -2.424  0.00  0.00     0.210 C 
ENDBRANCH  32  36
ENDBRANCH   1  28
TORSDOF 7
