@<TRIPOS>MOLECULE
*****
 42 44 0 0 0
SMALL
GASTEIGER

@<TRIPOS>ATOM
      1 C           1.0234    0.0118   -0.0159 C.3     1  UNL1       -0.0222
      2 C           2.5407   -0.0041   -0.0151 C.ar    1  UNL1        0.0438
      3 C           3.1889    1.3387   -0.0157 C.ar    1  UNL1       -0.0194
      4 C           4.5310    1.3713   -0.0045 C.ar    1  UNL1        0.0453
      5 C           5.2599    2.6705    0.0049 C.3     1  UNL1       -0.0221
      6 N           5.2484    0.1666   -0.0005 N.ar    1  UNL1       -0.2001
      7 N           6.6023   -0.0430    0.0080 N.ar    1  UNL1       -0.1367
      8 C           6.6799   -1.3752    0.0044 C.ar    1  UNL1        0.2113
      9 S           8.1703   -2.2942    0.0096 S.3     1  UNL1       -0.0750
     10 C           9.5943   -1.1334    0.0094 C.3     1  UNL1        0.0780
     11 C          10.9294   -1.9424   -0.0086 C.2     1  UNL1        0.2275
     12 O          10.9474   -3.1741    0.0189 O.2     1  UNL1       -0.2746
     13 N          12.1222   -1.1979   -0.0068 N.am    1  UNL1       -0.2848
     14 C          13.4039   -1.8361   -0.0020 C.ar    1  UNL1        0.0353
     15 C          14.4310   -1.3674    0.8313 C.ar    1  UNL1       -0.0404
     16 C          15.6691   -2.0356    0.8881 C.ar    1  UNL1       -0.0582
     17 C          15.9113   -3.1482    0.0815 C.ar    1  UNL1       -0.0352
     18 C          14.9065   -3.5896   -0.7812 C.ar    1  UNL1        0.1068
     19 S          15.1985   -5.0087   -1.8087 S.O2    1  UNL1        0.0560
     20 N          16.5063   -4.5033   -2.7148 N.3     1  UNL1       -0.2035
     21 O          15.6668   -6.0827   -0.9585 O.2     1  UNL1       -0.1533
     22 O          14.1050   -5.1515   -2.7344 O.2     1  UNL1       -0.1533
     23 C          13.6623   -2.9443   -0.8206 C.ar    1  UNL1       -0.0141
     24 N           5.4673   -2.0242   -0.0019 N.ar    1  UNL1       -0.1835
     25 C           4.5690   -1.0615   -0.0056 C.ar    1  UNL1        0.2542
     26 N           3.1920   -1.1341   -0.0111 N.ar    1  UNL1       -0.2158
     27 H           0.6395    1.0394   -0.0169 H       1  UNL1        0.0293
     28 H           0.6401   -0.4854    0.8789 H       1  UNL1        0.0293
     29 H           0.6401   -0.4880   -0.9091 H       1  UNL1        0.0293
     30 H           2.5674    2.2248   -0.0216 H       1  UNL1        0.0653
     31 H           4.5562    3.5121    0.0017 H       1  UNL1        0.0293
     32 H           5.8897    2.7674   -0.8832 H       1  UNL1        0.0293
     33 H           5.8737    2.7621    0.9050 H       1  UNL1        0.0293
     34 H           9.5662   -0.5152    0.9119 H       1  UNL1        0.0475
     35 H           9.5573   -0.4996   -0.8810 H       1  UNL1        0.0475
     36 H          12.0911   -0.2240    0.2677 H       1  UNL1        0.1548
     37 H          14.2693   -0.5341    1.5107 H       1  UNL1        0.0636
     38 H          16.4384   -1.7069    1.5859 H       1  UNL1        0.0619
     39 H          16.8626   -3.6734    0.1460 H       1  UNL1        0.0637
     40 H          17.4137   -4.5318   -2.2643 H       1  UNL1        0.1442
     41 H          16.3063   -3.8481   -3.4634 H       1  UNL1        0.1442
     42 H          12.8931   -3.3098   -1.4968 H       1  UNL1        0.0656
@<TRIPOS>BOND
     1     1     2    1
     2     2     3   ar
     3     3     4   ar
     4     4     5    1
     5     4     6   ar
     6     6     7   ar
     7     7     8   ar
     8     8     9    1
     9     9    10    1
    10    10    11    1
    11    11    12    2
    12    11    13   am
    13    13    14    1
    14    14    15   ar
    15    15    16   ar
    16    16    17   ar
    17    17    18   ar
    18    18    19    1
    19    19    20    1
    20    19    21    2
    21    19    22    2
    22    18    23   ar
    23    14    23   ar
    24     8    24   ar
    25    24    25   ar
    26     6    25   ar
    27    25    26   ar
    28     2    26   ar
    29     1    27    1
    30     1    28    1
    31     1    29    1
    32     3    30    1
    33     5    31    1
    34     5    32    1
    35     5    33    1
    36    10    34    1
    37    10    35    1
    38    13    36    1
    39    15    37    1
    40    16    38    1
    41    17    39    1
    42    20    40    1
    43    20    41    1
    44    23    42    1
