REMARK  17 active torsions:
REMARK  status: ('A' for Active; 'I' for Inactive)
REMARK    1  A    between atoms: C_2  and  C_3 
REMARK    2  A    between atoms: C_3  and  C_4 
REMARK    3  A    between atoms: C_4  and  C_5 
REMARK    4  A    between atoms: C_5  and  C_6 
REMARK    5  A    between atoms: C_6  and  O_7 
REMARK    6  A    between atoms: O_7  and  C_8 
REMARK    7  A    between atoms: C_11  and  O_12 
REMARK    8  A    between atoms: O_12  and  C_13 
REMARK    9  A    between atoms: C_13  and  C_14 
REMARK   10  A    between atoms: C_14  and  O_15 
REMARK   11  A    between atoms: O_15  and  C_16 
REMARK   12  A    between atoms: C_19  and  C_20 
REMARK   13  A    between atoms: N_21  and  N_22 
REMARK       I    between atoms: N_22  and  C_23 
REMARK   14  A    between atoms: C_23  and  C_25 
REMARK   15  A    between atoms: C_25  and  C_26 
REMARK   16  A    between atoms: C_29  and  N_30 
REMARK   17  A    between atoms: C_33  and  O_34 
ROOT
ATOM      1  C   UNL d   1      17.067  -1.515   4.528  0.00  0.00     0.102 A 
ATOM      2  C   UNL d   1      17.840  -0.554   5.227  0.00  0.00     0.040 A 
ATOM      3  C   UNL d   1      19.254  -0.610   5.294  0.00  0.00     0.016 A 
ATOM      4  C   UNL d   1      19.940  -1.678   4.718  0.00  0.00    -0.014 A 
ATOM      5  C   UNL d   1      19.197  -2.623   4.015  0.00  0.00     0.052 A 
ATOM      6  C   UNL d   1      17.785  -2.554   3.885  0.00  0.00     0.102 A 
ENDROOT
BRANCH   1   7
ATOM      7  O   UNL d   1      15.732  -1.145   4.420  0.00  0.00    -0.346 OA
BRANCH   7   8
ATOM      8  C   UNL d   1      14.711  -2.074   4.789  0.00  0.00     0.202 C 
BRANCH   8   9
ATOM      9  C   UNL d   1      13.278  -1.708   4.436  0.00  0.00     0.202 C 
BRANCH   9  10
ATOM     10  O   UNL d   1      12.492  -2.931   4.545  0.00  0.00    -0.349 OA
BRANCH  10  11
ATOM     11  C   UNL d   1      11.186  -2.838   4.150  0.00  0.00     0.069 A 
ATOM     12  C   UNL d   1      10.400  -3.997   4.168  0.00  0.00     0.039 A 
ATOM     13  C   UNL d   1       9.048  -3.930   3.796  0.00  0.00     0.039 A 
ATOM     14  C   UNL d   1       8.474  -2.705   3.451  0.00  0.00     0.068 A 
ATOM     15  C   UNL d   1       9.262  -1.561   3.441  0.00  0.00     0.039 A 
ATOM     16  C   UNL d   1      10.608  -1.634   3.769  0.00  0.00     0.039 A 
BRANCH  14  17
ATOM     17  O   UNL d   1       7.124  -2.691   3.235  0.00  0.00    -0.351 OA
BRANCH  17  18
ATOM     18  C   UNL d   1       6.686  -1.762   2.241  0.00  0.00     0.175 C 
BRANCH  18  19
ATOM     19  C   UNL d   1       5.164  -1.742   2.243  0.00  0.00     0.027 C 
BRANCH  19  20
ATOM     20  C   UNL d   1       4.638  -0.845   1.129  0.00  0.00     0.002 C 
BRANCH  20  21
ATOM     21  C   UNL d   1       3.115  -0.832   1.118  0.00  0.00    -0.000 C 
BRANCH  21  22
ATOM     22  C   UNL d   1       2.587   0.054  -0.005  0.00  0.00    -0.005 C 
ATOM     23  C   UNL d   1       1.070   0.061  -0.014  0.00  0.00     0.005 C 
ENDBRANCH  21  22
ENDBRANCH  20  21
ENDBRANCH  19  20
ENDBRANCH  18  19
ENDBRANCH  17  18
ENDBRANCH  14  17
ENDBRANCH  10  11
ENDBRANCH   9  10
ENDBRANCH   8   9
ENDBRANCH   7   8
ENDBRANCH   1   7
BRANCH   6  24
ATOM     24  O   UNL d   1      17.410  -3.566   3.032  0.00  0.00    -0.353 OA
ATOM     25  C   UNL d   1      16.047  -3.830   2.925  0.00  0.00     0.210 C 
ENDBRANCH   6  24
BRANCH   4  26
ATOM     26  C   UNL d   1      21.423  -1.847   4.874  0.00  0.00     0.150 C 
ATOM     27  N   UNL d   1      22.034  -2.879   4.374  0.00  0.00    -0.184 NA
BRANCH  27  28
ATOM     28  N   UNL d   1      23.390  -3.048   4.569  0.00  0.00    -0.247 N 
ATOM     29  C   UNL d   1      23.979  -4.190   3.991  0.00  0.00     0.243 C 
ATOM     30  O   UNL d   1      23.341  -4.985   3.323  0.00  0.00    -0.271 OA
ATOM     31  H   UNL d   1      23.906  -2.378   5.124  0.00  0.00     0.192 HD
BRANCH  29  32
ATOM     32  C   UNL d   1      25.491  -4.349   4.227  0.00  0.00     0.173 C 
BRANCH  32  33
ATOM     33  C   UNL d   1      25.938  -5.651   3.615  0.00  0.00     0.109 A 
ATOM     34  N   UNL d   1      25.689  -6.836   4.135  0.00  0.00    -0.144 NA
ATOM     35  N   UNL d   1      26.082  -7.867   3.306  0.00  0.00    -0.124 NA
ATOM     36  C   UNL d   1      26.685  -7.447   2.218  0.00  0.00     0.187 A 
ATOM     37  S   UNL d   1      26.826  -5.730   2.138  0.00  0.00    -0.033 SA
BRANCH  36  38
ATOM     38  N   UNL d   1      27.170  -8.266   1.268  0.00  0.00    -0.377 N 
ATOM     39  H   UNL d   1      26.932  -9.251   1.314  0.00  0.00     0.158 HD
ATOM     40  H   UNL d   1      27.556  -7.929   0.397  0.00  0.00     0.158 HD
ENDBRANCH  36  38
ENDBRANCH  32  33
ENDBRANCH  29  32
ENDBRANCH  27  28
ENDBRANCH   4  26
TORSDOF 17
