@<TRIPOS>MOLECULE
*****
 63 67 0 0 0
SMALL
GASTEIGER

@<TRIPOS>ATOM
      1 C           0.7774    0.0497   -0.2918 C.3     1  UNL1       -0.0203
      2 C           2.2165    0.3325   -0.8312 C.2     1  UNL1        0.0634
      3 N           2.8346   -0.6360   -1.6467 N.2     1  UNL1       -0.1843
      4 N           4.4721   -0.9165   -1.9242 N.am    1  UNL1       -0.2013
      5 C           5.3383   -2.2213   -1.7680 C.2     1  UNL1        0.2854
      6 O           4.8420   -3.3897   -1.8671 O.2     1  UNL1       -0.2666
      7 C           6.9488   -2.1830   -1.3193 C.ar    1  UNL1        0.1773
      8 N           7.9353   -2.6346   -2.1837 N.ar    1  UNL1       -0.1239
      9 N           9.1520   -2.4598   -1.6487 N.ar    1  UNL1       -0.0581
     10 N           9.0439   -2.0857   -0.3568 N.ar    1  UNL1       -0.1868
     11 C          10.1444   -1.9111    0.5798 C.ar    1  UNL1        0.2404
     12 N          11.1321   -1.0422    0.3385 N.ar    1  UNL1       -0.0272
     13 O          11.8750   -1.0178    1.5372 O.2     1  UNL1       -0.2388
     14 N          11.3087   -1.8504    2.5002 N.ar    1  UNL1       -0.0319
     15 C          10.2621   -2.4088    1.9011 C.ar    1  UNL1        0.2064
     16 N           9.4274   -3.2868    2.4958 N.pl3   1  UNL1       -0.3375
     17 C           7.6629   -1.9606   -0.0815 C.ar    1  UNL1        0.1234
     18 C           7.3401   -1.5133    1.2982 C.3     1  UNL1        0.0142
     19 N           5.9143   -1.5127    1.5784 N.4     1  UNL1        0.2416
     20 C           5.4455   -0.4387    0.7639 C.3     1  UNL1       -0.0313
     21 C           4.0046   -0.6780    0.7606 C.3     1  UNL1       -0.0123
     22 C           3.2457   -1.9657    0.4397 C.3     1  UNL1       -0.0432
     23 C           3.6611   -2.8398    1.5134 C.3     1  UNL1       -0.0097
     24 C           5.1847   -2.8974    1.4351 C.3     1  UNL1       -0.0234
     25 C           5.5373   -3.8015    2.5594 C.3     1  UNL1       -0.0216
     26 C           2.8510    1.6301    0.0402 C.ar    1  UNL1       -0.0019
     27 C           2.6476    1.9650    1.4403 C.ar    1  UNL1       -0.0522
     28 C           3.4955    2.8988    2.1220 C.ar    1  UNL1       -0.0534
     29 C           4.6066    3.4590    1.4619 C.ar    1  UNL1       -0.0178
     30 C           5.4588    4.4424    2.0132 C.ar    1  UNL1       -0.0540
     31 C           6.5524    4.9244    1.2808 C.ar    1  UNL1       -0.0612
     32 C           6.8776    4.3592    0.0520 C.ar    1  UNL1       -0.0612
     33 C           6.0614    3.3765   -0.4886 C.ar    1  UNL1       -0.0540
     34 C           4.8834    3.0036    0.1552 C.ar    1  UNL1       -0.0173
     35 C           3.9959    2.1654   -0.5330 C.ar    1  UNL1       -0.0451
     36 H           0.3953   -0.9316   -0.5846 H       1  UNL1        0.0293
     37 H           0.1026    0.8433   -0.6075 H       1  UNL1        0.0293
     38 H           0.7564    0.0409    0.8163 H       1  UNL1        0.0293
     39 H           4.9927   -0.0981   -1.6907 H       1  UNL1        0.1776
     40 H           9.7165   -3.6931    3.3854 H       1  UNL1        0.1439
     41 H           8.8523   -3.9203    1.9496 H       1  UNL1        0.1439
     42 H           7.7385   -0.4896    1.4502 H       1  UNL1        0.0883
     43 H           7.7124   -2.0840    2.1235 H       1  UNL1        0.0883
     44 H           5.7463   -1.1444    2.5216 H       1  UNL1        0.2040
     45 H           5.9619   -0.3706   -0.2044 H       1  UNL1        0.0814
     46 H           5.7356    0.5489    1.1557 H       1  UNL1        0.0814
     47 H           3.9486   -0.0344   -0.0408 H       1  UNL1        0.0317
     48 H           3.6012   -0.2654    1.6733 H       1  UNL1        0.0317
     49 H           3.4006   -2.4989   -0.4977 H       1  UNL1        0.0269
     50 H           2.1601   -1.8603    0.4540 H       1  UNL1        0.0269
     51 H           3.1779   -3.8093    1.3514 H       1  UNL1        0.0320
     52 H           3.2661   -2.4005    2.4332 H       1  UNL1        0.0320
     53 H           5.4957   -3.3356    0.4884 H       1  UNL1        0.0848
     54 H           5.1798   -3.3604    3.4926 H       1  UNL1        0.0284
     55 H           6.6008   -3.9939    2.5793 H       1  UNL1        0.0284
     56 H           5.0072   -4.7456    2.3901 H       1  UNL1        0.0284
     57 H           1.9401    1.4454    2.0993 H       1  UNL1        0.0624
     58 H           3.3176    3.1706    3.1716 H       1  UNL1        0.0624
     59 H           5.2521    4.8886    2.9859 H       1  UNL1        0.0624
     60 H           7.1455    5.7560    1.6566 H       1  UNL1        0.0618
     61 H           7.7321    4.7179   -0.5178 H       1  UNL1        0.0618
     62 H           6.3263    2.9455   -1.4513 H       1  UNL1        0.0624
     63 H           4.2664    1.8050   -1.5151 H       1  UNL1        0.0630
@<TRIPOS>UNITY_ATOM_ATTR
19 1
charge 1
@<TRIPOS>BOND
     1     1     2    1
     2     2     3    2
     3     3     4    1
     4     4     5   am
     5     5     6    2
     6     5     7    1
     7     7     8   ar
     8     8     9   ar
     9     9    10   ar
    10    10    11    1
    11    11    12   ar
    12    12    13   ar
    13    13    14   ar
    14    14    15   ar
    15    11    15   ar
    16    15    16    1
    17    10    17   ar
    18     7    17   ar
    19    17    18    1
    20    18    19    1
    21    19    20    1
    22    20    21    1
    23    21    22    1
    24    22    23    1
    25    23    24    1
    26    19    24    1
    27     2    26    1
    28    26    27   ar
    29    27    28   ar
    30    28    29   ar
    31    29    30   ar
    32    30    31   ar
    33    31    32   ar
    34    32    33   ar
    35    33    34   ar
    36    29    34   ar
    37    34    35   ar
    38    26    35   ar
    39    24    25    1
    40     1    36    1
    41     1    37    1
    42     1    38    1
    43     4    39    1
    44    16    40    1
    45    16    41    1
    46    18    42    1
    47    18    43    1
    48    19    44    1
    49    20    45    1
    50    20    46    1
    51    21    47    1
    52    21    48    1
    53    22    49    1
    54    22    50    1
    55    23    51    1
    56    23    52    1
    57    24    53    1
    58    25    54    1
    59    25    55    1
    60    25    56    1
    61    27    57    1
    62    28    58    1
    63    30    59    1
    64    31    60    1
    65    32    61    1
    66    33    62    1
    67    35    63    1
