REMARK  6 active torsions:
REMARK  status: ('A' for Active; 'I' for Inactive)
REMARK    1  A    between atoms: O_2  and  C_3 
REMARK       I    between atoms: C_3  and  N_5 
REMARK    2  A    between atoms: N_5  and  C_6 
REMARK    3  A    between atoms: C_9  and  C_10 
REMARK    4  A    between atoms: C_10  and  N_11 
REMARK       I    between atoms: N_11  and  C_12 
REMARK    5  A    between atoms: C_12  and  C_14 
REMARK       I    between atoms: C_14  and  N_16 
REMARK    6  A    between atoms: N_16  and  C_17 
ROOT
ATOM      1  N   UNL d   1       6.999  -5.066  -5.175  0.00  0.00    -0.349 N 
ATOM      2  C   UNL d   1       7.525  -6.035  -6.009  0.00  0.00     0.309 C 
ATOM      3  O   UNL d   1       8.444  -6.793  -5.741  0.00  0.00    -0.262 OA
ATOM      4  H   UNL d   1       6.203  -4.568  -5.557  0.00  0.00     0.163 HD
ENDROOT
BRANCH   1   5
ATOM      5  C   UNL d   1       7.473  -4.793  -3.824  0.00  0.00     0.161 C 
BRANCH   5   6
ATOM      6  C   UNL d   1       6.726  -3.703  -3.063  0.00  0.00    -0.040 A 
ATOM      7  C   UNL d   1       7.076  -3.399  -1.730  0.00  0.00     0.011 A 
ATOM      8  C   UNL d   1       6.309  -2.502  -0.952  0.00  0.00     0.030 A 
ATOM      9  C   UNL d   1       5.190  -1.872  -1.501  0.00  0.00     0.036 A 
ATOM     10  C   UNL d   1       4.881  -2.119  -2.836  0.00  0.00     0.030 A 
ATOM     11  C   UNL d   1       5.642  -3.005  -3.606  0.00  0.00     0.011 A 
BRANCH   9  12
ATOM     12  N   UNL d   1       4.400  -0.982  -0.741  0.00  0.00    -0.303 N 
ATOM     13  C   UNL d   1       3.022  -0.962  -0.804  0.00  0.00     0.364 C 
ATOM     14  O   UNL d   1       2.326  -1.717  -1.484  0.00  0.00    -0.238 OA
ATOM     15  H   UNL d   1       4.830  -0.449   0.004  0.00  0.00     0.171 HD
BRANCH  13  16
ATOM     16  O   UNL d   1       2.494  -0.030   0.039  0.00  0.00    -0.309 OA
ATOM     17  C   UNL d   1       1.056  -0.021   0.049  0.00  0.00     0.215 C 
ENDBRANCH  13  16
ENDBRANCH   9  12
ENDBRANCH   5   6
ENDBRANCH   1   5
BRANCH   2  18
ATOM     18  C   UNL d   1       6.825  -6.098  -7.400  0.00  0.00     0.313 C 
ATOM     19  O   UNL d   1       5.913  -5.307  -7.620  0.00  0.00    -0.262 OA
ATOM     20  N   UNL d   1       7.272  -7.099  -8.261  0.00  0.00    -0.319 N 
ATOM     21  H   UNL d   1       7.917  -7.786  -7.879  0.00  0.00     0.169 HD
BRANCH  20  22
ATOM     22  C   UNL d   1       6.791  -7.259  -9.585  0.00  0.00     0.038 A 
ATOM     23  C   UNL d   1       6.649  -8.533 -10.148  0.00  0.00     0.053 A 
ATOM     24  C   UNL d   1       6.242  -8.664 -11.486  0.00  0.00     0.037 A 
ATOM     25 CL   UNL d   1       6.192 -10.221 -12.223  0.00  0.00    -0.084 Cl
ATOM     26  C   UNL d   1       5.931  -7.547 -12.257  0.00  0.00     0.048 A 
ATOM     27  C   UNL d   1       6.091  -6.285 -11.699  0.00  0.00     0.037 A 
ATOM     28 CL   UNL d   1       5.834  -4.885 -12.666  0.00  0.00    -0.084 Cl
ATOM     29  C   UNL d   1       6.514  -6.139 -10.376  0.00  0.00     0.053 A 
ENDBRANCH  20  22
ENDBRANCH   2  18
TORSDOF 6
