REMARK  9 active torsions:
REMARK  status: ('A' for Active; 'I' for Inactive)
REMARK    1  A    between atoms: C_2  and  N_3 
REMARK    2  A    between atoms: N_3  and  C_4 
REMARK    3  A    between atoms: N_3  and  C_6 
REMARK    4  A    between atoms: C_9  and  C_10 
REMARK    5  A    between atoms: C_10  and  C_11 
REMARK    6  A    between atoms: N_15  and  N_16 
REMARK       I    between atoms: N_16  and  C_17 
REMARK    7  A    between atoms: C_17  and  C_19 
REMARK    8  A    between atoms: C_22  and  O_23 
REMARK    9  A    between atoms: C_24  and  O_25 
ROOT
ATOM      1  C   UNL d   1       9.295  -2.321   2.074  0.00  0.00     0.078 A 
ATOM      2  S   UNL d   1       8.528  -2.100   3.583  0.00  0.00    -0.053 SA
ATOM      3  C   UNL d   1      10.000  -2.280   4.520  0.00  0.00     0.168 A 
ATOM      4  S   UNL d   1       9.737  -2.148   6.158  0.00  0.00    -0.050 SA
ATOM      5  N   UNL d   1      11.074  -2.503   3.652  0.00  0.00    -0.198 N 
ATOM      6  C   UNL d   1      10.762  -2.553   2.281  0.00  0.00     0.285 A 
ATOM      7  O   UNL d   1      11.558  -2.756   1.368  0.00  0.00    -0.265 OA
ENDROOT
BRANCH   5   8
ATOM      8  N   UNL d   1      12.480  -2.716   3.990  0.00  0.00    -0.255 N 
ATOM      9  C   UNL d   1      12.989  -2.749   5.269  0.00  0.00     0.270 C 
ATOM     10  O   UNL d   1      12.384  -2.543   6.319  0.00  0.00    -0.266 OA
ATOM     11  H   UNL d   1      13.077  -2.901   3.179  0.00  0.00     0.191 HD
BRANCH   9  12
ATOM     12  C   UNL d   1      14.412  -2.989   5.519  0.00  0.00     0.036 A 
ATOM     13  C   UNL d   1      14.761  -3.695   6.686  0.00  0.00     0.020 A 
ATOM     14  C   UNL d   1      16.067  -3.667   7.163  0.00  0.00     0.040 A 
ATOM     15  C   UNL d   1      17.037  -2.987   6.430  0.00  0.00     0.099 A 
ATOM     16  C   UNL d   1      16.693  -2.259   5.276  0.00  0.00     0.102 A 
ATOM     17  C   UNL d   1      15.368  -2.260   4.829  0.00  0.00     0.056 A 
BRANCH  15  18
ATOM     18  O   UNL d   1      18.342  -3.026   6.841  0.00  0.00    -0.358 OA
ATOM     19  H   UNL d   1      18.431  -3.668   7.564  0.00  0.00     0.217 HD
ENDBRANCH  15  18
BRANCH  16  20
ATOM     20  O   UNL d   1      17.691  -1.543   4.665  0.00  0.00    -0.353 OA
ATOM     21  C   UNL d   1      17.290  -0.751   3.553  0.00  0.00     0.210 C 
ENDBRANCH  16  20
ENDBRANCH   9  12
ENDBRANCH   5   8
BRANCH   1  22
ATOM     22  C   UNL d   1       8.631  -2.300   0.907  0.00  0.00     0.036 C 
BRANCH  22  23
ATOM     23  C   UNL d   1       7.178  -2.028   0.773  0.00  0.00    -0.035 A 
ATOM     24  C   UNL d   1       6.330  -2.966   0.186  0.00  0.00     0.013 A 
ATOM     25  C   UNL d   1       4.964  -2.675  -0.019  0.00  0.00     0.030 A 
ATOM     26  C   UNL d   1       4.369  -1.480   0.426  0.00  0.00     0.030 A 
ATOM     27  C   UNL d   1       5.236  -0.562   1.039  0.00  0.00     0.030 A 
ATOM     28  C   UNL d   1       6.610  -0.824   1.204  0.00  0.00     0.013 A 
BRANCH  26  29
ATOM     29  N   UNL d   1       2.980  -1.239   0.282  0.00  0.00    -0.382 N 
BRANCH  29  30
ATOM     30  C   UNL d   1       2.583   0.149  -0.035  0.00  0.00     0.118 C 
ATOM     31  C   UNL d   1       1.108   0.482  -0.140  0.00  0.00     0.026 C 
ENDBRANCH  29  30
BRANCH  29  32
ATOM     32  C   UNL d   1       2.107  -2.368   0.681  0.00  0.00     0.118 C 
ATOM     33  C   UNL d   1       0.602  -2.176   0.643  0.00  0.00     0.026 C 
ENDBRANCH  29  32
ENDBRANCH  26  29
ENDBRANCH  22  23
ENDBRANCH   1  22
TORSDOF 9
