@<TRIPOS>MOLECULE
*****
 46 48 0 0 0
SMALL
GASTEIGER

@<TRIPOS>ATOM
      1 C           0.9869    0.1053    0.0166 C.3     1  UNL1        0.0125
      2 C           2.4926    0.0348   -0.0512 C.2     1  UNL1        0.2141
      3 O           3.0256   -0.7381   -0.8462 O.2     1  UNL1       -0.2758
      4 N           3.1790    0.8428    0.8491 N.am    1  UNL1       -0.2857
      5 C           4.5947    0.9373    0.8563 C.ar    1  UNL1        0.0335
      6 C           5.3296    1.0785    2.0391 C.ar    1  UNL1       -0.0387
      7 C           6.7431    1.2343    2.0047 C.ar    1  UNL1       -0.0388
      8 C           7.4512    1.1871    0.7943 C.ar    1  UNL1        0.0315
      9 N           8.8836    1.2811    0.7388 N.pl3   1  UNL1       -0.3108
     10 C           9.5705    1.2170   -0.3941 C.2     1  UNL1        0.0942
     11 C           9.5914    1.8993   -1.5718 C.2     1  UNL1        0.0580
     12 C           9.0442    3.1883   -2.0224 C.ar    1  UNL1       -0.0090
     13 C           9.1370    4.2752   -1.1516 C.ar    1  UNL1       -0.0504
     14 C           8.3964    5.4386   -1.3861 C.ar    1  UNL1       -0.0469
     15 C           8.3538    6.5081   -0.3361 C.3     1  UNL1       -0.0394
     16 C           7.6191    5.5431   -2.5496 C.ar    1  UNL1       -0.0473
     17 C           6.9375    6.8281   -2.9353 C.3     1  UNL1       -0.0395
     18 C           7.5057    4.4280   -3.3955 C.ar    1  UNL1       -0.0551
     19 C           8.2297    3.2481   -3.1575 C.ar    1  UNL1       -0.0423
     20 C           8.0325    2.0665   -4.0600 C.3     1  UNL1       -0.0391
     21 C          10.5381    1.0197   -2.2180 C.2     1  UNL1        0.2367
     22 O          11.1521    0.9215   -3.2580 O.2     1  UNL1       -0.2831
     23 C          10.5433    0.2301   -0.9478 C.2     1  UNL1        0.2476
     24 O          11.0940   -0.8028   -0.6342 O.2     1  UNL1       -0.2818
     25 C           6.6781    1.0795   -0.3691 C.ar    1  UNL1       -0.0388
     26 C           5.2887    0.9481   -0.3444 C.ar    1  UNL1       -0.0387
     27 H           0.5785   -0.6150   -0.7045 H       1  UNL1        0.0323
     28 H           0.6258    1.0973   -0.2638 H       1  UNL1        0.0323
     29 H           0.6238   -0.1742    1.0078 H       1  UNL1        0.0323
     30 H           2.6693    1.3321    1.5740 H       1  UNL1        0.1548
     31 H           4.8363    0.9906    3.0048 H       1  UNL1        0.0637
     32 H           7.2727    1.3777    2.9435 H       1  UNL1        0.0637
     33 H           9.3049    1.0129    1.6271 H       1  UNL1        0.1523
     34 H           9.8171    4.2337   -0.3018 H       1  UNL1        0.0626
     35 H           8.9821    6.2609    0.5232 H       1  UNL1        0.0278
     36 H           7.3214    6.5962    0.0238 H       1  UNL1        0.0278
     37 H           8.6880    7.4668   -0.7394 H       1  UNL1        0.0278
     38 H           7.1495    7.6446   -2.2400 H       1  UNL1        0.0278
     39 H           5.8529    6.7055   -2.9756 H       1  UNL1        0.0278
     40 H           7.3141    7.1564   -3.9100 H       1  UNL1        0.0278
     41 H           6.8169    4.4736   -4.2379 H       1  UNL1        0.0623
     42 H           7.3261    2.2892   -4.8634 H       1  UNL1        0.0278
     43 H           7.6387    1.2069   -3.5078 H       1  UNL1        0.0278
     44 H           8.9877    1.8002   -4.5167 H       1  UNL1        0.0278
     45 H           7.1302    1.0769   -1.3490 H       1  UNL1        0.0637
     46 H           4.7645    0.8779   -1.2935 H       1  UNL1        0.0637
@<TRIPOS>BOND
     1     1     2    1
     2     2     3    2
     3     2     4   am
     4     4     5    1
     5     5     6   ar
     6     6     7   ar
     7     7     8   ar
     8     8     9    1
     9     9    10    1
    10    10    11    2
    11    11    12    1
    12    12    13   ar
    13    13    14   ar
    14    14    15    1
    15    14    16   ar
    16    16    17    1
    17    16    18   ar
    18    18    19   ar
    19    12    19   ar
    20    19    20    1
    21    11    21    1
    22    21    22    2
    23    21    23    1
    24    10    23    1
    25    23    24    2
    26     8    25   ar
    27    25    26   ar
    28     5    26   ar
    29     1    27    1
    30     1    28    1
    31     1    29    1
    32     4    30    1
    33     6    31    1
    34     7    32    1
    35     9    33    1
    36    13    34    1
    37    15    35    1
    38    15    36    1
    39    15    37    1
    40    17    38    1
    41    17    39    1
    42    17    40    1
    43    18    41    1
    44    20    42    1
    45    20    43    1
    46    20    44    1
    47    25    45    1
    48    26    46    1
