@<TRIPOS>MOLECULE
*****
 60 63 0 0 0
SMALL
GASTEIGER

@<TRIPOS>ATOM
      1 O           1.0553   -0.1371   -0.1696 O.2     1  UNL1       -0.2521
      2 C           2.2645    0.1088   -0.1390 C.2     1  UNL1        0.3082
      3 N           2.8156    1.1420    0.5654 N.am    1  UNL1       -0.2667
      4 C           2.1631    1.9310    1.5337 C.ar    1  UNL1        0.0704
      5 C           1.1614    1.3998    2.3527 C.ar    1  UNL1       -0.0349
      6 C           0.4657    2.2243    3.2349 C.ar    1  UNL1       -0.0245
      7 C           0.7773    3.5771    3.2942 C.ar    1  UNL1        0.1262
      8 F           0.0387    4.3860    4.0640 F       1  UNL1       -0.2054
      9 C           1.8377    4.1015    2.5659 C.ar    1  UNL1        0.0106
     10 C           2.5576    3.2597    1.7245 C.ar    1  UNL1        0.1472
     11 F           3.6031    3.7576    1.0459 F       1  UNL1       -0.2035
     12 N           3.1200   -0.6435   -0.9099 N.am    1  UNL1       -0.2675
     13 C           4.5239   -0.8269   -0.7979 C.ar    1  UNL1        0.0576
     14 C           5.2637   -1.0587   -1.9959 C.ar    1  UNL1       -0.0174
     15 C           6.6592   -1.2466   -1.9588 C.ar    1  UNL1        0.0355
     16 N           7.4144   -1.6247   -3.1107 N.am    1  UNL1       -0.2814
     17 C           8.7525   -2.0238   -3.0662 C.2     1  UNL1        0.2483
     18 O           9.4956   -2.0374   -2.0769 O.2     1  UNL1       -0.2699
     19 C           9.3958   -2.5091   -4.3000 C.ar    1  UNL1        0.0370
     20 C          10.3161   -3.5683   -4.1925 C.ar    1  UNL1       -0.0496
     21 C          11.1006   -3.9315   -5.2843 C.ar    1  UNL1       -0.0610
     22 C          10.9254   -3.2770   -6.5009 C.ar    1  UNL1       -0.0617
     23 C          10.0125   -2.2233   -6.6087 C.ar    1  UNL1       -0.0610
     24 C           9.2542   -1.8251   -5.5053 C.ar    1  UNL1       -0.0496
     25 C           7.2889   -1.1006   -0.7317 C.ar    1  UNL1       -0.0386
     26 C           6.5708   -0.9368    0.4393 C.ar    1  UNL1       -0.0371
     27 C           5.1849   -0.8118    0.4507 C.ar    1  UNL1        0.0514
     28 N           4.5673   -0.7129    1.6922 N.pl3   1  UNL1       -0.3285
     29 C           4.8681    0.4631    2.5095 C.3     1  UNL1        0.0122
     30 C           5.8622    0.1751    3.6065 C.3     1  UNL1       -0.0372
     31 C           5.2556   -0.6262    4.7472 C.3     1  UNL1       -0.0516
     32 C           4.5847   -1.9373    4.3308 C.3     1  UNL1       -0.0516
     33 C           3.2857   -1.7449    3.5549 C.3     1  UNL1       -0.0372
     34 C           3.5093   -1.6557    2.0523 C.3     1  UNL1        0.0122
     35 H           3.7984    1.3109    0.4015 H       1  UNL1        0.1565
     36 H           0.9382    0.3363    2.3367 H       1  UNL1        0.0638
     37 H          -0.3346    1.8210    3.8472 H       1  UNL1        0.0647
     38 H           2.0749    5.1567    2.6276 H       1  UNL1        0.0675
     39 H           2.6297   -1.2857   -1.5191 H       1  UNL1        0.1564
     40 H           4.7437   -1.0322   -2.9514 H       1  UNL1        0.0655
     41 H           6.9046   -1.7690   -3.9746 H       1  UNL1        0.1551
     42 H          10.4470   -4.0868   -3.2427 H       1  UNL1        0.0625
     43 H          11.8605   -4.7025   -5.1788 H       1  UNL1        0.0618
     44 H          11.5145   -3.5784   -7.3636 H       1  UNL1        0.0618
     45 H           9.9200   -1.6875   -7.5496 H       1  UNL1        0.0618
     46 H           8.6104   -0.9548   -5.5774 H       1  UNL1        0.0625
     47 H           8.3623   -1.1379   -0.6093 H       1  UNL1        0.0637
     48 H           7.1399   -0.9733    1.3593 H       1  UNL1        0.0637
     49 H           3.9576    0.8422    2.9780 H       1  UNL1        0.0464
     50 H           5.2605    1.2806    1.8897 H       1  UNL1        0.0464
     51 H           6.2161    1.1370    3.9975 H       1  UNL1        0.0280
     52 H           6.7402   -0.3437    3.2226 H       1  UNL1        0.0280
     53 H           4.5357    0.0028    5.2856 H       1  UNL1        0.0266
     54 H           6.0649   -0.8550    5.4470 H       1  UNL1        0.0266
     55 H           4.3475   -2.4906    5.2440 H       1  UNL1        0.0266
     56 H           5.2836   -2.5511    3.7505 H       1  UNL1        0.0266
     57 H           2.7425   -0.8612    3.9131 H       1  UNL1        0.0280
     58 H           2.6195   -2.5971    3.7354 H       1  UNL1        0.0280
     59 H           2.5435   -1.3934    1.6227 H       1  UNL1        0.0464
     60 H           3.7472   -2.6527    1.6600 H       1  UNL1        0.0464
@<TRIPOS>BOND
     1     1     2    2
     2     2     3   am
     3     3     4    1
     4     4     5   ar
     5     5     6   ar
     6     6     7   ar
     7     7     8    1
     8     7     9   ar
     9     9    10   ar
    10     4    10   ar
    11    10    11    1
    12     2    12   am
    13    12    13    1
    14    13    14   ar
    15    14    15   ar
    16    15    16    1
    17    16    17   am
    18    17    18    2
    19    17    19    1
    20    19    20   ar
    21    20    21   ar
    22    21    22   ar
    23    22    23   ar
    24    23    24   ar
    25    19    24   ar
    26    15    25   ar
    27    25    26   ar
    28    26    27   ar
    29    13    27   ar
    30    27    28    1
    31    28    29    1
    32    29    30    1
    33    30    31    1
    34    31    32    1
    35    32    33    1
    36    33    34    1
    37    28    34    1
    38     3    35    1
    39     5    36    1
    40     6    37    1
    41     9    38    1
    42    12    39    1
    43    14    40    1
    44    16    41    1
    45    20    42    1
    46    21    43    1
    47    22    44    1
    48    23    45    1
    49    24    46    1
    50    25    47    1
    51    26    48    1
    52    29    49    1
    53    29    50    1
    54    30    51    1
    55    30    52    1
    56    31    53    1
    57    31    54    1
    58    32    55    1
    59    32    56    1
    60    33    57    1
    61    33    58    1
    62    34    59    1
    63    34    60    1
