@<TRIPOS>MOLECULE
*****
 55 57 0 0 0
SMALL
GASTEIGER

@<TRIPOS>ATOM
      1 C           1.0413    0.0535    0.0135 C.2     1  UNL1       -0.1010
      2 C           2.3777    0.0005    0.0713 C.2     1  UNL1       -0.0715
      3 C           3.2284   -0.7199   -0.9183 C.3     1  UNL1        0.0450
      4 N           4.6499   -0.4992   -0.7406 N.ar    1  UNL1       -0.2983
      5 C           5.3816    0.6715   -0.6664 C.ar    1  UNL1        0.1926
      6 S           4.9383    2.3765   -0.7375 S.3     1  UNL1       -0.0766
      7 C           3.1557    2.7160   -0.9737 C.3     1  UNL1        0.0779
      8 C           2.7662    4.2302   -0.9839 C.2     1  UNL1        0.2279
      9 O           3.6123    5.1032   -0.7892 O.2     1  UNL1       -0.2745
     10 N           1.3821    4.5582   -1.1095 N.am    1  UNL1       -0.2783
     11 C           0.9778    5.9214   -1.2349 C.ar    1  UNL1        0.0903
     12 S          -0.4809    6.5196   -0.5039 S.2     1  UNL1       -0.0654
     13 C          -0.2353    8.2014   -1.0361 C.ar    1  UNL1        0.1020
     14 C          -1.1662    9.3324   -0.6589 C.2     1  UNL1        0.3462
     15 O          -2.1447    9.2492    0.0749 O.2     1  UNL1       -0.2444
     16 O          -0.7986   10.5380   -1.2443 O.3     1  UNL1       -0.4611
     17 C          -1.5730   11.7530   -1.0042 C.3     1  UNL1        0.0900
     18 C          -0.9900   12.9634   -1.7571 C.3     1  UNL1       -0.0306
     19 C           0.8999    8.2225   -1.8433 C.ar    1  UNL1       -0.0101
     20 C           1.4444    9.3985   -2.5803 C.3     1  UNL1       -0.0371
     21 C           1.5779    6.9426   -1.9365 C.ar    1  UNL1        0.0839
     22 C           2.7254    6.7480   -2.7746 C.1     1  UNL1        0.1019
     23 N           3.6260    6.6208   -3.5055 N.1     1  UNL1       -0.1908
     24 N           6.6478    0.3350   -0.4821 N.ar    1  UNL1       -0.1221
     25 N           6.7571   -1.0338   -0.4316 N.ar    1  UNL1       -0.1283
     26 C           5.5590   -1.5522   -0.6028 C.ar    1  UNL1        0.1652
     27 C           5.2745   -3.0009   -0.6516 C.ar    1  UNL1        0.0197
     28 C           5.6457   -3.8393    0.4132 C.ar    1  UNL1       -0.0446
     29 C           5.5108   -5.2352    0.3184 C.ar    1  UNL1        0.0163
     30 C           4.8975   -5.7984   -0.8061 C.ar    1  UNL1        0.2732
     31 N           4.5986   -7.2398   -0.8366 N.pl3   1  UNL1        0.0796
     32 O           4.9289   -7.9191    0.1458 O.2     1  UNL1        0.0414
     33 O           3.9976   -7.6823   -1.8264 O.co2   1  UNL1       -0.5760
     34 C           4.5077   -4.9804   -1.8723 C.ar    1  UNL1        0.0163
     35 C           4.7096   -3.5930   -1.7944 C.ar    1  UNL1       -0.0446
     36 H           0.4885    0.6672    0.7191 H       1  UNL1        0.0532
     37 H           0.4729   -0.5128   -0.7179 H       1  UNL1        0.0532
     38 H           2.8909    0.5542    0.8566 H       1  UNL1        0.0584
     39 H           2.9953   -0.4698   -1.9584 H       1  UNL1        0.0536
     40 H           3.0231   -1.7828   -0.7693 H       1  UNL1        0.0536
     41 H           2.6386    2.3462   -0.0990 H       1  UNL1        0.0475
     42 H           2.8400    2.2292   -1.8971 H       1  UNL1        0.0475
     43 H           0.6651    3.8452   -1.0227 H       1  UNL1        0.1553
     44 H          -1.5678   11.9856    0.0654 H       1  UNL1        0.0695
     45 H          -2.6018   11.6053   -1.3476 H       1  UNL1        0.0695
     46 H           0.0408   13.1745   -1.4517 H       1  UNL1        0.0262
     47 H          -1.5814   13.8713   -1.5691 H       1  UNL1        0.0262
     48 H          -0.9755   12.8002   -2.8404 H       1  UNL1        0.0262
     49 H           0.8978   10.3208   -2.4415 H       1  UNL1        0.0278
     50 H           1.4295    9.1871   -3.6529 H       1  UNL1        0.0278
     51 H           2.4671    9.5858   -2.2450 H       1  UNL1        0.0278
     52 H           6.0482   -3.4118    1.3313 H       1  UNL1        0.0627
     53 H           5.8950   -5.8647    1.1197 H       1  UNL1        0.0685
     54 H           4.0654   -5.4044   -2.7723 H       1  UNL1        0.0685
     55 H           4.4246   -2.9774   -2.6444 H       1  UNL1        0.0627
@<TRIPOS>UNITY_ATOM_ATTR
31 1
charge 1
33 1
charge -1
@<TRIPOS>BOND
     1     1     2    2
     2     2     3    1
     3     3     4    1
     4     4     5   ar
     5     5     6    1
     6     6     7    1
     7     7     8    1
     8     8     9    2
     9     8    10   am
    10    10    11    1
    11    11    12   ar
    12    12    13   ar
    13    13    14    1
    14    14    15    2
    15    14    16    1
    16    16    17    1
    17    17    18    1
    18    13    19   ar
    19    19    20    1
    20    19    21   ar
    21    11    21   ar
    22    21    22    1
    23    22    23    3
    24     5    24   ar
    25    24    25   ar
    26    25    26   ar
    27     4    26   ar
    28    26    27    1
    29    27    28   ar
    30    28    29   ar
    31    29    30   ar
    32    30    31    1
    33    31    32    2
    34    31    33    1
    35    30    34   ar
    36    34    35   ar
    37    27    35   ar
    38     1    36    1
    39     1    37    1
    40     2    38    1
    41     3    39    1
    42     3    40    1
    43     7    41    1
    44     7    42    1
    45    10    43    1
    46    17    44    1
    47    17    45    1
    48    18    46    1
    49    18    47    1
    50    18    48    1
    51    20    49    1
    52    20    50    1
    53    20    51    1
    54    28    52    1
    55    29    53    1
    56    34    54    1
    57    35    55    1
