@<TRIPOS>MOLECULE
*****
 57 59 0 0 0
SMALL
GASTEIGER

@<TRIPOS>ATOM
      1 C          23.3790   -0.3308   15.0952 C.3     1  UNL1        0.0820
      2 O          23.1770   -0.3855   13.6744 O.3     1  UNL1       -0.4645
      3 C          21.9158   -0.7537   13.3133 C.2     1  UNL1        0.3389
      4 O          21.0065   -1.0195   14.0725 O.2     1  UNL1       -0.2450
      5 C          21.7655   -0.7983   11.8310 C.ar    1  UNL1        0.0591
      6 C          20.5558   -0.4039   11.2482 C.ar    1  UNL1       -0.0460
      7 C          20.3250   -0.6152    9.8749 C.ar    1  UNL1       -0.0401
      8 C          21.3206   -1.1430    9.0397 C.ar    1  UNL1        0.0275
      9 N          21.0773   -1.3362    7.6913 N.pl3   1  UNL1       -0.3354
     10 C          22.1205   -1.7315    6.7332 C.3     1  UNL1        0.0861
     11 C          21.5866   -1.6563    5.2995 C.2     1  UNL1        0.2343
     12 O          20.4755   -1.1669    5.0759 O.2     1  UNL1       -0.2738
     13 N          22.4257   -2.2006    4.3195 N.am    1  UNL1       -0.2842
     14 C          22.1080   -2.1229    2.9501 C.ar    1  UNL1        0.0335
     15 C          22.4312   -3.1081    2.0120 C.ar    1  UNL1       -0.0398
     16 C          22.0962   -2.9345    0.6422 C.ar    1  UNL1       -0.0479
     17 C          21.4510   -1.7687    0.1970 C.ar    1  UNL1        0.0368
     18 C          20.9936   -1.6537   -1.2372 C.2     1  UNL1        0.2445
     19 O          21.2647   -2.5660   -2.0217 O.2     1  UNL1       -0.2702
     20 N          20.2591   -0.5928   -1.7349 N.am    1  UNL1       -0.3048
     21 C          19.6133    0.5352   -1.0864 C.3     1  UNL1        0.0458
     22 C          18.1620    0.2592   -0.7158 C.3     1  UNL1       -0.0424
     23 C          19.9127    1.8831   -1.6878 C.ar    1  UNL1       -0.0275
     24 C          21.0133    2.1128   -2.5230 C.ar    1  UNL1       -0.0568
     25 C          21.3161    3.4129   -2.9251 C.ar    1  UNL1       -0.0614
     26 C          20.5026    4.4775   -2.5334 C.ar    1  UNL1       -0.0617
     27 C          19.4503    4.2689   -1.6541 C.ar    1  UNL1       -0.0614
     28 C          19.1850    2.9870   -1.2106 C.ar    1  UNL1       -0.0568
     29 C          21.2911   -0.7785    1.1560 C.ar    1  UNL1       -0.0479
     30 C          21.5334   -0.9612    2.5001 C.ar    1  UNL1       -0.0398
     31 C          22.5162   -1.5415    9.6492 C.ar    1  UNL1       -0.0401
     32 C          22.7472   -1.3683   11.0228 C.ar    1  UNL1       -0.0460
     33 H          24.3972    0.0224   15.2892 H       1  UNL1        0.0661
     34 H          23.2754   -1.3275   15.5376 H       1  UNL1        0.0661
     35 H          22.6823    0.3705   15.5678 H       1  UNL1        0.0661
     36 H          19.7803    0.0556   11.8582 H       1  UNL1        0.0626
     37 H          19.3426   -0.3752    9.4701 H       1  UNL1        0.0636
     38 H          20.2666   -0.8807    7.2673 H       1  UNL1        0.1466
     39 H          22.4073   -2.7677    6.9290 H       1  UNL1        0.0557
     40 H          22.9944   -1.0729    6.8036 H       1  UNL1        0.0557
     41 H          23.2814   -2.6780    4.5704 H       1  UNL1        0.1549
     42 H          22.8694   -4.0505    2.3265 H       1  UNL1        0.0636
     43 H          22.3587   -3.7138   -0.0751 H       1  UNL1        0.0626
     44 H          20.0363   -0.7077   -2.7171 H       1  UNL1        0.1496
     45 H          20.0570    0.7065   -0.1452 H       1  UNL1        0.0545
     46 H          17.5152    0.3477   -1.5894 H       1  UNL1        0.0251
     47 H          17.8143    0.9763    0.0392 H       1  UNL1        0.0251
     48 H          18.0435   -0.7258   -0.2561 H       1  UNL1        0.0251
     49 H          21.6565    1.2953   -2.8464 H       1  UNL1        0.0621
     50 H          22.1907    3.5993   -3.5419 H       1  UNL1        0.0618
     51 H          20.6939    5.4779   -2.9046 H       1  UNL1        0.0618
     52 H          18.8363    5.0884   -1.2951 H       1  UNL1        0.0618
     53 H          18.4100    2.8668   -0.4589 H       1  UNL1        0.0621
     54 H          21.0517    0.2438    0.9907 H       1  UNL1        0.0626
     55 H          21.3167   -0.1220    3.1556 H       1  UNL1        0.0636
     56 H          23.2908   -2.0246    9.0629 H       1  UNL1        0.0636
     57 H          23.6831   -1.7172   11.4488 H       1  UNL1        0.0626
@<TRIPOS>BOND
     1     1     2    1
     2     2     3    1
     3     3     4    2
     4     3     5    1
     5     5     6   ar
     6     6     7   ar
     7     7     8   ar
     8     8     9    1
     9     9    10    1
    10    10    11    1
    11    11    12    2
    12    11    13   am
    13    13    14    1
    14    14    15   ar
    15    15    16   ar
    16    16    17   ar
    17    17    18    1
    18    18    19    2
    19    18    20   am
    20    21    23    1
    21    23    24   ar
    22    24    25   ar
    23    25    26   ar
    24    26    27   ar
    25    27    28   ar
    26    23    28   ar
    27    17    29   ar
    28    29    30   ar
    29    14    30   ar
    30     8    31   ar
    31    31    32   ar
    32     5    32   ar
    33    21    22    1
    34    21    20    1
    35     1    33    1
    36     1    34    1
    37     1    35    1
    38     6    36    1
    39     7    37    1
    40     9    38    1
    41    10    39    1
    42    10    40    1
    43    13    41    1
    44    15    42    1
    45    16    43    1
    46    20    44    1
    47    21    45    1
    48    22    46    1
    49    22    47    1
    50    22    48    1
    51    24    49    1
    52    25    50    1
    53    26    51    1
    54    27    52    1
    55    28    53    1
    56    29    54    1
    57    30    55    1
    58    31    56    1
    59    32    57    1
