REMARK  7 active torsions:
REMARK  status: ('A' for Active; 'I' for Inactive)
REMARK    1  A    between atoms: C_4  and  O_5 
REMARK    2  A    between atoms: O_5  and  C_6 
REMARK    3  A    between atoms: C_6  and  C_7 
REMARK       I    between atoms: C_7  and  N_9 
REMARK    4  A    between atoms: N_9  and  N_10 
REMARK    5  A    between atoms: N_10  and  S_11 
REMARK    6  A    between atoms: S_11  and  C_14 
REMARK    7  A    between atoms: C_19  and  N_20 
ROOT
ATOM      1  C   UNL d   1       6.124   0.878  -0.078  0.00  0.00     0.260 C 
ATOM      2  O   UNL d   1       6.602  -0.252  -0.160  0.00  0.00    -0.269 OA
ATOM      3  N   UNL d   1       6.924   2.005  -0.036  0.00  0.00    -0.259 N 
ATOM      4  H   UNL d   1       6.572   2.954   0.095  0.00  0.00     0.190 HD
ENDROOT
BRANCH   3   5
ATOM      5  N   UNL d   1       8.401   1.856  -0.142  0.00  0.00    -0.220 N 
ATOM      6  H   UNL d   1       8.687   1.128  -0.804  0.00  0.00     0.200 HD
BRANCH   5   7
ATOM      7  S   UNL d   1       9.237   3.330  -0.155  0.00  0.00     0.278 S 
ATOM      8  O   UNL d   1       8.889   3.909  -1.429  0.00  0.00    -0.199 OA
ATOM      9  O   UNL d   1       8.912   3.945   1.121  0.00  0.00    -0.199 OA
BRANCH   7  10
ATOM     10  C   UNL d   1      10.980   3.027  -0.147  0.00  0.00     0.114 A 
ATOM     11  C   UNL d   1      11.478   1.711  -0.115  0.00  0.00     0.028 A 
ATOM     12  C   UNL d   1      12.852   1.475   0.040  0.00  0.00     0.002 A 
ATOM     13  C   UNL d   1      13.748   2.538   0.095  0.00  0.00     0.003 A 
ATOM     14  C   UNL d   1      13.270   3.845   0.036  0.00  0.00     0.038 A 
ATOM     15  C   UNL d   1      11.887   4.106  -0.080  0.00  0.00     0.126 A 
BRANCH  15  16
ATOM     16  N   UNL d   1      11.498   5.535  -0.149  0.00  0.00    -0.114 N 
ATOM     17  O   UNL d   1      12.411   6.371  -0.096  0.00  0.00    -0.532 OA
ATOM     18  O   UNL d   1      10.315   5.847  -0.276  0.00  0.00    -0.532 OA
ENDBRANCH  15  16
ENDBRANCH   7  10
ENDBRANCH   5   7
ENDBRANCH   3   5
BRANCH   1  19
ATOM     19  C   UNL d   1       4.620   1.177  -0.026  0.00  0.00     0.280 C 
BRANCH  19  20
ATOM     20  O   UNL d   1       3.873  -0.040  -0.017  0.00  0.00    -0.342 OA
BRANCH  20  21
ATOM     21  C   UNL d   1       2.509   0.049  -0.004  0.00  0.00     0.070 A 
ATOM     22  C   UNL d   1       1.785   1.237   0.008  0.00  0.00     0.045 A 
ATOM     23  C   UNL d   1       0.381   1.230   0.004  0.00  0.00    -0.037 A 
ATOM     24  C   UNL d   1      -0.345   2.546  -0.004  0.00  0.00     0.050 C 
ATOM     25  C   UNL d   1      -0.304   0.002   0.001  0.00  0.00     0.046 A 
ATOM     26  C   UNL d   1       0.409  -1.210   0.000  0.00  0.00    -0.037 A 
ATOM     27 CL   UNL d   1      -2.040  -0.012  -0.004  0.00  0.00    -0.083 Cl
ATOM     28  C   UNL d   1       1.816  -1.169  -0.006  0.00  0.00     0.045 A 
ATOM     29  C   UNL d   1      -0.302  -2.536   0.009  0.00  0.00     0.050 C 
ENDBRANCH  20  21
ENDBRANCH  19  20
ENDBRANCH   1  19
TORSDOF 7
