@<TRIPOS>MOLECULE
*****
 50 51 0 0 0
SMALL
GASTEIGER

@<TRIPOS>ATOM
      1 C           1.0221   -0.0996    0.0033 C.3     1  UNL1       -0.0389
      2 C           2.5462   -0.1587   -0.0097 C.3     1  UNL1        0.0535
      3 C           3.0038   -1.2971   -0.9078 C.3     1  UNL1       -0.0389
      4 O           3.0474    1.0661   -0.5305 O.3     1  UNL1       -0.3725
      5 C           4.4780    1.1414   -0.5087 C.3     1  UNL1        0.0731
      6 C           4.9290    2.4814   -1.0001 C.ar    1  UNL1       -0.0202
      7 C           6.1275    2.6897   -1.6660 C.ar    1  UNL1       -0.0563
      8 C           6.5280    3.9996   -1.9345 C.ar    1  UNL1       -0.0597
      9 C           5.6861    5.0943   -1.6284 C.ar    1  UNL1       -0.0404
     10 C           4.4672    4.8887   -0.9715 C.ar    1  UNL1        0.0351
     11 N           3.6005    5.9526   -0.5706 N.am    1  UNL1       -0.2695
     12 C           2.4193    5.7550    0.1371 C.2     1  UNL1        0.3039
     13 O           1.9466    4.6822    0.5021 O.2     1  UNL1       -0.2525
     14 N           1.7120    6.8829    0.4617 N.am    1  UNL1       -0.2991
     15 C           0.4559    6.6990    1.1917 C.3     1  UNL1        0.0134
     16 C          -0.2325    8.0102    1.4972 C.3     1  UNL1       -0.0318
     17 C          -1.5471    7.8148    2.2552 C.3     1  UNL1       -0.0059
     18 C          -2.2379    9.1076    2.5681 C.ar    1  UNL1        0.0821
     19 N          -1.6665   10.2915    2.2951 N.ar    1  UNL1       -0.1759
     20 N          -2.5637   11.1935    2.7264 N.ar    1  UNL1       -0.2630
     21 C          -3.6879   10.6351    3.2721 C.ar    1  UNL1        0.1294
     22 N          -4.6855   11.3885    3.7703 N.pl3   1  UNL1       -0.3425
     23 C          -3.5069    9.2757    3.1693 C.ar    1  UNL1        0.1134
     24 C          -4.4133    8.2575    3.5894 C.1     1  UNL1        0.1044
     25 N          -5.1464    7.4300    3.9251 N.1     1  UNL1       -0.1907
     26 C           4.1351    3.5758   -0.6786 C.ar    1  UNL1       -0.0351
     27 H           0.6055   -1.0452    0.3653 H       1  UNL1        0.0254
     28 H           0.6280    0.0928   -1.0011 H       1  UNL1        0.0254
     29 H           0.6590    0.7094    0.6460 H       1  UNL1        0.0254
     30 H           2.9034   -0.2910    1.0187 H       1  UNL1        0.0590
     31 H           2.6946   -1.1012   -1.9413 H       1  UNL1        0.0254
     32 H           2.6088   -2.2542   -0.5715 H       1  UNL1        0.0254
     33 H           4.0931   -1.3859   -0.9181 H       1  UNL1        0.0254
     34 H           4.8995    0.3927   -1.1760 H       1  UNL1        0.0610
     35 H           4.8361    0.9932    0.5174 H       1  UNL1        0.0610
     36 H           6.7404    1.8443   -1.9708 H       1  UNL1        0.0621
     37 H           7.5122    4.1644   -2.3684 H       1  UNL1        0.0618
     38 H           6.0183    6.0846   -1.9223 H       1  UNL1        0.0636
     39 H           3.9019    6.8910   -0.7827 H       1  UNL1        0.1564
     40 H           2.0360    7.8052    0.2222 H       1  UNL1        0.1502
     41 H           0.6677    6.1550    2.1232 H       1  UNL1        0.0462
     42 H          -0.2022    6.0544    0.5925 H       1  UNL1        0.0462
     43 H          -0.4274    8.5396    0.5573 H       1  UNL1        0.0284
     44 H           0.4446    8.6355    2.0907 H       1  UNL1        0.0284
     45 H          -1.3609    7.2827    3.1977 H       1  UNL1        0.0330
     46 H          -2.2266    7.1845    1.6661 H       1  UNL1        0.0330
     47 H          -2.3457   12.1776    2.6255 H       1  UNL1        0.1903
     48 H          -4.6854   12.4047    3.7862 H       1  UNL1        0.1437
     49 H          -5.5079   10.9677    4.2011 H       1  UNL1        0.1437
     50 H           3.2150    3.3206   -0.1786 H       1  UNL1        0.0640
@<TRIPOS>BOND
     1     1     2    1
     2     2     3    1
     3     2     4    1
     4     4     5    1
     5     5     6    1
     6     6     7   ar
     7     7     8   ar
     8     8     9   ar
     9     9    10   ar
    10    10    11    1
    11    11    12   am
    12    12    13    2
    13    12    14   am
    14    14    15    1
    15    15    16    1
    16    16    17    1
    17    17    18    1
    18    18    19   ar
    19    19    20   ar
    20    20    21   ar
    21    21    22    1
    22    21    23   ar
    23    18    23   ar
    24    23    24    1
    25    24    25    3
    26    10    26   ar
    27     6    26   ar
    28     1    27    1
    29     1    28    1
    30     1    29    1
    31     2    30    1
    32     3    31    1
    33     3    32    1
    34     3    33    1
    35     5    34    1
    36     5    35    1
    37     7    36    1
    38     8    37    1
    39     9    38    1
    40    11    39    1
    41    14    40    1
    42    15    41    1
    43    15    42    1
    44    16    43    1
    45    16    44    1
    46    17    45    1
    47    17    46    1
    48    20    47    1
    49    22    48    1
    50    22    49    1
    51    26    50    1
