@<TRIPOS>MOLECULE
*****
 55 59 0 0 0
SMALL
GASTEIGER

@<TRIPOS>ATOM
      1 O           6.0272    3.4789   -4.7860 O.2     1  UNL1       -0.2740
      2 C           5.0217    2.7892   -4.6254 C.2     1  UNL1        0.2321
      3 C           3.6349    2.9992   -5.2754 C.3     1  UNL1        0.1103
      4 N           3.4075    4.2265   -6.0467 N.am    1  UNL1       -0.1902
      5 N           4.1000    4.4992   -7.2508 N.3     1  UNL1       -0.1925
      6 C           4.2824    5.9657   -7.1632 C.3     1  UNL1        0.2034
      7 C           5.6185    6.2985   -6.5299 C.ar    1  UNL1        0.0463
      8 C           6.0007    6.0359   -5.2296 C.ar    1  UNL1       -0.0466
      9 C           7.3955    6.1417   -5.0146 C.ar    1  UNL1       -0.0543
     10 C           8.0035    6.7917   -6.0591 C.ar    1  UNL1       -0.0239
     11 S           6.9185    7.0337   -7.3746 S.2     1  UNL1       -0.0965
     12 O           3.2493    6.4488   -6.2975 O.3     1  UNL1       -0.4242
     13 C           2.8365    5.3797   -5.5440 C.2     1  UNL1        0.4190
     14 O           2.0864    5.4660   -4.5876 O.2     1  UNL1       -0.2248
     15 N           5.2672    1.7394   -3.8095 N.am    1  UNL1       -0.3131
     16 C           4.4783    0.5570   -3.6124 C.3     1  UNL1        0.0224
     17 C           5.1009   -0.4447   -2.5871 C.3     1  UNL1        0.0290
     18 C           4.5395   -0.0983   -1.2324 C.2     1  UNL1        0.0166
     19 C           4.7186    1.0331   -0.5351 C.ar    1  UNL1        0.0515
     20 C           5.4836    2.2213   -0.7534 C.ar    1  UNL1       -0.0481
     21 C           5.6247    3.1044    0.2379 C.ar    1  UNL1       -0.0608
     22 C           4.9660    2.8991    1.5102 C.ar    1  UNL1       -0.0555
     23 C           4.2250    1.8100    1.8013 C.ar    1  UNL1        0.0098
     24 C           4.0787    0.7735    0.7607 C.ar    1  UNL1        0.2086
     25 N           3.5037   -0.3696    0.7951 N.2     1  UNL1       -0.2369
     26 C           3.7067   -1.0886   -0.4797 C.3     1  UNL1        0.1667
     27 C           6.6393   -0.5413   -2.5964 C.ar    1  UNL1       -0.0203
     28 C           7.4232   -0.0098   -1.5452 C.ar    1  UNL1       -0.0566
     29 C           8.7776    0.2609   -1.6818 C.ar    1  UNL1       -0.0614
     30 C           9.4454   -0.2324   -2.7817 C.ar    1  UNL1       -0.0604
     31 C           8.7434   -0.9668   -3.7382 C.ar    1  UNL1       -0.0431
     32 C           7.3460   -1.0616   -3.6874 C.ar    1  UNL1        0.0448
     33 CL          6.5416   -1.8158   -5.0133 Cl      1  UNL1       -0.0832
     34 H           2.8876    2.9586   -4.4741 H       1  UNL1        0.0577
     35 H           3.4730    2.1558   -5.9520 H       1  UNL1        0.0577
     36 H           3.4056    4.3685   -7.9942 H       1  UNL1        0.1487
     37 H           4.1732    6.4337   -8.1491 H       1  UNL1        0.0985
     38 H           5.3230    5.5960   -4.5142 H       1  UNL1        0.0627
     39 H           7.8979    5.7778   -4.1267 H       1  UNL1        0.0623
     40 H           9.0392    7.0983   -6.1122 H       1  UNL1        0.0693
     41 H           6.2656    1.7104   -3.6109 H       1  UNL1        0.1488
     42 H           4.3313    0.1010   -4.5926 H       1  UNL1        0.0471
     43 H           3.4916    0.8987   -3.2716 H       1  UNL1        0.0471
     44 H           4.7047   -1.4360   -2.8464 H       1  UNL1        0.0412
     45 H           6.0527    2.3808   -1.6584 H       1  UNL1        0.0626
     46 H           6.2668    3.9718    0.0904 H       1  UNL1        0.0618
     47 H           5.1140    3.6961    2.2351 H       1  UNL1        0.0620
     48 H           3.7602    1.6985    2.7710 H       1  UNL1        0.0683
     49 H           3.0021   -0.7240    1.6065 H       1  UNL1        0.4459
     50 H           2.7385   -1.2616   -0.9580 H       1  UNL1        0.1077
     51 H           4.2346   -2.0276   -0.2866 H       1  UNL1        0.1077
     52 H           7.0132    0.2753   -0.5858 H       1  UNL1        0.0621
     53 H           9.2927    0.8460   -0.9217 H       1  UNL1        0.0618
     54 H          10.5137   -0.0632   -2.8792 H       1  UNL1        0.0618
     55 H           9.2974   -1.4385   -4.5449 H       1  UNL1        0.0632
@<TRIPOS>UNITY_ATOM_ATTR
25 1
charge 1
@<TRIPOS>BOND
     1     1     2    2
     2     2     3    1
     3     3     4    1
     4     4     5    1
     5     5     6    1
     6     6     7    1
     7     7     8   ar
     8     8     9   ar
     9     9    10   ar
    10    10    11   ar
    11     7    11   ar
    12     6    12    1
    13    12    13    1
    14     4    13   am
    15    13    14    2
    16     2    15   am
    17    15    16    1
    18    18    19    2
    19    19    20   ar
    20    20    21   ar
    21    21    22   ar
    22    22    23   ar
    23    23    24   ar
    24    19    24   ar
    25    24    25    2
    26    25    26    1
    27    18    26    1
    28    17    27    1
    29    27    28   ar
    30    28    29   ar
    31    29    30   ar
    32    30    31   ar
    33    31    32   ar
    34    27    32   ar
    35    32    33    1
    36    17    18    1
    37    17    16    1
    38     3    34    1
    39     3    35    1
    40     5    36    1
    41     6    37    1
    42     8    38    1
    43     9    39    1
    44    10    40    1
    45    15    41    1
    46    16    42    1
    47    16    43    1
    48    17    44    1
    49    20    45    1
    50    21    46    1
    51    22    47    1
    52    23    48    1
    53    25    49    1
    54    26    50    1
    55    26    51    1
    56    28    52    1
    57    29    53    1
    58    30    54    1
    59    31    55    1
