REMARK  3 active torsions:
REMARK  status: ('A' for Active; 'I' for Inactive)
REMARK    1  A    between atoms: C_2  and  C_3 
REMARK       I    between atoms: C_3  and  N_5 
REMARK    2  A    between atoms: N_5  and  C_6 
REMARK    3  A    between atoms: C_9  and  C_10 
ROOT
ATOM      1  C   UNL d   1       4.877   1.716   2.540  0.00  0.00     0.034 A 
ATOM      2  C   UNL d   1       6.074   2.429   2.417  0.00  0.00     0.030 A 
ATOM      3  C   UNL d   1       6.678   2.998   3.554  0.00  0.00     0.016 A 
ATOM      4  C   UNL d   1       6.083   2.876   4.817  0.00  0.00    -0.005 A 
ATOM      5  C   UNL d   1       4.888   2.165   4.934  0.00  0.00     0.016 A 
ATOM      6  C   UNL d   1       4.288   1.605   3.804  0.00  0.00     0.030 A 
ENDROOT
BRANCH   1   7
ATOM      7  N   UNL d   1       4.309   1.048   1.425  0.00  0.00    -0.327 N 
ATOM      8  C   UNL d   1       2.942   0.871   1.276  0.00  0.00     0.221 C 
ATOM      9  O   UNL d   1       2.097   1.396   2.010  0.00  0.00    -0.273 OA
ATOM     10  H   UNL d   1       4.934   0.767   0.679  0.00  0.00     0.169 HD
BRANCH   8  11
ATOM     11  C   UNL d   1       2.511  -0.003   0.110  0.00  0.00     0.098 C 
ATOM     12  C   UNL d   1       0.985  -0.060   0.045  0.00  0.00     0.014 C 
ENDBRANCH   8  11
ENDBRANCH   1   7
BRANCH   4  13
ATOM     13  C   UNL d   1       6.713   3.445   6.004  0.00  0.00     0.088 A 
ATOM     14  C   UNL d   1       7.035   2.759   7.204  0.00  0.00     0.053 A 
ATOM     15  C   UNL d   1       7.643   3.691   8.009  0.00  0.00     0.111 A 
ATOM     16  N   UNL d   1       7.618   4.856   7.305  0.00  0.00    -0.289 N 
ATOM     17  N   UNL d   1       7.082   4.734   6.079  0.00  0.00    -0.175 NA
ATOM     18  H   UNL d   1       7.967   5.766   7.591  0.00  0.00     0.188 HD
ENDBRANCH   4  13
TORSDOF 3
