@<TRIPOS>MOLECULE
*****
 64 68 0 0 0
SMALL
GASTEIGER

@<TRIPOS>ATOM
      1 C           2.3037    3.8543   13.4723 C.3     1  UNL1        0.0007
      2 N           2.4481    5.1702   14.0951 N.pl3   1  UNL1       -0.3329
      3 C           2.2448    6.4247   13.3560 C.3     1  UNL1        0.0133
      4 C           2.0870    6.2185   11.8433 C.3     1  UNL1       -0.0216
      5 C           1.9887    7.5172   11.0564 C.3     1  UNL1        0.0130
      6 N           1.8206    7.2723    9.6184 N.am    1  UNL1       -0.3146
      7 C           1.7006    8.3232    8.7242 C.2     1  UNL1        0.2231
      8 O           1.8232    9.4926    9.0948 O.2     1  UNL1       -0.2749
      9 C           1.4398    7.9329    7.2464 C.3     1  UNL1        0.0755
     10 S           0.5840    9.3222    6.3577 S.3     1  UNL1       -0.0827
     11 C           1.1461    9.2062    4.6353 C.3     1  UNL1        0.2383
     12 N           0.0743    8.6375    3.8360 N.pl3   1  UNL1       -0.1245
     13 N          -0.3004    9.3144    2.7236 N.2     1  UNL1        0.0444
     14 C           0.4066   10.3949    2.7423 C.2     1  UNL1        0.3482
     15 C           0.4389   11.4201    1.6880 C.2     1  UNL1        0.1224
     16 C           1.5268   11.8430    1.0323 C.ar    1  UNL1        0.0627
     17 C           2.9175   11.5530    1.1154 C.ar    1  UNL1       -0.0476
     18 C           3.7609   12.1840    0.2829 C.ar    1  UNL1       -0.0608
     19 C           3.2918   13.1353   -0.7133 C.ar    1  UNL1       -0.0555
     20 C           1.9931   13.4386   -0.8949 C.ar    1  UNL1        0.0098
     21 C           1.0130   12.7679   -0.0111 C.ar    1  UNL1        0.2091
     22 N          -0.2565   12.8549    0.0070 N.2     1  UNL1       -0.2363
     23 C          -0.8116   11.9737    1.0704 C.3     1  UNL1        0.1772
     24 N           1.2533   10.5201    3.9073 N.pl3   1  UNL1       -0.1853
     25 C           1.6688   11.7752    4.4951 C.3     1  UNL1        0.0944
     26 C           2.2685   11.8299    5.8860 C.3     1  UNL1       -0.0100
     27 C           3.0971   12.2059    4.7148 C.3     1  UNL1       -0.0100
     28 C           2.4908    5.1734   15.4945 C.ar    1  UNL1        0.0294
     29 C           3.3383    4.2889   16.1849 C.ar    1  UNL1       -0.0407
     30 C           3.2827    4.1412   17.5759 C.ar    1  UNL1       -0.0600
     31 C           2.4394    4.9505   18.3253 C.ar    1  UNL1       -0.0616
     32 C           1.6823    5.9232   17.6820 C.ar    1  UNL1       -0.0600
     33 C           1.6837    6.0081   16.2812 C.ar    1  UNL1       -0.0407
     34 H           2.1639    3.8903   12.3902 H       1  UNL1        0.0428
     35 H           1.4324    3.3201   13.8675 H       1  UNL1        0.0428
     36 H           3.2038    3.2504   13.6201 H       1  UNL1        0.0428
     37 H           3.1211    7.0603   13.5380 H       1  UNL1        0.0464
     38 H           1.3677    6.9694   13.7225 H       1  UNL1        0.0464
     39 H           1.1790    5.6311   11.6541 H       1  UNL1        0.0295
     40 H           2.9402    5.6460   11.4593 H       1  UNL1        0.0295
     41 H           2.8917    8.1199   11.2017 H       1  UNL1        0.0462
     42 H           1.1298    8.1050   11.3994 H       1  UNL1        0.0462
     43 H           1.7806    6.3113    9.3002 H       1  UNL1        0.1487
     44 H           0.7329    7.1005    7.2265 H       1  UNL1        0.0473
     45 H           2.3891    7.6210    6.7951 H       1  UNL1        0.0473
     46 H           2.0772    8.6507    4.4781 H       1  UNL1        0.1142
     47 H          -0.4243    7.8173    4.1655 H       1  UNL1        0.1999
     48 H           3.2806   10.8314    1.8381 H       1  UNL1        0.0626
     49 H           4.8307   11.9896    0.3332 H       1  UNL1        0.0618
     50 H           4.0633   13.5977   -1.3318 H       1  UNL1        0.0620
     51 H           1.6898   14.1475   -1.6597 H       1  UNL1        0.0683
     52 H          -0.7874   13.4552   -0.6321 H       1  UNL1        0.4460
     53 H          -1.4466   11.2257    0.5881 H       1  UNL1        0.1083
     54 H          -1.3752   12.6006    1.7644 H       1  UNL1        0.1083
     55 H           1.0622   12.6146    4.1508 H       1  UNL1        0.0764
     56 H           2.6789   10.9754    6.4119 H       1  UNL1        0.0306
     57 H           1.8251   12.5496    6.5648 H       1  UNL1        0.0306
     58 H           3.8950   11.5330    4.4313 H       1  UNL1        0.0306
     59 H           3.3773   13.2550    4.6956 H       1  UNL1        0.0306
     60 H           4.0768    3.7077   15.6391 H       1  UNL1        0.0636
     61 H           3.9010    3.3957   18.0689 H       1  UNL1        0.0618
     62 H           2.3789    4.8294   19.4038 H       1  UNL1        0.0618
     63 H           1.0688    6.6034   18.2673 H       1  UNL1        0.0618
     64 H           0.9935    6.7089   15.8243 H       1  UNL1        0.0636
@<TRIPOS>UNITY_ATOM_ATTR
22 1
charge 1
@<TRIPOS>BOND
     1     1     2    1
     2     2     3    1
     3     3     4    1
     4     4     5    1
     5     5     6    1
     6     6     7   am
     7     7     8    2
     8     7     9    1
     9     9    10    1
    10    11    12    1
    11    12    13    1
    12    13    14    2
    13    14    15    1
    14    15    16    2
    15    16    17   ar
    16    17    18   ar
    17    18    19   ar
    18    19    20   ar
    19    20    21   ar
    20    16    21   ar
    21    21    22    2
    22    22    23    1
    23    15    23    1
    24    14    24    1
    25    11    24    1
    26    24    25    1
    27    25    26    1
    28    26    27    1
    29    25    27    1
    30     2    28    1
    31    28    29   ar
    32    29    30   ar
    33    30    31   ar
    34    31    32   ar
    35    32    33   ar
    36    28    33   ar
    37    11    10    1
    38     1    34    1
    39     1    35    1
    40     1    36    1
    41     3    37    1
    42     3    38    1
    43     4    39    1
    44     4    40    1
    45     5    41    1
    46     5    42    1
    47     6    43    1
    48     9    44    1
    49     9    45    1
    50    11    46    1
    51    12    47    1
    52    17    48    1
    53    18    49    1
    54    19    50    1
    55    20    51    1
    56    22    52    1
    57    23    53    1
    58    23    54    1
    59    25    55    1
    60    26    56    1
    61    26    57    1
    62    27    58    1
    63    27    59    1
    64    29    60    1
    65    30    61    1
    66    31    62    1
    67    32    63    1
    68    33    64    1
