REMARK  12 active torsions:
REMARK  status: ('A' for Active; 'I' for Inactive)
REMARK    1  A    between atoms: C_2  and  C_3 
REMARK    2  A    between atoms: C_3  and  C_4 
REMARK    3  A    between atoms: C_4  and  C_5 
REMARK    4  A    between atoms: C_11  and  C_12 
REMARK    5  A    between atoms: C_15  and  O_16 
REMARK    6  A    between atoms: O_16  and  C_17 
REMARK    7  A    between atoms: C_17  and  C_18 
REMARK    8  A    between atoms: C_18  and  O_19 
REMARK    9  A    between atoms: O_19  and  C_20 
REMARK   10  A    between atoms: C_25  and  O_26 
REMARK   11  A    between atoms: C_28  and  O_29 
REMARK   12  A    between atoms: O_29  and  C_30 
ROOT
ATOM      1  C   UNL d   1       4.881   7.558  -0.715  0.00  0.00    -0.032 C 
ATOM      2  C   UNL d   1       3.522   7.811  -0.896  0.00  0.00     0.014 C 
ATOM      3  C   UNL d   1       2.679   7.825   0.224  0.00  0.00     0.040 C 
ATOM      4  C   UNL d   1       3.167   7.432   1.487  0.00  0.00     0.102 C 
ATOM      5  C   UNL d   1       4.510   7.077   1.629  0.00  0.00     0.102 C 
ATOM      6  C   UNL d   1       5.362   7.257   0.562  0.00  0.00     0.051 C 
ENDROOT
BRANCH   1   7
ATOM      7  C   UNL d   1       5.822   7.412  -1.831  0.00  0.00     0.032 C 
ATOM      8  C   UNL d   1       6.480   6.258  -2.055  0.00  0.00     0.076 C 
ATOM      9  C   UNL d   1       6.277   5.019  -1.225  0.00  0.00     0.140 C 
ATOM     10  C   UNL d   1       7.220   6.029  -3.345  0.00  0.00     0.282 C 
ATOM     11  N   UNL d   1       6.892   3.865  -1.690  0.00  0.00    -0.094 NA
ATOM     12  N   UNL d   1       5.362   4.897  -0.306  0.00  0.00    -0.286 NA
ATOM     13  N   UNL d   1       6.478   2.730  -0.992  0.00  0.00    -0.183 NA
ATOM     14  C   UNL d   1       6.656   3.847  -3.050  0.00  0.00     0.179 C 
ATOM     15  C   UNL d   1       5.419   2.253  -1.580  0.00  0.00     0.093 C 
ATOM     16  S   UNL d   1       5.175   2.809  -3.246  0.00  0.00    -0.039 SA
ATOM     17  N   UNL d   1       6.954   4.782  -3.911  0.00  0.00    -0.188 NA
ATOM     18  H   UNL d   1       5.340   3.936   0.039  0.00  0.00     0.188 HD
ATOM     19  O   UNL d   1       7.795   6.969  -3.923  0.00  0.00    -0.265 OA
BRANCH  15  20
ATOM     20  C   UNL d   1       4.596   1.227  -0.812  0.00  0.00     0.068 C 
BRANCH  20  21
ATOM     21  C   UNL d   1       3.067   1.274  -0.692  0.00  0.00     0.006 C 
BRANCH  21  22
ATOM     22  C   UNL d   1       2.539   0.018   0.048  0.00  0.00    -0.004 C 
ATOM     23  C   UNL d   1       1.017  -0.021   0.087  0.00  0.00     0.005 C 
ENDBRANCH  21  22
ENDBRANCH  20  21
ENDBRANCH  15  20
ENDBRANCH   1   7
BRANCH   5  24
ATOM     24  O   UNL d   1       4.933   6.533   2.801  0.00  0.00    -0.349 OA
BRANCH  24  25
ATOM     25  C   UNL d   1       6.267   6.111   2.979  0.00  0.00     0.171 C 
ATOM     26  C   UNL d   1       6.446   5.806   4.453  0.00  0.00     0.034 C 
ENDBRANCH  24  25
ENDBRANCH   5  24
BRANCH   4  27
ATOM     27  O   UNL d   1       2.270   7.454   2.525  0.00  0.00    -0.346 OA
BRANCH  27  28
ATOM     28  C   UNL d   1       2.785   6.989   3.802  0.00  0.00     0.202 C 
BRANCH  28  29
ATOM     29  C   UNL d   1       1.673   7.072   4.798  0.00  0.00     0.202 C 
BRANCH  29  30
ATOM     30  O   UNL d   1       1.859   6.355   6.007  0.00  0.00    -0.346 OA
BRANCH  30  31
ATOM     31  C   UNL d   1       0.787   6.244   6.874  0.00  0.00     0.102 A 
ATOM     32  C   UNL d   1       1.163   6.567   8.200  0.00  0.00     0.039 A 
ATOM     33  C   UNL d   1       0.314   6.333   9.290  0.00  0.00     0.003 A 
ATOM     34  C   UNL d   1      -0.963   5.841   9.075  0.00  0.00     0.003 A 
ATOM     35  C   UNL d   1      -1.360   5.533   7.782  0.00  0.00     0.039 A 
ATOM     36  C   UNL d   1      -0.505   5.696   6.675  0.00  0.00     0.101 A 
BRANCH  36  37
ATOM     37  O   UNL d   1      -1.163   5.177   5.582  0.00  0.00    -0.353 OA
ATOM     38  C   UNL d   1      -0.556   5.386   4.349  0.00  0.00     0.210 C 
ENDBRANCH  36  37
ENDBRANCH  30  31
ENDBRANCH  29  30
ENDBRANCH  28  29
ENDBRANCH  27  28
ENDBRANCH   4  27
TORSDOF 12
