REMARK  5 active torsions:
REMARK  status: ('A' for Active; 'I' for Inactive)
REMARK    1  A    between atoms: O_2  and  C_3 
REMARK    2  A    between atoms: C_6  and  N_7 
REMARK    3  A    between atoms: N_7  and  C_8 
REMARK    4  A    between atoms: C_11  and  N_12 
REMARK       I    between atoms: N_12  and  C_13 
REMARK    5  A    between atoms: C_13  and  C_15 
ROOT
ATOM      1  C   UNL d   1       5.026  -2.495   5.489  0.00  0.00     0.032 A 
ATOM      2  C   UNL d   1       4.918  -2.366   6.877  0.00  0.00     0.031 A 
ATOM      3  C   UNL d   1       4.761  -3.502   7.700  0.00  0.00     0.032 A 
ATOM      4  C   UNL d   1       4.652  -4.780   7.134  0.00  0.00     0.035 A 
ATOM      5  C   UNL d   1       4.779  -4.886   5.750  0.00  0.00     0.032 A 
ATOM      6  C   UNL d   1       4.983  -3.773   4.945  0.00  0.00     0.031 A 
ENDROOT
BRANCH   1   7
ATOM      7  N   UNL d   1       5.218  -1.365   4.670  0.00  0.00    -0.356 N 
ATOM      8  H   UNL d   1       6.147  -0.968   4.768  0.00  0.00     0.166 HD
BRANCH   7   9
ATOM      9  C   UNL d   1       4.602  -1.123   3.421  0.00  0.00     0.032 A 
ATOM     10  C   UNL d   1       5.036  -0.080   2.598  0.00  0.00     0.032 A 
ATOM     11  C   UNL d   1       4.262   0.323   1.498  0.00  0.00     0.039 A 
ATOM     12  C   UNL d   1       3.083  -0.350   1.168  0.00  0.00     0.068 A 
ATOM     13  C   UNL d   1       2.679  -1.428   1.942  0.00  0.00     0.039 A 
ATOM     14  C   UNL d   1       3.422  -1.791   3.062  0.00  0.00     0.032 A 
BRANCH  12  15
ATOM     15  O   UNL d   1       2.440   0.066   0.036  0.00  0.00    -0.356 OA
ATOM     16  C   UNL d   1       1.020  -0.063   0.050  0.00  0.00     0.210 C 
ENDBRANCH  12  15
ENDBRANCH   7   9
ENDBRANCH   1   7
BRANCH   4  17
ATOM     17  N   UNL d   1       4.394  -5.917   7.949  0.00  0.00    -0.322 N 
ATOM     18  C   UNL d   1       4.215  -7.217   7.464  0.00  0.00     0.274 C 
ATOM     19  O   UNL d   1       4.284  -7.567   6.280  0.00  0.00    -0.266 OA
ATOM     20  H   UNL d   1       4.335  -5.758   8.948  0.00  0.00     0.169 HD
BRANCH  18  21
ATOM     21  C   UNL d   1       3.875  -8.298   8.431  0.00  0.00     0.124 A 
ATOM     22  C   UNL d   1       2.922  -8.096   9.418  0.00  0.00     0.037 A 
ATOM     23  C   UNL d   1       2.523  -9.198  10.174  0.00  0.00     0.004 A 
ATOM     24  C   UNL d   1       3.075 -10.451   9.915  0.00  0.00     0.019 A 
ATOM     25  C   UNL d   1       4.014 -10.560   8.906  0.00  0.00     0.117 A 
ATOM     26  N   UNL d   1       4.430  -9.514   8.168  0.00  0.00    -0.256 NA
ENDBRANCH  18  21
ENDBRANCH   4  17
TORSDOF 5
