REMARK  5 active torsions:
REMARK  status: ('A' for Active; 'I' for Inactive)
REMARK    1  A    between atoms: C_5  and  C_6 
REMARK    2  A    between atoms: C_9  and  S_10 
REMARK    3  A    between atoms: S_10  and  C_11 
REMARK    4  A    between atoms: C_11  and  C_12 
REMARK       I    between atoms: C_12  and  N_14 
REMARK    5  A    between atoms: C_15  and  N_14 
ROOT
ATOM      1  C   UNL d   1     -10.499  -0.033  -6.374  0.00  0.00     0.229 C 
ATOM      2  O   UNL d   1     -11.455   0.622  -6.789  0.00  0.00    -0.273 OA
ATOM      3  N   UNL d   1      -9.368  -0.113  -7.181  0.00  0.00    -0.330 N 
ATOM      4  H   UNL d   1      -9.430   0.466  -8.011  0.00  0.00     0.165 HD
ENDROOT
BRANCH   1   5
ATOM      5  C   UNL d   1     -10.514  -0.813  -5.049  0.00  0.00     0.180 C 
BRANCH   5   6
ATOM      6  S   UNL d   1     -12.037  -0.818  -4.024  0.00  0.00    -0.112 SA
BRANCH   6   7
ATOM      7  C   UNL d   1     -11.571  -1.891  -2.562  0.00  0.00     0.267 C 
ATOM      8  N   UNL d   1     -12.602  -1.872  -1.528  0.00  0.00    -0.279 N 
ATOM      9  N   UNL d   1     -13.221  -3.114  -1.397  0.00  0.00    -0.158 NA
ATOM     10  H   UNL d   1     -13.160  -1.034  -1.437  0.00  0.00     0.185 HD
ATOM     11  C   UNL d   1     -12.488  -3.939  -2.120  0.00  0.00     0.157 C 
ATOM     12  N   UNL d   1     -11.533  -3.304  -2.886  0.00  0.00    -0.337 N 
ATOM     13  C   UNL d   1     -10.320  -3.937  -3.201  0.00  0.00     0.154 C 
BRANCH  11  14
ATOM     14  C   UNL d   1     -12.652  -5.425  -2.151  0.00  0.00     0.011 A 
ATOM     15  C   UNL d   1     -13.791  -5.964  -2.739  0.00  0.00     0.016 A 
ATOM     16  C   UNL d   1     -13.930  -7.354  -2.853  0.00  0.00     0.007 A 
ATOM     17  C   UNL d   1     -12.925  -8.222  -2.400  0.00  0.00    -0.062 A 
ATOM     18  C   UNL d   1     -13.081  -9.712  -2.501  0.00  0.00     0.048 C 
ATOM     19  C   UNL d   1     -11.767  -7.678  -1.836  0.00  0.00     0.007 A 
ATOM     20  C   UNL d   1     -11.635  -6.290  -1.708  0.00  0.00     0.016 A 
ENDBRANCH  11  14
ENDBRANCH   6   7
ENDBRANCH   5   6
ENDBRANCH   1   5
BRANCH   3  21
ATOM     21  C   UNL d   1      -8.029  -0.632  -6.918  0.00  0.00     0.264 C 
ATOM     22  O   UNL d   1      -7.307  -0.621  -8.186  0.00  0.00    -0.353 OA
ATOM     23  C   UNL d   1      -6.966  -1.988  -8.566  0.00  0.00     0.152 C 
ATOM     24  C   UNL d   1      -7.555  -2.835  -7.517  0.00  0.00    -0.017 C 
ATOM     25  C   UNL d   1      -5.453  -2.210  -8.565  0.00  0.00     0.044 C 
ATOM     26  C   UNL d   1      -8.042  -2.049  -6.578  0.00  0.00     0.066 C 
ATOM     27  C   UNL d   1      -7.460  -4.315  -7.435  0.00  0.00     0.105 C 
ATOM     28  C   UNL d   1      -8.169  -2.653  -5.272  0.00  0.00     0.266 C 
ATOM     29  O   UNL d   1      -8.055  -1.997  -4.265  0.00  0.00    -0.266 OA
ATOM     30  N   UNL d   1      -8.488  -4.001  -5.293  0.00  0.00    -0.287 N 
ATOM     31  N   UNL d   1      -8.145  -4.892  -6.285  0.00  0.00    -0.229 NA
ATOM     32  H   UNL d   1      -8.559  -4.427  -4.385  0.00  0.00     0.184 HD
ATOM     33  H   UNL d   1      -8.958  -5.451  -6.556  0.00  0.00     0.147 HD
ATOM     34  C   UNL d   1      -8.156  -4.911  -8.639  0.00  0.00     0.033 C 
ENDBRANCH   3  21
TORSDOF 5
