@<TRIPOS>MOLECULE
*****
 67 71 0 0 0
SMALL
GASTEIGER

@<TRIPOS>ATOM
      1 C           1.0645   -0.0357   -0.0846 C.3     1  UNL1        0.0788
      2 O           2.4791    0.0615   -0.2011 O.3     1  UNL1       -0.4951
      3 C           3.1110    0.8706    0.7001 C.ar    1  UNL1        0.1201
      4 C           4.3264    1.4088    0.2690 C.ar    1  UNL1       -0.0193
      5 C           5.1342    2.1201    1.1537 C.ar    1  UNL1       -0.0490
      6 C           4.6947    2.3603    2.4560 C.ar    1  UNL1        0.0028
      7 C           5.4919    3.1806    3.3436 C.ar    1  UNL1        0.1013
      8 N           5.9950    2.6733    4.4772 N.ar    1  UNL1       -0.1659
      9 N           6.6505    3.6936    5.0459 N.ar    1  UNL1       -0.2388
     10 C           7.2528    3.6080    6.2993 C.ar    1  UNL1        0.0654
     11 C           8.1883    2.6096    6.5597 C.ar    1  UNL1       -0.0363
     12 C           8.7037    2.4835    7.8464 C.ar    1  UNL1       -0.0598
     13 C           8.2499    3.3210    8.8569 C.ar    1  UNL1       -0.0616
     14 C           7.2524    4.2535    8.5854 C.ar    1  UNL1       -0.0598
     15 C           6.8287    4.4861    7.2881 C.ar    1  UNL1       -0.0363
     16 C           6.5208    4.8367    4.3277 C.ar    1  UNL1        0.0401
     17 C           5.8686    4.5441    3.1574 C.ar    1  UNL1        0.0427
     18 C           5.6561    5.4400    1.9922 C.3     1  UNL1       -0.0023
     19 N           6.4337    6.7717    2.0375 N.4     1  UNL1        0.2386
     20 C           5.9545    7.7390    3.1174 C.3     1  UNL1       -0.0309
     21 C           6.8298    8.9898    3.1484 C.3     1  UNL1       -0.0012
     22 C           8.2966    8.6267    3.3616 C.3     1  UNL1        0.0455
     23 C           8.5391    7.8027    4.6271 C.2     1  UNL1        0.2207
     24 O           9.0470    6.6775    4.4866 O.2     1  UNL1       -0.2752
     25 N           8.0508    8.2776    5.8227 N.am    1  UNL1       -0.2824
     26 C           8.3033    7.6451    7.0737 C.ar    1  UNL1        0.0753
     27 C           7.3575    7.7647    8.1046 C.ar    1  UNL1       -0.0369
     28 C           7.6342    7.2381    9.3744 C.ar    1  UNL1       -0.0598
     29 C           8.8150    6.5197    9.5953 C.ar    1  UNL1       -0.0582
     30 C           9.7165    6.3204    8.5548 C.ar    1  UNL1       -0.0183
     31 C           9.4829    6.9213    7.3250 C.ar    1  UNL1        0.1380
     32 O          10.4978    6.8769    6.4106 O.3     1  UNL1       -0.5049
     33 C           8.7287    7.8079    2.1225 C.3     1  UNL1       -0.0012
     34 C           7.9396    6.5051    1.9877 C.3     1  UNL1       -0.0309
     35 C           3.4713    1.8407    2.8871 C.ar    1  UNL1       -0.0490
     36 C           2.6843    1.0932    2.0095 C.ar    1  UNL1       -0.0193
     37 H           0.7292   -0.8500   -0.7336 H       1  UNL1        0.0660
     38 H           0.6113    0.8958   -0.4347 H       1  UNL1        0.0660
     39 H           0.7175   -0.2792    0.9230 H       1  UNL1        0.0660
     40 H           4.6558    1.2561   -0.7559 H       1  UNL1        0.0654
     41 H           6.1194    2.4468    0.8336 H       1  UNL1        0.0625
     42 H           8.5405    1.9616    5.7635 H       1  UNL1        0.0639
     43 H           9.4251    1.7071    8.0779 H       1  UNL1        0.0618
     44 H           8.6820    3.2720    9.8531 H       1  UNL1        0.0618
     45 H           6.8488    4.8532    9.3926 H       1  UNL1        0.0618
     46 H           6.1448    5.3051    7.0819 H       1  UNL1        0.0639
     47 H           7.0252    5.7095    4.6837 H       1  UNL1        0.0835
     48 H           4.5979    5.6872    1.8552 H       1  UNL1        0.0868
     49 H           5.9990    4.9463    1.0733 H       1  UNL1        0.0868
     50 H           6.2070    7.2247    1.1458 H       1  UNL1        0.2037
     51 H           5.9649    7.2642    4.0968 H       1  UNL1        0.0815
     52 H           4.9124    7.9944    2.9016 H       1  UNL1        0.0815
     53 H           6.4939    9.6795    3.9305 H       1  UNL1        0.0324
     54 H           6.7207    9.5267    2.1968 H       1  UNL1        0.0324
     55 H           8.9178    9.5275    3.4315 H       1  UNL1        0.0398
     56 H           7.5554    9.1598    5.8810 H       1  UNL1        0.1549
     57 H           6.3622    8.1677    7.9257 H       1  UNL1        0.0637
     58 H           6.8818    7.2651   10.1628 H       1  UNL1        0.0618
     59 H           8.9626    5.9832   10.5313 H       1  UNL1        0.0619
     60 H          10.5775    5.6741    8.6961 H       1  UNL1        0.0655
     61 H          10.9552    6.0244    6.4966 H       1  UNL1        0.2922
     62 H           9.8013    7.5817    2.1748 H       1  UNL1        0.0324
     63 H           8.5789    8.4006    1.2127 H       1  UNL1        0.0324
     64 H           8.1972    5.7765    2.7518 H       1  UNL1        0.0815
     65 H           8.1581    6.0020    1.0400 H       1  UNL1        0.0815
     66 H           3.1338    1.9862    3.9121 H       1  UNL1        0.0625
     67 H           1.7650    0.6674    2.3946 H       1  UNL1        0.0654
@<TRIPOS>UNITY_ATOM_ATTR
19 1
charge 1
@<TRIPOS>BOND
     1     1     2    1
     2     2     3    1
     3     3     4   ar
     4     4     5   ar
     5     5     6   ar
     6     6     7    1
     7     7     8   ar
     8     8     9   ar
     9     9    10    1
    10    10    11   ar
    11    11    12   ar
    12    12    13   ar
    13    13    14   ar
    14    14    15   ar
    15    10    15   ar
    16     9    16   ar
    17    16    17   ar
    18     7    17   ar
    19    17    18    1
    20    18    19    1
    21    19    20    1
    22    20    21    1
    23    21    22    1
    24    22    23    1
    25    23    24    2
    26    23    25   am
    27    25    26    1
    28    26    27   ar
    29    27    28   ar
    30    28    29   ar
    31    29    30   ar
    32    30    31   ar
    33    26    31   ar
    34    31    32    1
    35    22    33    1
    36    33    34    1
    37    19    34    1
    38     6    35   ar
    39    35    36   ar
    40     3    36   ar
    41     1    37    1
    42     1    38    1
    43     1    39    1
    44     4    40    1
    45     5    41    1
    46    11    42    1
    47    12    43    1
    48    13    44    1
    49    14    45    1
    50    15    46    1
    51    16    47    1
    52    18    48    1
    53    18    49    1
    54    19    50    1
    55    20    51    1
    56    20    52    1
    57    21    53    1
    58    21    54    1
    59    22    55    1
    60    25    56    1
    61    27    57    1
    62    28    58    1
    63    29    59    1
    64    30    60    1
    65    32    61    1
    66    33    62    1
    67    33    63    1
    68    34    64    1
    69    34    65    1
    70    35    66    1
    71    36    67    1
