@<TRIPOS>MOLECULE
*****
 49 49 0 0 0
SMALL
GASTEIGER

@<TRIPOS>ATOM
      1 C           1.0905    0.0516    0.0414 C.3     1  UNL1       -0.0652
      2 C           2.6147    0.0588    0.0672 C.3     1  UNL1       -0.0545
      3 C           3.1561    0.4460    1.4542 C.3     1  UNL1       -0.0376
      4 C           4.6928    0.4582    1.4978 C.3     1  UNL1        0.0131
      5 N           5.2591    0.8199    2.8044 N.am    1  UNL1       -0.2982
      6 C           6.6293    0.8763    3.0058 C.2     1  UNL1        0.3160
      7 O           7.4444    0.6276    2.1203 O.2     1  UNL1       -0.2513
      8 N           7.0207    1.2224    4.2920 N.am    1  UNL1       -0.2182
      9 N           8.4243    1.3137    4.6188 N.am    1  UNL1       -0.2329
     10 C           8.8007    1.6771    5.9119 C.2     1  UNL1        0.2349
     11 O           7.9449    1.8868    6.7758 O.2     1  UNL1       -0.2739
     12 C          10.3269    1.7486    6.2024 C.3     1  UNL1        0.0664
     13 C          10.5950    2.2448    7.6244 C.ar    1  UNL1        0.0397
     14 N          10.8675    1.3944    8.6806 N.ar    1  UNL1       -0.3544
     15 C          10.9321    2.0826    9.8826 C.ar    1  UNL1        0.0859
     16 C          11.1234    1.4961   11.2216 C.2     1  UNL1        0.1764
     17 C          11.2966    0.0062   11.3905 C.3     1  UNL1        0.0001
     18 O          11.1515    2.1743   12.2524 O.2     1  UNL1       -0.2908
     19 C          10.7604    3.4333    9.5584 C.ar    1  UNL1       -0.0081
     20 C          10.7362    4.5893   10.5077 C.3     1  UNL1       -0.0368
     21 C          10.5683    3.5453    8.1281 C.ar    1  UNL1        0.0835
     22 C          10.3313    4.7531    7.3133 C.2     1  UNL1        0.3409
     23 O          10.2003    4.7207    6.0897 O.2     1  UNL1       -0.2449
     24 O          10.2904    5.9094    8.0370 O.3     1  UNL1       -0.4644
     25 C          10.0664    7.0959    7.2705 C.3     1  UNL1        0.0820
     26 H           0.7212   -0.2257   -0.9521 H       1  UNL1        0.0230
     27 H           0.6902    1.0409    0.2851 H       1  UNL1        0.0230
     28 H           0.6902   -0.6684    0.7623 H       1  UNL1        0.0230
     29 H           2.9778    0.7629   -0.6912 H       1  UNL1        0.0263
     30 H           2.9778   -0.9362   -0.2168 H       1  UNL1        0.0263
     31 H           2.7688   -0.2605    2.1982 H       1  UNL1        0.0280
     32 H           2.7688    1.4358    1.7248 H       1  UNL1        0.0280
     33 H           5.0756    1.1685    0.7556 H       1  UNL1        0.0462
     34 H           5.0752   -0.5334    1.2285 H       1  UNL1        0.0462
     35 H           4.6286    1.0397    3.5613 H       1  UNL1        0.1503
     36 H           6.3778    1.4627    5.0410 H       1  UNL1        0.1744
     37 H           9.0711    1.1470    3.8500 H       1  UNL1        0.1728
     38 H          10.8090    2.4265    5.4873 H       1  UNL1        0.0422
     39 H          10.7809    0.7614    6.0546 H       1  UNL1        0.0422
     40 H          10.9569    0.3913    8.5904 H       1  UNL1        0.1657
     41 H          11.2636   -0.5446   10.4533 H       1  UNL1        0.0310
     42 H          10.5027   -0.3693   12.0459 H       1  UNL1        0.0310
     43 H          12.2620   -0.1817   11.8735 H       1  UNL1        0.0310
     44 H          10.8824    4.3120   11.5507 H       1  UNL1        0.0278
     45 H           9.7683    5.0981   10.4489 H       1  UNL1        0.0278
     46 H          11.5302    5.2973   10.2519 H       1  UNL1        0.0278
     47 H          10.0477    7.9480    7.9573 H       1  UNL1        0.0661
     48 H           9.1005    7.0505    6.7573 H       1  UNL1        0.0661
     49 H          10.8793    7.2535    6.5546 H       1  UNL1        0.0661
@<TRIPOS>BOND
     1     1     2    1
     2     2     3    1
     3     3     4    1
     4     4     5    1
     5     5     6   am
     6     6     7    2
     7     6     8   am
     8     8     9    1
     9     9    10   am
    10    10    11    2
    11    10    12    1
    12    12    13    1
    13    13    14   ar
    14    14    15   ar
    15    15    16    1
    16    16    17    1
    17    16    18    2
    18    15    19   ar
    19    19    20    1
    20    19    21   ar
    21    13    21   ar
    22    21    22    1
    23    22    23    2
    24    22    24    1
    25    24    25    1
    26     1    26    1
    27     1    27    1
    28     1    28    1
    29     2    29    1
    30     2    30    1
    31     3    31    1
    32     3    32    1
    33     4    33    1
    34     4    34    1
    35     5    35    1
    36     8    36    1
    37     9    37    1
    38    12    38    1
    39    12    39    1
    40    14    40    1
    41    17    41    1
    42    17    42    1
    43    17    43    1
    44    20    44    1
    45    20    45    1
    46    20    46    1
    47    25    47    1
    48    25    48    1
    49    25    49    1
