REMARK  4 active torsions:
REMARK  status: ('A' for Active; 'I' for Inactive)
REMARK       I    between atoms: C_2  and  N_3 
REMARK    1  A    between atoms: C_2  and  C_14 
REMARK    2  A    between atoms: N_3  and  N_4 
REMARK       I    between atoms: N_4  and  C_5 
REMARK    3  A    between atoms: C_5  and  C_7 
REMARK    4  A    between atoms: C_11  and  O_12 
ROOT
ATOM      1  N   UNL d   1       2.291  -0.281   2.405  0.00  0.00    -0.263 N 
ATOM      2  C   UNL d   1       3.021  -0.308   3.588  0.00  0.00     0.270 C 
ATOM      3  O   UNL d   1       4.251  -0.256   3.610  0.00  0.00    -0.266 OA
ATOM      4  H   UNL d   1       1.276  -0.207   2.367  0.00  0.00     0.190 HD
ENDROOT
BRANCH   1   5
ATOM      5  N   UNL d   1       2.978  -0.182   1.158  0.00  0.00    -0.263 N 
ATOM      6  C   UNL d   1       2.252  -0.021  -0.016  0.00  0.00     0.270 C 
ATOM      7  O   UNL d   1       1.022   0.042  -0.036  0.00  0.00    -0.266 OA
ATOM      8  H   UNL d   1       3.994  -0.119   1.211  0.00  0.00     0.190 HD
BRANCH   6   9
ATOM      9  C   UNL d   1       3.021   0.089  -1.300  0.00  0.00     0.033 A 
ATOM     10  C   UNL d   1       2.602   0.998  -2.291  0.00  0.00     0.020 A 
ATOM     11  C   UNL d   1       3.284   1.090  -3.515  0.00  0.00     0.043 A 
ATOM     12  C   UNL d   1       4.372   0.261  -3.757  0.00  0.00     0.116 A 
ATOM     13  F   UNL d   1       5.024   0.344  -4.925  0.00  0.00    -0.206 F 
ATOM     14  C   UNL d   1       4.785  -0.661  -2.801  0.00  0.00     0.043 A 
ATOM     15  C   UNL d   1       4.111  -0.751  -1.573  0.00  0.00     0.020 A 
ENDBRANCH   6   9
ENDBRANCH   1   5
BRANCH   2  16
ATOM     16  C   UNL d   1       2.254  -0.395   4.874  0.00  0.00     0.036 A 
ATOM     17  C   UNL d   1       1.162  -1.262   5.017  0.00  0.00     0.017 A 
ATOM     18  C   UNL d   1       0.483  -1.351   6.244  0.00  0.00     0.004 A 
ATOM     19  C   UNL d   1       0.888  -0.582   7.338  0.00  0.00     0.036 A 
ATOM     20  C   UNL d   1       1.987   0.259   7.202  0.00  0.00     0.066 A 
ATOM     21  C   UNL d   1       2.675   0.351   5.988  0.00  0.00     0.053 A 
BRANCH  20  22
ATOM     22  O   UNL d   1       2.432   1.020   8.245  0.00  0.00    -0.361 OA
ATOM     23  H   UNL d   1       1.887   0.850   9.032  0.00  0.00     0.217 HD
ENDBRANCH  20  22
ENDBRANCH   2  16
TORSDOF 4
