@<TRIPOS>MOLECULE
*****
 65 67 0 0 0
SMALL
GASTEIGER

@<TRIPOS>ATOM
      1 C           5.5239   -8.1805   -8.3195 C.3     1  UNL1       -0.0652
      2 C           5.4601   -6.7699   -7.7576 C.3     1  UNL1       -0.0545
      3 C           5.9587   -6.7298   -6.3104 C.3     1  UNL1       -0.0376
      4 C           5.8961   -5.3133   -5.7485 C.3     1  UNL1        0.0116
      5 N           6.2610   -5.2366   -4.3430 N.am    1  UNL1       -0.3135
      6 C           6.5865   -4.0072   -3.7816 C.2     1  UNL1        0.2383
      7 O           6.5241   -2.9836   -4.4532 O.2     1  UNL1       -0.2734
      8 C           6.9476   -3.9829   -2.2388 C.3     1  UNL1        0.1340
      9 C           6.1821   -2.8522   -1.4885 C.ar    1  UNL1        0.0648
     10 C           4.9366   -2.4000   -1.9732 C.ar    1  UNL1        0.1292
     11 O           4.1994   -3.0042   -2.9590 O.3     1  UNL1       -0.5062
     12 C           4.2545   -1.3282   -1.3985 C.ar    1  UNL1        0.0219
     13 C           4.7580   -0.7002   -0.2766 C.ar    1  UNL1        0.1238
     14 O           4.0706    0.2994    0.3382 O.3     1  UNL1       -0.5065
     15 C           5.9366   -1.1294    0.2900 C.ar    1  UNL1        0.0219
     16 C           6.6043   -2.2253   -0.2737 C.ar    1  UNL1        0.1292
     17 O           7.7007   -2.6471    0.4385 O.3     1  UNL1       -0.5062
     18 N           8.4282   -3.9081   -2.3237 N.am    1  UNL1       -0.2858
     19 C           9.0894   -2.7461   -1.7995 C.3     1  UNL1        0.0044
     20 C           9.0872   -5.0529   -2.7856 C.2     1  UNL1        0.2572
     21 O           8.3729   -6.0016   -3.1644 O.2     1  UNL1       -0.2716
     22 C          10.6929   -5.1426   -2.8607 C.3     1  UNL1        0.1924
     23 O          11.2124   -4.0949   -3.6891 O.3     1  UNL1       -0.3711
     24 C          11.3019   -5.1153   -1.4324 C.ar    1  UNL1       -0.0027
     25 C          11.4186   -6.2899   -0.6635 C.ar    1  UNL1       -0.0550
     26 C          11.6870   -6.2552    0.7028 C.ar    1  UNL1       -0.0614
     27 C          11.8735   -5.0385    1.3383 C.ar    1  UNL1       -0.0617
     28 C          11.8382   -3.8670    0.5957 C.ar    1  UNL1       -0.0614
     29 C          11.6336   -3.9162   -0.7852 C.ar    1  UNL1       -0.0550
     30 C          11.1187   -6.4301   -3.6024 C.ar    1  UNL1       -0.0027
     31 C          10.4873   -7.6642   -3.3378 C.ar    1  UNL1       -0.0550
     32 C          10.9547   -8.8514   -3.8736 C.ar    1  UNL1       -0.0614
     33 C          12.0286   -8.8214   -4.7496 C.ar    1  UNL1       -0.0617
     34 C          12.6629   -7.6158   -5.0474 C.ar    1  UNL1       -0.0614
     35 C          12.2228   -6.4299   -4.4680 C.ar    1  UNL1       -0.0550
     36 H           5.1603   -8.1991   -9.3516 H       1  UNL1        0.0230
     37 H           4.9052   -8.8626   -7.7277 H       1  UNL1        0.0230
     38 H           6.5522   -8.5555   -8.3131 H       1  UNL1        0.0230
     39 H           4.4260   -6.4085   -7.8077 H       1  UNL1        0.0263
     40 H           6.0650   -6.1038   -8.3847 H       1  UNL1        0.0263
     41 H           6.9918   -7.0973   -6.2678 H       1  UNL1        0.0280
     42 H           5.3553   -7.4054   -5.6931 H       1  UNL1        0.0280
     43 H           4.8739   -4.9251   -5.8219 H       1  UNL1        0.0462
     44 H           6.5448   -4.6498   -6.3318 H       1  UNL1        0.0462
     45 H           6.7921   -6.0172   -3.9493 H       1  UNL1        0.1487
     46 H           6.6532   -4.9359   -1.7796 H       1  UNL1        0.0650
     47 H           4.7360   -3.1903   -3.7485 H       1  UNL1        0.2922
     48 H           3.3145   -1.0241   -1.8437 H       1  UNL1        0.0691
     49 H           3.2111    0.3787   -0.1098 H       1  UNL1        0.2921
     50 H           6.3014   -0.6332    1.1855 H       1  UNL1        0.0691
     51 H           8.0323   -1.8997    0.9745 H       1  UNL1        0.2922
     52 H           8.4494   -1.8782   -1.7008 H       1  UNL1        0.0429
     53 H           9.8571   -2.3754   -2.4551 H       1  UNL1        0.0429
     54 H           9.4821   -3.0271   -0.8261 H       1  UNL1        0.0429
     55 H          11.0223   -3.2410   -3.3017 H       1  UNL1        0.2116
     56 H          11.3046   -7.2765   -1.0984 H       1  UNL1        0.0621
     57 H          11.7171   -7.1851    1.2635 H       1  UNL1        0.0618
     58 H          12.0620   -5.0061    2.4057 H       1  UNL1        0.0618
     59 H          11.9305   -2.9042    1.0906 H       1  UNL1        0.0618
     60 H          11.6339   -2.9692   -1.3143 H       1  UNL1        0.0621
     61 H           9.6452   -7.7279   -2.6501 H       1  UNL1        0.0621
     62 H          10.4846   -9.7846   -3.5805 H       1  UNL1        0.0618
     63 H          12.3766   -9.7453   -5.1956 H       1  UNL1        0.0618
     64 H          13.5179   -7.5965   -5.7149 H       1  UNL1        0.0618
     65 H          12.7547   -5.5049   -4.6862 H       1  UNL1        0.0621
@<TRIPOS>BOND
     1     1     2    1
     2     2     3    1
     3     3     4    1
     4     4     5    1
     5     5     6   am
     6     6     7    2
     7     9    10   ar
     8    10    11    1
     9    10    12   ar
    10    12    13   ar
    11    13    14    1
    12    13    15   ar
    13    15    16   ar
    14     9    16   ar
    15    16    17    1
    16     8    18    1
    17    18    19    1
    18    18    20   am
    19    20    21    2
    20    20    22    1
    21    22    23    1
    22    22    24    1
    23    24    25   ar
    24    25    26   ar
    25    26    27   ar
    26    27    28   ar
    27    28    29   ar
    28    24    29   ar
    29    22    30    1
    30    30    31   ar
    31    31    32   ar
    32    32    33   ar
    33    33    34   ar
    34    34    35   ar
    35    30    35   ar
    36     8     9    1
    37     8     6    1
    38     1    36    1
    39     1    37    1
    40     1    38    1
    41     2    39    1
    42     2    40    1
    43     3    41    1
    44     3    42    1
    45     4    43    1
    46     4    44    1
    47     5    45    1
    48     8    46    1
    49    11    47    1
    50    12    48    1
    51    14    49    1
    52    15    50    1
    53    17    51    1
    54    19    52    1
    55    19    53    1
    56    19    54    1
    57    23    55    1
    58    25    56    1
    59    26    57    1
    60    27    58    1
    61    28    59    1
    62    29    60    1
    63    31    61    1
    64    32    62    1
    65    33    63    1
    66    34    64    1
    67    35    65    1
