REMARK  11 active torsions:
REMARK  status: ('A' for Active; 'I' for Inactive)
REMARK    1  A    between atoms: O_2  and  C_3 
REMARK    2  A    between atoms: C_5  and  C_6 
REMARK    3  A    between atoms: C_6  and  N_7 
REMARK    4  A    between atoms: N_7  and  C_8 
REMARK    5  A    between atoms: C_8  and  C_9 
REMARK    6  A    between atoms: C_9  and  N_10 
REMARK    7  A    between atoms: N_10  and  C_11 
REMARK    8  A    between atoms: C_14  and  N_15 
REMARK    9  A    between atoms: C_24  and  O_25 
REMARK   10  A    between atoms: O_25  and  C_26 
REMARK   11  A    between atoms: C_26  and  C_27 
ROOT
ATOM      1  C   UNL d   1       3.229   4.381  -2.343  0.00  0.00     0.271 C 
ENDROOT
BRANCH   1   2
ATOM      2  C   UNL d   1       3.602   2.949  -2.094  0.00  0.00    -0.028 A 
ATOM      3  C   UNL d   1       2.812   2.138  -1.272  0.00  0.00     0.048 A 
ATOM      4  C   UNL d   1       3.191   0.812  -1.008  0.00  0.00     0.103 A 
ATOM      5  C   UNL d   1       4.376   0.268  -1.578  0.00  0.00     0.124 A 
ATOM      6  C   UNL d   1       5.143   1.085  -2.424  0.00  0.00     0.070 A 
ATOM      7  C   UNL d   1       4.755   2.399  -2.656  0.00  0.00     0.035 A 
ATOM      8 CL   UNL d   1       6.606   0.703  -3.278  0.00  0.00    -0.081 Cl
BRANCH   4   9
ATOM      9  O   UNL d   1       2.510   0.038  -0.095  0.00  0.00    -0.353 OA
ATOM     10  C   UNL d   1       1.084   0.098  -0.111  0.00  0.00     0.210 C 
ENDBRANCH   4   9
BRANCH   5  11
ATOM     11  O   UNL d   1       4.640  -1.032  -1.223  0.00  0.00    -0.342 OA
BRANCH  11  12
ATOM     12  C   UNL d   1       5.810  -1.634  -1.765  0.00  0.00     0.216 C 
BRANCH  12  13
ATOM     13  C   UNL d   1       5.935  -3.044  -1.304  0.00  0.00    -0.017 A 
ATOM     14  C   UNL d   1       6.240  -3.344   0.022  0.00  0.00     0.012 A 
ATOM     15  C   UNL d   1       6.304  -4.673   0.411  0.00  0.00     0.020 A 
ATOM     16  C   UNL d   1       6.075  -5.649  -0.547  0.00  0.00     0.116 A 
ATOM     17  N   UNL d   1       5.826  -5.390  -1.848  0.00  0.00    -0.272 NA
ATOM     18  C   UNL d   1       5.764  -4.093  -2.199  0.00  0.00     0.125 A 
ENDBRANCH  12  13
ENDBRANCH  11  12
ENDBRANCH   5  11
ENDBRANCH   1   2
BRANCH   1  19
ATOM     19  N   UNL d   1       4.211   5.082  -3.219  0.00  0.00    -0.070 N 
ATOM     20  H   UNL d   1       4.265   4.577  -4.116  0.00  0.00     0.277 HD
ATOM     21  H   UNL d   1       5.143   5.026  -2.783  0.00  0.00     0.277 HD
BRANCH  19  22
ATOM     22  C   UNL d   1       3.881   6.506  -3.484  0.00  0.00     0.252 C 
BRANCH  22  23
ATOM     23  C   UNL d   1       4.957   7.109  -4.385  0.00  0.00     0.147 C 
BRANCH  23  24
ATOM     24  N   UNL d   1       4.628   8.468  -4.769  0.00  0.00    -0.387 N 
ATOM     25  H   UNL d   1       3.932   9.006  -4.261  0.00  0.00     0.159 HD
BRANCH  24  26
ATOM     26  C   UNL d   1       5.479   9.175  -5.621  0.00  0.00     0.050 A 
ATOM     27  C   UNL d   1       5.921  10.457  -5.235  0.00  0.00     0.033 A 
ATOM     28  C   UNL d   1       6.847  11.174  -6.012  0.00  0.00     0.038 A 
ATOM     29  C   UNL d   1       7.349  10.601  -7.187  0.00  0.00     0.104 A 
ATOM     30  C   UNL d   1       6.915   9.344  -7.598  0.00  0.00     0.062 A 
ATOM     31  C   UNL d   1       5.982   8.649  -6.833  0.00  0.00     0.062 A 
ATOM     32 CL   UNL d   1       5.390   7.187  -7.553  0.00  0.00    -0.082 Cl
BRANCH  29  33
ATOM     33  N   UNL d   1       8.334  11.315  -8.007  0.00  0.00    -0.116 N 
ATOM     34  O   UNL d   1       8.707  12.424  -7.625  0.00  0.00    -0.532 OA
ATOM     35  O   UNL d   1       8.737  10.741  -9.035  0.00  0.00    -0.532 OA
ENDBRANCH  29  33
ENDBRANCH  24  26
ENDBRANCH  23  24
ENDBRANCH  22  23
ENDBRANCH  19  22
ENDBRANCH   1  19
TORSDOF 11
