REMARK  8 active torsions:
REMARK  status: ('A' for Active; 'I' for Inactive)
REMARK    1  A    between atoms: C_2  and  C_3 
REMARK    2  A    between atoms: C_3  and  N_4 
REMARK       I    between atoms: N_4  and  C_5 
REMARK       I    between atoms: C_5  and  N_7 
REMARK    3  A    between atoms: N_7  and  N_8 
REMARK       I    between atoms: N_8  and  C_9 
REMARK    4  A    between atoms: C_9  and  C_11 
REMARK    5  A    between atoms: C_11  and  C_12 
REMARK    6  A    between atoms: C_12  and  C_13 
REMARK    7  A    between atoms: C_13  and  C_14 
REMARK    8  A    between atoms: C_14  and  C_16 
ROOT
ATOM      1  N   UNL d   1       7.314   3.625  -1.369  0.00  0.00    -0.266 N 
ATOM      2  C   UNL d   1       8.701   3.550  -1.342  0.00  0.00     0.236 C 
ATOM      3  O   UNL d   1       9.280   2.534  -0.957  0.00  0.00    -0.272 OA
ATOM      4  H   UNL d   1       6.785   4.438  -1.678  0.00  0.00     0.190 HD
ENDROOT
BRANCH   2   5
ATOM      5  C   UNL d   1       9.459   4.807  -1.817  0.00  0.00     0.105 C 
BRANCH   5   6
ATOM      6  C   UNL d   1      10.990   4.620  -1.746  0.00  0.00     0.017 C 
BRANCH   6   7
ATOM      7  C   UNL d   1      11.801   5.844  -2.200  0.00  0.00     0.084 C 
BRANCH   7   8
ATOM      8  C   UNL d   1      13.307   5.590  -2.118  0.00  0.00     0.159 C 
ATOM      9  O   UNL d   1      13.796   4.514  -1.778  0.00  0.00    -0.292 OA
BRANCH   8  10
ATOM     10  C   UNL d   1      14.230   6.686  -2.517  0.00  0.00     0.010 A 
ATOM     11  C   UNL d   1      14.011   8.000  -2.088  0.00  0.00     0.018 A 
ATOM     12  C   UNL d   1      14.897   9.012  -2.465  0.00  0.00     0.043 A 
ATOM     13  C   UNL d   1      15.997   8.706  -3.260  0.00  0.00     0.116 A 
ATOM     14  F   UNL d   1      16.840   9.682  -3.619  0.00  0.00    -0.206 F 
ATOM     15  C   UNL d   1      16.234   7.403  -3.683  0.00  0.00     0.043 A 
ATOM     16  C   UNL d   1      15.352   6.385  -3.306  0.00  0.00     0.018 A 
ENDBRANCH   8  10
ENDBRANCH   7   8
ENDBRANCH   6   7
ENDBRANCH   5   6
ENDBRANCH   2   5
BRANCH   1  17
ATOM     17  N   UNL d   1       6.536   2.494  -0.942  0.00  0.00    -0.249 N 
ATOM     18  C   UNL d   1       5.152   2.562  -0.968  0.00  0.00     0.334 C 
ATOM     19  N   UNL d   1       4.501   1.420  -0.537  0.00  0.00    -0.342 N 
ATOM     20  O   UNL d   1       4.556   3.570  -1.349  0.00  0.00    -0.246 OA
ATOM     21  H   UNL d   1       5.037   0.620  -0.235  0.00  0.00     0.164 HD
ATOM     22  H   UNL d   1       7.064   1.682  -0.636  0.00  0.00     0.192 HD
BRANCH  19  23
ATOM     23  C   UNL d   1       3.036   1.343  -0.508  0.00  0.00     0.124 C 
BRANCH  23  24
ATOM     24  C   UNL d   1       2.478   0.005  -0.002  0.00  0.00     0.015 C 
ATOM     25  C   UNL d   1       0.948  -0.013   0.004  0.00  0.00     0.006 C 
ENDBRANCH  23  24
ENDBRANCH  19  23
ENDBRANCH   1  17
TORSDOF 8
