@<TRIPOS>MOLECULE
*****
 68 69 0 0 0
SMALL
GASTEIGER

@<TRIPOS>ATOM
      1 C           0.9470    0.0182    0.1017 C.3     1  UNL1       -0.0653
      2 C           2.4644    0.0194    0.0914 C.3     1  UNL1       -0.0559
      3 C           2.9916    0.1817   -1.3306 C.3     1  UNL1       -0.0532
      4 C           4.5153    0.1861   -1.3465 C.3     1  UNL1       -0.0500
      5 C           5.0472    0.3596   -2.7658 C.3     1  UNL1       -0.0186
      6 C           6.5728    0.3694   -2.7707 C.3     1  UNL1        0.0896
      7 O           7.0259    0.6121   -4.1030 O.3     1  UNL1       -0.4920
      8 C           8.3785    0.5227   -4.2919 C.ar    1  UNL1        0.1205
      9 C           8.9250    1.3922   -5.2283 C.ar    1  UNL1       -0.0192
     10 C          10.2759    1.2758   -5.5770 C.ar    1  UNL1       -0.0462
     11 C          11.1285    0.3383   -4.9446 C.ar    1  UNL1        0.0373
     12 C          12.5847    0.3764   -5.2950 C.2     1  UNL1        0.2495
     13 O          12.8707    1.2195   -6.1438 O.2     1  UNL1       -0.2698
     14 N          13.5242   -0.4900   -4.6732 N.am    1  UNL1       -0.2636
     15 C          14.9341   -0.3804   -4.7596 C.2     1  UNL1        0.1401
     16 S          15.6851    0.8093   -5.7018 S.2     1  UNL1       -0.0183
     17 N          15.6481   -1.2699   -3.8918 N.am    1  UNL1       -0.2988
     18 C          16.9590   -0.8722   -3.2925 C.3     1  UNL1        0.0301
     19 C          16.9752   -1.2911   -1.8428 C.3     1  UNL1        0.0274
     20 N          16.7586   -2.7254   -1.7434 N.am    1  UNL1       -0.3123
     21 C          15.9475   -3.4272   -2.6069 C.2     1  UNL1        0.2341
     22 O          15.6846   -4.6041   -2.3571 O.2     1  UNL1       -0.2738
     23 C          15.5423   -2.7562   -3.9694 C.3     1  UNL1        0.1113
     24 C          16.3893   -3.4594   -5.1056 C.3     1  UNL1        0.0720
     25 C          17.3898   -2.6055   -5.8552 C.2     1  UNL1        0.3096
     26 O          17.4437   -1.3852   -5.7836 O.2     1  UNL1       -0.2508
     27 O          18.2952   -3.2404   -6.6359 O.3     1  UNL1       -0.4616
     28 C          19.2287   -2.2679   -7.2078 C.3     1  UNL1        0.1000
     29 C          20.2168   -1.7816   -6.1302 C.3     1  UNL1       -0.0277
     30 C          19.9532   -2.9221   -8.3746 C.3     1  UNL1       -0.0188
     31 C          20.9674   -1.9908   -9.0245 C.3     1  UNL1       -0.0619
     32 C          10.5679   -0.5300   -4.0143 C.ar    1  UNL1       -0.0462
     33 C           9.2004   -0.4398   -3.6988 C.ar    1  UNL1       -0.0192
     34 H           0.5734   -0.0979    1.1229 H       1  UNL1        0.0230
     35 H           0.5563   -0.8057   -0.5038 H       1  UNL1        0.0230
     36 H           0.5563    0.9572   -0.3033 H       1  UNL1        0.0230
     37 H           2.8339   -0.9183    0.5231 H       1  UNL1        0.0263
     38 H           2.8336    0.8361    0.7229 H       1  UNL1        0.0263
     39 H           2.6155    1.1186   -1.7593 H       1  UNL1        0.0265
     40 H           2.6174   -0.6356   -1.9593 H       1  UNL1        0.0265
     41 H           4.8902   -0.7526   -0.9199 H       1  UNL1        0.0266
     42 H           4.8871    1.0001   -0.7123 H       1  UNL1        0.0266
     43 H           4.6660    1.2882   -3.2069 H       1  UNL1        0.0298
     44 H           4.6818   -0.4532   -3.4072 H       1  UNL1        0.0298
     45 H           6.9132   -0.5977   -2.3889 H       1  UNL1        0.0696
     46 H           6.9428    1.1708   -2.1212 H       1  UNL1        0.0696
     47 H           8.3102    2.1653   -5.6865 H       1  UNL1        0.0654
     48 H          10.6595    1.9324   -6.3604 H       1  UNL1        0.0626
     49 H          13.1904   -1.0939   -3.9415 H       1  UNL1        0.1568
     50 H          17.1910    0.1813   -3.4394 H       1  UNL1        0.0480
     51 H          17.7861   -1.4546   -3.7146 H       1  UNL1        0.0480
     52 H          16.1825   -0.7786   -1.2950 H       1  UNL1        0.0477
     53 H          17.9484   -1.0669   -1.3953 H       1  UNL1        0.0477
     54 H          17.0572   -3.2208   -0.9109 H       1  UNL1        0.1488
     55 H          14.4827   -3.0072   -4.1084 H       1  UNL1        0.0602
     56 H          16.9346   -4.3139   -4.6818 H       1  UNL1        0.0401
     57 H          15.6901   -3.8548   -5.8491 H       1  UNL1        0.0401
     58 H          18.6764   -1.4066   -7.6226 H       1  UNL1        0.0731
     59 H          20.7498   -2.6348   -5.7031 H       1  UNL1        0.0265
     60 H          19.7267   -1.2711   -5.2958 H       1  UNL1        0.0265
     61 H          20.9381   -1.0616   -6.5247 H       1  UNL1        0.0265
     62 H          19.2133   -3.2353   -9.1213 H       1  UNL1        0.0298
     63 H          20.4441   -3.8336   -8.0215 H       1  UNL1        0.0298
     64 H          20.4838   -1.0821   -9.3998 H       1  UNL1        0.0231
     65 H          21.4638   -2.4939   -9.8563 H       1  UNL1        0.0231
     66 H          21.7515   -1.6895   -8.3236 H       1  UNL1        0.0231
     67 H          11.1513   -1.3012   -3.5298 H       1  UNL1        0.0626
     68 H           8.7964   -1.1607   -2.9977 H       1  UNL1        0.0654
@<TRIPOS>BOND
     1     1     2    1
     2     2     3    1
     3     3     4    1
     4     4     5    1
     5     5     6    1
     6     6     7    1
     7     7     8    1
     8     8     9   ar
     9     9    10   ar
    10    10    11   ar
    11    11    12    1
    12    12    13    2
    13    12    14   am
    14    14    15    1
    15    15    16    2
    16    15    17    1
    17    17    18    1
    18    18    19    1
    19    19    20    1
    20    20    21   am
    21    21    22    2
    22    21    23    1
    23    17    23    1
    24    24    25    1
    25    25    26    2
    26    25    27    1
    27    27    28    1
    28    28    29    1
    29    28    30    1
    30    30    31    1
    31    11    32   ar
    32    32    33   ar
    33     8    33   ar
    34    23    24    1
    35     1    34    1
    36     1    35    1
    37     1    36    1
    38     2    37    1
    39     2    38    1
    40     3    39    1
    41     3    40    1
    42     4    41    1
    43     4    42    1
    44     5    43    1
    45     5    44    1
    46     6    45    1
    47     6    46    1
    48     9    47    1
    49    10    48    1
    50    14    49    1
    51    18    50    1
    52    18    51    1
    53    19    52    1
    54    19    53    1
    55    20    54    1
    56    23    55    1
    57    24    56    1
    58    24    57    1
    59    28    58    1
    60    29    59    1
    61    29    60    1
    62    29    61    1
    63    30    62    1
    64    30    63    1
    65    31    64    1
    66    31    65    1
    67    31    66    1
    68    32    67    1
    69    33    68    1
