@<TRIPOS>MOLECULE
*****
 48 51 0 0 0
SMALL
GASTEIGER

@<TRIPOS>ATOM
      1 C           2.4933   -0.0109   -0.0178 C.3     1  UNL1       -0.0397
      2 C           0.9992   -0.0252    0.0099 C.ar    1  UNL1       -0.0503
      3 C           0.2574   -1.2140    0.0112 C.ar    1  UNL1       -0.0571
      4 C          -1.1499   -1.1930    0.0143 C.ar    1  UNL1       -0.0402
      5 C          -1.8196    0.0306    0.0384 C.ar    1  UNL1        0.0337
      6 N          -3.2312    0.1181   -0.0867 N.am    1  UNL1       -0.2815
      7 C          -3.9750    1.3181   -0.1348 C.2     1  UNL1        0.2483
      8 O          -4.9878    1.4203    0.5597 O.2     1  UNL1       -0.2699
      9 C          -3.5298    2.4626   -1.1330 C.ar    1  UNL1        0.0371
     10 C          -4.0637    3.7403   -1.2266 C.ar    1  UNL1       -0.0479
     11 C          -3.4246    4.8238   -2.2483 C.ar    1  UNL1       -0.0398
     12 C          -2.1138    4.6323   -3.1691 C.ar    1  UNL1        0.0325
     13 N          -1.1791    5.5916   -4.3512 N.pl3   1  UNL1       -0.2975
     14 C           0.2603    6.1656   -5.2573 C.ar    1  UNL1        0.1532
     15 N          -0.8123    6.6901   -5.8446 N.ar    1  UNL1       -0.1332
     16 N          -0.9804    6.2218   -6.9428 N.ar    1  UNL1       -0.1521
     17 C          -0.1830    6.9128   -7.6863 C.ar    1  UNL1        0.0683
     18 C          -0.3026    8.4809   -7.4462 C.3     1  UNL1       -0.0200
     19 C           1.0442    6.2960   -7.7975 C.ar    1  UNL1        0.0082
     20 C           2.1254    5.1400   -7.9891 C.ar    1  UNL1       -0.0522
     21 C           3.4143    5.3417   -8.5504 C.ar    1  UNL1       -0.0611
     22 C           3.5439    6.6151   -8.9012 C.ar    1  UNL1       -0.0611
     23 C           2.6395    7.3633   -7.9202 C.ar    1  UNL1       -0.0506
     24 C           1.3983    6.8140   -6.6923 C.ar    1  UNL1        0.0257
     25 C          -1.7792    3.2998   -2.9757 C.ar    1  UNL1       -0.0398
     26 C          -2.4739    2.2998   -2.0639 C.ar    1  UNL1       -0.0479
     27 C          -1.0538    1.1917    0.1541 C.ar    1  UNL1       -0.0402
     28 C           0.3262    1.1834    0.0605 C.ar    1  UNL1       -0.0571
     29 H           2.8945   -1.0262   -0.0038 H       1  UNL1        0.0278
     30 H           2.8755    0.5224    0.8599 H       1  UNL1        0.0278
     31 H           2.8470    0.4933   -0.9230 H       1  UNL1        0.0278
     32 H           0.7800   -2.1674   -0.0001 H       1  UNL1        0.0621
     33 H          -1.6804   -2.1408   -0.0118 H       1  UNL1        0.0636
     34 H          -3.7597   -0.7406    0.0606 H       1  UNL1        0.1551
     35 H          -4.9339    3.9305   -0.5462 H       1  UNL1        0.0626
     36 H          -4.0960    5.6990   -2.1401 H       1  UNL1        0.0636
     37 H          -1.8788    6.3630   -4.4223 H       1  UNL1        0.1536
     38 H          -1.0410    8.6565   -6.6498 H       1  UNL1        0.0293
     39 H          -0.6875    8.8188   -8.3888 H       1  UNL1        0.0293
     40 H           0.5577    9.0969   -7.0937 H       1  UNL1        0.0293
     41 H           2.0242    4.3226   -7.2974 H       1  UNL1        0.0624
     42 H           4.2807    4.6857   -8.5811 H       1  UNL1        0.0618
     43 H           4.1937    6.8431   -9.7982 H       1  UNL1        0.0618
     44 H           2.4398    8.2214   -8.7872 H       1  UNL1        0.0625
     45 H          -0.9547    2.9043   -3.5245 H       1  UNL1        0.0636
     46 H          -2.0183    1.3119   -2.0824 H       1  UNL1        0.0626
     47 H          -1.5171    2.1665    0.2208 H       1  UNL1        0.0636
     48 H           0.8490    2.1349    0.0255 H       1  UNL1        0.0621
@<TRIPOS>BOND
     1     1     2    1
     2     2     3   ar
     3     3     4   ar
     4     4     5   ar
     5     5     6    1
     6     6     7   am
     7     7     8    2
     8     7     9    1
     9     9    10   ar
    10    10    11   ar
    11    11    12   ar
    12    12    13    1
    13    13    14    1
    14    14    15   ar
    15    15    16   ar
    16    16    17   ar
    17    17    18    1
    18    17    19   ar
    19    19    20   ar
    20    20    21   ar
    21    21    22   ar
    22    22    23   ar
    23    23    24   ar
    24    14    24   ar
    25    19    24   ar
    26    12    25   ar
    27    25    26   ar
    28     9    26   ar
    29     5    27   ar
    30    27    28   ar
    31     2    28   ar
    32     1    29    1
    33     1    30    1
    34     1    31    1
    35     3    32    1
    36     4    33    1
    37     6    34    1
    38    10    35    1
    39    11    36    1
    40    13    37    1
    41    18    38    1
    42    18    39    1
    43    18    40    1
    44    20    41    1
    45    21    42    1
    46    22    43    1
    47    23    44    1
    48    25    45    1
    49    26    46    1
    50    27    47    1
    51    28    48    1
