REMARK  5 active torsions:
REMARK  status: ('A' for Active; 'I' for Inactive)
REMARK       I    between atoms: C_2  and  N_3 
REMARK    1  A    between atoms: C_2  and  C_13 
REMARK    2  A    between atoms: N_3  and  N_4 
REMARK    3  A    between atoms: C_5  and  C_6 
REMARK    4  A    between atoms: C_16  and  O_17 
REMARK    5  A    between atoms: C_19  and  O_20 
ROOT
ATOM      1  O   UNL d   1       0.989   0.071   0.130  0.00  0.00    -0.266 OA
ATOM      2  C   UNL d   1       2.218   0.032   0.020  0.00  0.00     0.274 C 
ATOM      3  N   UNL d   1       2.908  -0.753  -0.906  0.00  0.00    -0.243 N 
ATOM      4  H   UNL d   1       3.923  -0.733  -0.932  0.00  0.00     0.192 HD
ENDROOT
BRANCH   2   5
ATOM      5  C   UNL d   1       3.031   0.831   0.994  0.00  0.00     0.067 A 
ATOM      6  C   UNL d   1       2.581   0.913   2.328  0.00  0.00     0.022 A 
ATOM      7  C   UNL d   1       3.313   1.610   3.302  0.00  0.00     0.037 A 
ATOM      8  C   UNL d   1       4.485   2.259   2.933  0.00  0.00     0.068 A 
ATOM      9  C   UNL d   1       4.915   2.244   1.608  0.00  0.00     0.074 A 
ATOM     10  C   UNL d   1       4.193   1.526   0.643  0.00  0.00     0.084 A 
BRANCH   8  11
ATOM     11  O   UNL d   1       5.257   2.922   3.842  0.00  0.00    -0.361 OA
ATOM     12  H   UNL d   1       4.873   2.825   4.730  0.00  0.00     0.217 HD
ENDBRANCH   8  11
BRANCH  10  13
ATOM     13  O   UNL d   1       4.632   1.513  -0.653  0.00  0.00    -0.360 OA
ATOM     14  H   UNL d   1       5.353   2.160  -0.746  0.00  0.00     0.217 HD
ENDBRANCH  10  13
ENDBRANCH   2   5
BRANCH   3  15
ATOM     15  N   UNL d   1       2.203  -1.525  -1.813  0.00  0.00    -0.183 NA
ATOM     16  C   UNL d   1       2.881  -2.313  -2.588  0.00  0.00     0.150 C 
BRANCH  16  17
ATOM     17  C   UNL d   1       2.218  -3.190  -3.596  0.00  0.00    -0.015 A 
ATOM     18  C   UNL d   1       1.100  -2.746  -4.312  0.00  0.00     0.013 A 
ATOM     19  C   UNL d   1       0.528  -3.558  -5.302  0.00  0.00     0.003 A 
ATOM     20  C   UNL d   1       1.050  -4.827  -5.558  0.00  0.00     0.024 A 
ATOM     21  C   UNL d   1       2.145  -5.277  -4.823  0.00  0.00     0.034 A 
ATOM     22 CL   UNL d   1       2.765  -6.858  -5.117  0.00  0.00    -0.084 Cl
ATOM     23  C   UNL d   1       2.744  -4.462  -3.855  0.00  0.00     0.036 A 
ENDBRANCH  16  17
ENDBRANCH   3  15
TORSDOF 5
