@<TRIPOS>MOLECULE
*****
 39 41 0 0 0
SMALL
GASTEIGER

@<TRIPOS>ATOM
      1 O           1.0378    0.2183   -0.0806 O.2     1  UNL1       -0.2697
      2 C           2.2670    0.1782    0.1173 C.2     1  UNL1        0.2526
      3 N           2.8597   -0.2402    1.2991 N.am    1  UNL1       -0.2663
      4 C           2.2039   -0.9240    2.3682 C.ar    1  UNL1        0.1251
      5 C           0.9724   -1.5343    2.1802 C.ar    1  UNL1       -0.0215
      6 C           0.4857   -2.4802    3.0991 C.ar    1  UNL1       -0.0571
      7 C           1.1237   -2.6464    4.2983 C.ar    1  UNL1       -0.0435
      8 C           2.2727   -1.9029    4.4800 C.ar    1  UNL1        0.0297
      9 N           2.8712   -1.1190    3.5255 N.ar    1  UNL1       -0.2401
     10 C           3.0862    0.6730   -1.0232 C.ar    1  UNL1        0.0770
     11 C           2.6765    1.9092   -1.5509 C.ar    1  UNL1       -0.0449
     12 C           3.2980    2.4479   -2.6690 C.ar    1  UNL1       -0.0427
     13 C           4.3045    1.7108   -3.2565 C.ar    1  UNL1        0.0297
     14 N           4.7050    0.4957   -2.8055 N.ar    1  UNL1       -0.2394
     15 C           4.0922   -0.0308   -1.7045 C.ar    1  UNL1        0.1351
     16 N           4.5873   -1.2793   -1.3162 N.pl3   1  UNL1       -0.2988
     17 C           3.9821   -2.2566   -0.5187 C.ar    1  UNL1        0.0329
     18 C           4.6921   -2.7824    0.5602 C.ar    1  UNL1       -0.0405
     19 C           4.0527   -3.6406    1.4536 C.ar    1  UNL1       -0.0595
     20 C           2.7022   -3.9976    1.2591 C.ar    1  UNL1       -0.0500
     21 C           1.9668   -3.5020    0.1610 C.ar    1  UNL1        0.0566
     22 C           0.4771   -3.7562   -0.0993 C.3     1  UNL1        0.4175
     23 F           0.1846   -5.0786   -0.1978 F       1  UNL1       -0.1659
     24 F          -0.4187   -3.2932    0.8146 F       1  UNL1       -0.1659
     25 F           0.0509   -3.1817   -1.2632 F       1  UNL1       -0.1659
     26 C           2.6447   -2.6388   -0.7177 C.ar    1  UNL1       -0.0289
     27 H           3.8713   -0.2463    1.3750 H       1  UNL1        0.1566
     28 H           0.4652   -1.4217    1.2335 H       1  UNL1        0.0652
     29 H          -0.3489   -3.1382    2.8642 H       1  UNL1        0.0619
     30 H           0.7165   -3.3249    5.0400 H       1  UNL1        0.0633
     31 H           2.7583   -1.9221    5.4495 H       1  UNL1        0.0830
     32 H           1.8501    2.4434   -1.0861 H       1  UNL1        0.0627
     33 H           2.9968    3.4120   -3.0650 H       1  UNL1        0.0633
     34 H           4.8306    2.0931   -4.1294 H       1  UNL1        0.0830
     35 H           5.2701   -1.6287   -1.9834 H       1  UNL1        0.1536
     36 H           5.6912   -2.4100    0.7874 H       1  UNL1        0.0636
     37 H           4.5849   -3.9562    2.3509 H       1  UNL1        0.0618
     38 H           2.2177   -4.5678    2.0504 H       1  UNL1        0.0623
     39 H           2.0702   -2.1422   -1.5005 H       1  UNL1        0.0642
@<TRIPOS>BOND
     1     1     2    2
     2     2     3   am
     3     3     4    1
     4     4     5   ar
     5     5     6   ar
     6     6     7   ar
     7     7     8   ar
     8     8     9   ar
     9     4     9   ar
    10     2    10    1
    11    10    11   ar
    12    11    12   ar
    13    12    13   ar
    14    13    14   ar
    15    14    15   ar
    16    10    15   ar
    17    15    16    1
    18    16    17    1
    19    17    18   ar
    20    18    19   ar
    21    19    20   ar
    22    20    21   ar
    23    21    22    1
    24    22    23    1
    25    22    24    1
    26    22    25    1
    27    21    26   ar
    28    17    26   ar
    29     3    27    1
    30     5    28    1
    31     6    29    1
    32     7    30    1
    33     8    31    1
    34    11    32    1
    35    12    33    1
    36    13    34    1
    37    16    35    1
    38    18    36    1
    39    19    37    1
    40    20    38    1
    41    26    39    1
