REMARK  4 active torsions:
REMARK  status: ('A' for Active; 'I' for Inactive)
REMARK    1  A    between atoms: C_4  and  N_5 
REMARK    2  A    between atoms: C_10  and  C_11 
REMARK    3  A    between atoms: C_15  and  C_14 
REMARK    4  A    between atoms: C_17  and  O_18 
ROOT
ATOM      1  C   UNL d   1       2.034   5.788   1.399  0.00  0.00     0.267 C 
ATOM      2  N   UNL d   1       3.472   5.712   1.794  0.00  0.00    -0.233 NA
ATOM      3  C   UNL d   1       4.075   6.843   1.854  0.00  0.00     0.173 C 
ATOM      4  C   UNL d   1       3.494   8.115   1.504  0.00  0.00     0.057 A 
ATOM      5  C   UNL d   1       2.319   8.094   0.793  0.00  0.00     0.087 A 
ATOM      6  S   UNL d   1       1.759   9.663   0.431  0.00  0.00    -0.074 SA
ATOM      7  C   UNL d   1       3.083  10.387   1.240  0.00  0.00     0.018 A 
ATOM      8  C   UNL d   1       3.935   9.438   1.786  0.00  0.00    -0.024 A 
ATOM      9  C   UNL d   1       5.184   9.813   2.529  0.00  0.00     0.068 C 
ATOM     10  C   UNL d   1       5.165  11.295   2.920  0.00  0.00     0.239 C 
ATOM     11  N   UNL d   1       4.770  12.152   1.718  0.00  0.00    -0.070 N 
ATOM     12  C   UNL d   1       5.704  11.972   0.545  0.00  0.00     0.270 C 
ATOM     13  C   UNL d   1       3.310  11.870   1.326  0.00  0.00     0.281 C 
ATOM     14  N   UNL d   1       1.740   6.911   0.481  0.00  0.00    -0.355 N 
ATOM     15  H   UNL d   1       4.832  13.137   2.007  0.00  0.00     0.279 HD
ATOM     16  H   UNL d   1       0.876   6.836  -0.045  0.00  0.00     0.162 HD
ENDROOT
BRANCH   1  17
ATOM     17  C   UNL d   1       1.224   5.853   2.691  0.00  0.00     0.098 A 
ATOM     18  C   UNL d   1       1.206   6.852   3.645  0.00  0.00     0.040 A 
ATOM     19  C   UNL d   1       0.327   6.456   4.652  0.00  0.00     0.041 A 
ATOM     20  C   UNL d   1      -0.197   5.240   4.271  0.00  0.00     0.086 A 
ATOM     21  O   UNL d   1       0.361   4.839   3.074  0.00  0.00    -0.310 OA
BRANCH  20  22
ATOM     22  C   UNL d   1      -1.234   4.441   4.927  0.00  0.00     0.004 A 
ATOM     23  C   UNL d   1      -0.933   3.173   5.448  0.00  0.00     0.017 A 
ATOM     24  C   UNL d   1      -1.866   2.475   6.231  0.00  0.00     0.037 A 
ATOM     25  C   UNL d   1      -3.119   3.039   6.492  0.00  0.00     0.103 A 
ATOM     26  C   UNL d   1      -3.437   4.309   5.995  0.00  0.00     0.043 A 
ATOM     27  C   UNL d   1      -2.498   5.019   5.220  0.00  0.00    -0.047 A 
ATOM     28  C   UNL d   1      -2.862   6.402   4.740  0.00  0.00     0.049 C 
BRANCH  25  29
ATOM     29  N   UNL d   1      -4.114   2.304   7.289  0.00  0.00    -0.116 N 
ATOM     30  O   UNL d   1      -5.209   2.838   7.485  0.00  0.00    -0.532 OA
ATOM     31  O   UNL d   1      -3.789   1.182   7.717  0.00  0.00    -0.532 OA
ENDBRANCH  25  29
ENDBRANCH  20  22
ENDBRANCH   1  17
BRANCH   3  32
ATOM     32  O   UNL d   1       5.349   6.896   2.287  0.00  0.00    -0.344 OA
ATOM     33  H   UNL d   1       5.627   5.988   2.495  0.00  0.00     0.219 HD
ENDBRANCH   3  32
TORSDOF 4
