REMARK  7 active torsions:
REMARK  status: ('A' for Active; 'I' for Inactive)
REMARK    1  A    between atoms: C_3  and  C_4 
REMARK       I    between atoms: C_4  and  N_6 
REMARK    2  A    between atoms: N_6  and  N_7 
REMARK    3  A    between atoms: N_13  and  C_14 
REMARK    4  A    between atoms: C_14  and  C_15 
REMARK    5  A    between atoms: N_24  and  C_25 
REMARK    6  A    between atoms: C_25  and  C_26 
REMARK       I    between atoms: C_26  and  N_28 
REMARK    7  A    between atoms: N_28  and  C_29 
ROOT
ATOM      1  C   UNL d   1       1.155  -0.071   0.017  0.00  0.00     0.051 C 
ATOM      2  C   UNL d   1       2.676  -0.148   0.005  0.00  0.00    -0.021 A 
ATOM      3  C   UNL d   1       3.437  -1.354   0.009  0.00  0.00     0.083 A 
ATOM      4  S   UNL d   1       5.110  -1.003  -0.033  0.00  0.00    -0.065 SA
ATOM      5  C   UNL d   1       4.893   0.643  -0.061  0.00  0.00     0.098 A 
ATOM      6  C   UNL d   1       3.587   1.061  -0.023  0.00  0.00     0.074 A 
ATOM      7  C   UNL d   1       3.383   2.546  -0.032  0.00  0.00     0.265 C 
ATOM      8  O   UNL d   1       2.266   3.055   0.011  0.00  0.00    -0.267 OA
ATOM      9  N   UNL d   1       4.583   3.311  -0.034  0.00  0.00    -0.261 N 
ATOM     10  C   UNL d   1       5.778   2.733   0.376  0.00  0.00     0.333 C 
ATOM     11  O   UNL d   1       6.574   3.320   1.120  0.00  0.00    -0.246 OA
ATOM     12  N   UNL d   1       6.031   1.436  -0.034  0.00  0.00    -0.283 N 
ENDROOT
BRANCH  12  13
ATOM     13  C   UNL d   1       7.421   0.885   0.041  0.00  0.00     0.237 C 
BRANCH  13  14
ATOM     14  C   UNL d   1       8.603   1.870  -0.086  0.00  0.00     0.240 C 
ATOM     15  O   UNL d   1       8.447   3.013  -0.504  0.00  0.00    -0.271 OA
ATOM     16  N   UNL d   1       9.892   1.400   0.158  0.00  0.00    -0.326 N 
ATOM     17  H   UNL d   1      10.110   0.467  -0.172  0.00  0.00     0.169 HD
BRANCH  16  18
ATOM     18  C   UNL d   1      10.932   2.376   0.110  0.00  0.00     0.034 A 
ATOM     19  C   UNL d   1      12.000   2.254  -0.778  0.00  0.00     0.029 A 
ATOM     20  C   UNL d   1      12.961   3.274  -0.852  0.00  0.00     0.002 A 
ATOM     21  C   UNL d   1      12.870   4.402  -0.032  0.00  0.00     0.000 A 
ATOM     22  C   UNL d   1      11.800   4.534   0.844  0.00  0.00     0.002 A 
ATOM     23  C   UNL d   1      10.834   3.530   0.907  0.00  0.00     0.029 A 
ENDBRANCH  16  18
ENDBRANCH  13  14
ENDBRANCH  12  13
BRANCH   9  24
ATOM     24  C   UNL d   1       4.541   4.808  -0.029  0.00  0.00     0.177 C 
BRANCH  24  25
ATOM     25  C   UNL d   1       5.893   5.557  -0.112  0.00  0.00    -0.018 A 
ATOM     26  C   UNL d   1       6.334   6.336   0.987  0.00  0.00     0.010 A 
ATOM     27  C   UNL d   1       7.643   6.844   1.051  0.00  0.00     0.001 A 
ATOM     28  C   UNL d   1       8.546   6.577   0.028  0.00  0.00     0.002 A 
ATOM     29  C   UNL d   1       8.128   5.837  -1.077  0.00  0.00     0.024 A 
ATOM     30  C   UNL d   1       6.808   5.357  -1.165  0.00  0.00     0.042 A 
ATOM     31 CL   UNL d   1       6.401   4.397  -2.549  0.00  0.00    -0.084 Cl
ENDBRANCH  24  25
ENDBRANCH   9  24
BRANCH   3  32
ATOM     32  C   UNL d   1       3.133  -2.817   0.028  0.00  0.00     0.273 C 
ATOM     33  O   UNL d   1       1.999  -3.296   0.018  0.00  0.00    -0.266 OA
ATOM     34  N   UNL d   1       4.271  -3.681   0.069  0.00  0.00    -0.289 N 
ATOM     35  H   UNL d   1       5.203  -3.273  -0.007  0.00  0.00     0.183 HD
BRANCH  34  36
ATOM     36  N   UNL d   1       4.174  -5.093  -0.030  0.00  0.00    -0.247 NA
ATOM     37  H   UNL d   1       3.178  -5.340  -0.008  0.00  0.00     0.143 HD
ATOM     38  H   UNL d   1       4.575  -5.519   0.811  0.00  0.00     0.143 HD
ENDBRANCH  34  36
ENDBRANCH   3  32
TORSDOF 7
