@<TRIPOS>MOLECULE
*****
 50 52 0 0 0
SMALL
GASTEIGER

@<TRIPOS>ATOM
      1 C           1.0189   -0.0849    0.0721 C.3     1  UNL1       -0.0613
      2 C           2.5350   -0.1202    0.0640 C.3     1  UNL1       -0.0305
      3 C           3.0789   -0.0350   -1.3353 C.ar    1  UNL1       -0.0459
      4 C           3.4419   -1.1539   -2.0749 C.ar    1  UNL1       -0.0585
      5 C           4.0468   -0.9813   -3.3218 C.ar    1  UNL1       -0.0598
      6 C           4.2186    0.3068   -3.8682 C.ar    1  UNL1       -0.0405
      7 C           3.8165    1.4397   -3.1497 C.ar    1  UNL1        0.0341
      8 N           4.0230    2.7502   -3.6592 N.am    1  UNL1       -0.2777
      9 C           3.7001    3.9256   -2.9829 C.2     1  UNL1        0.3031
     10 O           3.1754    4.0498   -1.8801 O.2     1  UNL1       -0.2648
     11 C           4.0315    5.2481   -3.7067 C.2     1  UNL1        0.2996
     12 O           4.5844    5.2528   -4.7972 O.2     1  UNL1       -0.2652
     13 N           3.6301    6.3525   -2.9869 N.am    1  UNL1       -0.3035
     14 C           3.8307    7.7266   -3.4154 C.3     1  UNL1        0.0373
     15 C           3.4255    8.8090   -2.4315 C.ar    1  UNL1       -0.0286
     16 C           3.5176   10.1662   -2.7418 C.ar    1  UNL1       -0.0570
     17 C           3.3831   11.1297   -1.7283 C.ar    1  UNL1       -0.0597
     18 C           3.0851   10.7538   -0.4035 C.ar    1  UNL1       -0.0404
     19 C           2.9349    9.4038   -0.0869 C.ar    1  UNL1        0.0341
     20 N           2.6869    8.9540    1.2406 N.am    1  UNL1       -0.2790
     21 C           2.6492    7.6095    1.6451 C.2     1  UNL1        0.2835
     22 O           2.8464    6.6374    0.9088 O.2     1  UNL1       -0.2665
     23 C           2.3400    7.3683    3.0296 C.ar    1  UNL1        0.1893
     24 C           1.4440    7.9581    3.8967 C.ar    1  UNL1       -0.0113
     25 C           1.4615    7.1823    5.0816 C.ar    1  UNL1       -0.0231
     26 C           2.3795    6.1799    4.8785 C.ar    1  UNL1        0.0928
     27 O           2.9125    6.2801    3.6372 O.2     1  UNL1       -0.4583
     28 C           3.0808    8.4840   -1.1214 C.ar    1  UNL1       -0.0358
     29 C           3.2396    1.2349   -1.8972 C.ar    1  UNL1       -0.0373
     30 H           0.6471   -0.1323    1.0994 H       1  UNL1        0.0233
     31 H           0.6082   -0.9302   -0.4881 H       1  UNL1        0.0233
     32 H           0.6397    0.8372   -0.3834 H       1  UNL1        0.0233
     33 H           2.9092   -1.0219    0.5592 H       1  UNL1        0.0311
     34 H           2.9238    0.7261    0.6481 H       1  UNL1        0.0311
     35 H           3.2686   -2.1518   -1.6788 H       1  UNL1        0.0620
     36 H           4.4039   -1.8587   -3.8577 H       1  UNL1        0.0618
     37 H           4.6708    0.3880   -4.8529 H       1  UNL1        0.0636
     38 H           4.4718    2.8574   -4.5639 H       1  UNL1        0.1553
     39 H           3.2211    6.1132   -2.0836 H       1  UNL1        0.1495
     40 H           3.2986    7.8537   -4.3612 H       1  UNL1        0.0512
     41 H           4.9059    7.8373   -3.5957 H       1  UNL1        0.0512
     42 H           3.7229   10.4834   -3.7625 H       1  UNL1        0.0621
     43 H           3.5521   12.1782   -1.9713 H       1  UNL1        0.0618
     44 H           2.9874   11.5336    0.3472 H       1  UNL1        0.0636
     45 H           2.6254    9.6611    1.9625 H       1  UNL1        0.1552
     46 H           0.8014    8.7911    3.6579 H       1  UNL1        0.0657
     47 H           0.8567    7.3171    5.9654 H       1  UNL1        0.0649
     48 H           2.7314    5.3475    5.4739 H       1  UNL1        0.1029
     49 H           2.9459    7.4460   -0.9055 H       1  UNL1        0.0639
     50 H           2.8979    2.0613   -1.2879 H       1  UNL1        0.0639
@<TRIPOS>BOND
     1     1     2    1
     2     2     3    1
     3     3     4   ar
     4     4     5   ar
     5     5     6   ar
     6     6     7   ar
     7     7     8    1
     8     8     9   am
     9     9    10    2
    10     9    11    1
    11    11    12    2
    12    11    13   am
    13    13    14    1
    14    14    15    1
    15    15    16   ar
    16    16    17   ar
    17    17    18   ar
    18    18    19   ar
    19    19    20    1
    20    20    21   am
    21    21    22    2
    22    21    23    1
    23    23    24   ar
    24    24    25   ar
    25    25    26   ar
    26    26    27   ar
    27    23    27   ar
    28    19    28   ar
    29    15    28   ar
    30     7    29   ar
    31     3    29   ar
    32     1    30    1
    33     1    31    1
    34     1    32    1
    35     2    33    1
    36     2    34    1
    37     4    35    1
    38     5    36    1
    39     6    37    1
    40     8    38    1
    41    13    39    1
    42    14    40    1
    43    14    41    1
    44    16    42    1
    45    17    43    1
    46    18    44    1
    47    20    45    1
    48    24    46    1
    49    25    47    1
    50    26    48    1
    51    28    49    1
    52    29    50    1
