@<TRIPOS>MOLECULE
*****
 58 60 0 0 0
SMALL
GASTEIGER

@<TRIPOS>ATOM
      1 C           1.1386    0.1570    0.4096 C.3     1  UNL1       -0.0108
      2 C           2.6147   -0.0173    0.1181 C.3     1  UNL1        0.0878
      3 N           2.9738   -0.4484   -1.3061 N.pl3   1  UNL1       -0.3883
      4 C           2.1182   -1.3494   -2.2017 C.3     1  UNL1        0.0878
      5 C           0.6182   -1.2207   -2.0263 C.3     1  UNL1       -0.0108
      6 C           4.4392   -0.8276   -1.4449 C.ar    1  UNL1        0.1446
      7 C           5.0727   -0.6521   -2.6853 C.ar    1  UNL1        0.0053
      8 C           6.4455   -0.9578   -2.8741 C.ar    1  UNL1       -0.0345
      9 C           7.2431   -1.3623   -1.7980 C.ar    1  UNL1        0.0338
     10 N           8.6620   -1.5300   -1.9549 N.am    1  UNL1       -0.2848
     11 C           9.5362   -1.8231   -0.8932 C.2     1  UNL1        0.2275
     12 O           9.1369   -1.9789    0.2529 O.2     1  UNL1       -0.2746
     13 C          11.0485   -1.9320   -1.2109 C.3     1  UNL1        0.0780
     14 S          11.8919   -2.4304    0.3449 S.3     1  UNL1       -0.0750
     15 C          13.5729   -2.4788   -0.0518 C.ar    1  UNL1        0.2105
     16 N          14.2335   -3.6390   -0.1054 N.ar    1  UNL1       -0.1443
     17 N          15.5020   -3.2102   -0.2169 N.ar    1  UNL1       -0.2446
     18 C          15.5736   -1.8411   -0.2341 C.ar    1  UNL1        0.2317
     19 N          16.7622   -1.1971   -0.3490 N.pl3   1  UNL1       -0.2052
     20 N          16.8374    0.1675   -0.3875 N.2     1  UNL1       -0.1844
     21 C          17.9817    0.7763   -0.5289 C.2     1  UNL1        0.0634
     22 C          17.9664    2.2969   -0.5026 C.3     1  UNL1       -0.0203
     23 C          19.3035    0.1240   -0.7455 C.ar    1  UNL1        0.0003
     24 C          19.4119   -0.9159   -1.6696 C.ar    1  UNL1       -0.0347
     25 C          20.6241   -1.5667   -1.7808 C.ar    1  UNL1        0.0282
     26 N          21.7165   -1.2249   -1.0703 N.ar    1  UNL1       -0.2632
     27 C          21.6016   -0.1796   -0.2220 C.ar    1  UNL1        0.0282
     28 C          20.4262    0.5244   -0.0233 C.ar    1  UNL1       -0.0347
     29 N          14.3513   -1.3637   -0.1385 N.ar    1  UNL1       -0.1865
     30 C           6.5836   -1.5506   -0.5770 C.ar    1  UNL1       -0.0345
     31 C           5.2123   -1.3042   -0.3945 C.ar    1  UNL1        0.0053
     32 H           0.9636    0.6591    1.3643 H       1  UNL1        0.0289
     33 H           0.6549   -0.8164    0.5185 H       1  UNL1        0.0289
     34 H           0.6502    0.7752   -0.3441 H       1  UNL1        0.0289
     35 H           3.0254   -0.7086    0.8552 H       1  UNL1        0.0965
     36 H           3.0946    0.9621    0.2362 H       1  UNL1        0.0965
     37 H           2.9457    0.4518   -1.7976 H       1  UNL1        0.3743
     38 H           2.4445   -2.3910   -2.1166 H       1  UNL1        0.0965
     39 H           2.3279   -1.0003   -3.2213 H       1  UNL1        0.0965
     40 H           0.2881   -1.7486   -1.1302 H       1  UNL1        0.0289
     41 H           0.0598   -1.6796   -2.8463 H       1  UNL1        0.0289
     42 H           0.3090   -0.1736   -2.0209 H       1  UNL1        0.0289
     43 H           4.5188   -0.2578   -3.5334 H       1  UNL1        0.0682
     44 H           6.8613   -0.8518   -3.8748 H       1  UNL1        0.0638
     45 H           9.0573   -1.3483   -2.8710 H       1  UNL1        0.1548
     46 H          11.4222   -0.9639   -1.5577 H       1  UNL1        0.0475
     47 H          11.2106   -2.6980   -1.9741 H       1  UNL1        0.0475
     48 H          16.2471   -3.8919   -0.2888 H       1  UNL1        0.1919
     49 H          17.6226   -1.7347   -0.2929 H       1  UNL1        0.1774
     50 H          16.9458    2.6694   -0.3654 H       1  UNL1        0.0293
     51 H          18.3497    2.6889   -1.4497 H       1  UNL1        0.0293
     52 H          18.5760    2.6836    0.3185 H       1  UNL1        0.0293
     53 H          18.5689   -1.2247   -2.2781 H       1  UNL1        0.0639
     54 H          20.7492   -2.4087   -2.4556 H       1  UNL1        0.0830
     55 H          22.5096    0.0748    0.3191 H       1  UNL1        0.0830
     56 H          20.4025    1.3371    0.6934 H       1  UNL1        0.0639
     57 H           7.1048   -1.8929    0.3107 H       1  UNL1        0.0638
     58 H           4.8451   -1.4786    0.6112 H       1  UNL1        0.0682
@<TRIPOS>UNITY_ATOM_ATTR
3 1
charge 1
@<TRIPOS>BOND
     1     1     2    1
     2     2     3    1
     3     3     4    1
     4     4     5    1
     5     3     6    1
     6     6     7   ar
     7     7     8   ar
     8     8     9   ar
     9     9    10    1
    10    10    11   am
    11    11    12    2
    12    11    13    1
    13    13    14    1
    14    14    15    1
    15    15    16   ar
    16    16    17   ar
    17    17    18   ar
    18    18    19    1
    19    19    20    1
    20    20    21    2
    21    21    22    1
    22    21    23    1
    23    23    24   ar
    24    24    25   ar
    25    25    26   ar
    26    26    27   ar
    27    27    28   ar
    28    23    28   ar
    29    18    29   ar
    30    15    29   ar
    31     9    30   ar
    32    30    31   ar
    33     6    31   ar
    34     1    32    1
    35     1    33    1
    36     1    34    1
    37     2    35    1
    38     2    36    1
    39     3    37    1
    40     4    38    1
    41     4    39    1
    42     5    40    1
    43     5    41    1
    44     5    42    1
    45     7    43    1
    46     8    44    1
    47    10    45    1
    48    13    46    1
    49    13    47    1
    50    17    48    1
    51    19    49    1
    52    22    50    1
    53    22    51    1
    54    22    52    1
    55    24    53    1
    56    25    54    1
    57    27    55    1
    58    28    56    1
    59    30    57    1
    60    31    58    1
