REMARK  6 active torsions:
REMARK  status: ('A' for Active; 'I' for Inactive)
REMARK    1  A    between atoms: C_5  and  C_6 
REMARK    2  A    between atoms: C_6  and  N_7 
REMARK       I    between atoms: N_7  and  C_8 
REMARK    3  A    between atoms: C_8  and  C_10 
REMARK    4  A    between atoms: N_23  and  C_24 
REMARK    5  A    between atoms: C_24  and  C_25 
REMARK    6  A    between atoms: C_32  and  N_33 
ROOT
ATOM      1  C   UNL d   1      -5.856   2.990  -0.211  0.00  0.00     0.076 A 
ATOM      2  C   UNL d   1      -5.227   3.985  -0.958  0.00  0.00     0.042 A 
ATOM      3  C   UNL d   1      -5.737   5.283  -0.907  0.00  0.00     0.080 A 
ATOM      4  C   UNL d   1      -5.149   6.366  -1.707  0.00  0.00     0.267 A 
ATOM      5  O   UNL d   1      -4.195   6.085  -2.434  0.00  0.00    -0.267 OA
ATOM      6  N   UNL d   1      -5.729   7.625  -1.587  0.00  0.00    -0.273 N 
ATOM      7  C   UNL d   1      -5.231   8.666  -2.367  0.00  0.00     0.102 A 
ATOM      8  C   UNL d   1      -5.742   9.901  -2.311  0.00  0.00     0.018 A 
ATOM      9  C   UNL d   1      -6.831  10.185  -1.416  0.00  0.00     0.005 A 
ATOM     10  C   UNL d   1      -7.342   9.222  -0.638  0.00  0.00     0.051 A 
ATOM     11  C   UNL d   1      -6.791   7.836  -0.711  0.00  0.00     0.139 A 
ATOM     12  N   UNL d   1      -7.318   6.899   0.021  0.00  0.00    -0.212 NA
ATOM     13  C   UNL d   1      -6.812   5.598  -0.085  0.00  0.00     0.149 A 
ATOM     14  N   UNL d   1      -7.386   4.626   0.684  0.00  0.00    -0.312 N 
ATOM     15  C   UNL d   1      -6.981   3.312   0.603  0.00  0.00     0.118 A 
ENDROOT
BRANCH   1  16
ATOM     16  C   UNL d   1      -5.321   1.594  -0.168  0.00  0.00     0.255 C 
ATOM     17  N   UNL d   1      -3.958   1.426  -0.139  0.00  0.00    -0.353 N 
ATOM     18  H   UNL d   1      -3.361   2.231  -0.054  0.00  0.00     0.163 HD
ATOM     19  O   UNL d   1      -6.112   0.662  -0.078  0.00  0.00    -0.268 OA
BRANCH  17  20
ATOM     20  C   UNL d   1      -3.347   0.094  -0.057  0.00  0.00     0.161 C 
BRANCH  20  21
ATOM     21  C   UNL d   1      -1.831   0.077  -0.016  0.00  0.00    -0.041 A 
ATOM     22  C   UNL d   1      -1.145  -1.154  -0.002  0.00  0.00     0.009 A 
ATOM     23  C   UNL d   1       0.259  -1.201   0.006  0.00  0.00     0.007 A 
ATOM     24  C   UNL d   1       1.005  -0.020   0.004  0.00  0.00    -0.062 A 
ATOM     25  C   UNL d   1       2.503  -0.021  -0.013  0.00  0.00     0.048 C 
ATOM     26  C   UNL d   1       0.334   1.200   0.008  0.00  0.00     0.007 A 
ATOM     27  C   UNL d   1      -1.058   1.246   0.003  0.00  0.00     0.009 A 
ENDBRANCH  20  21
ENDBRANCH  17  20
ENDBRANCH   1  16
BRANCH  15  28
ATOM     28  N   UNL d   1      -7.565   2.349   1.416  0.00  0.00    -0.384 N 
ATOM     29  H   UNL d   1      -8.240   2.505   2.148  0.00  0.00     0.157 HD
ATOM     30  H   UNL d   1      -7.104   1.433   1.450  0.00  0.00     0.157 HD
ENDBRANCH  15  28
BRANCH  14  31
ATOM     31  C   UNL d   1      -8.378   5.023   1.721  0.00  0.00     0.172 C 
BRANCH  31  32
ATOM     32  C   UNL d   1      -7.909   4.813   3.159  0.00  0.00    -0.018 C 
ATOM     33  C   UNL d   1      -8.890   4.918   4.173  0.00  0.00     0.010 C 
ATOM     34  C   UNL d   1      -8.572   4.670   5.514  0.00  0.00     0.001 C 
ATOM     35  C   UNL d   1      -7.296   4.246   5.865  0.00  0.00     0.002 C 
ATOM     36  C   UNL d   1      -6.324   4.124   4.889  0.00  0.00     0.024 C 
ATOM     37  C   UNL d   1      -6.596   4.487   3.573  0.00  0.00     0.042 C 
ATOM     38 CL   UNL d   1      -5.161   4.572   2.610  0.00  0.00    -0.084 Cl
ENDBRANCH  31  32
ENDBRANCH  14  31
TORSDOF 6
