REMARK  6 active torsions:
REMARK  status: ('A' for Active; 'I' for Inactive)
REMARK    1  A    between atoms: O_2  and  C_3 
REMARK       I    between atoms: C_3  and  N_5 
REMARK    2  A    between atoms: N_5  and  C_6 
REMARK    3  A    between atoms: C_8  and  N_9 
REMARK       I    between atoms: N_9  and  C_10 
REMARK    4  A    between atoms: C_10  and  C_12 
REMARK       I    between atoms: C_12  and  N_14 
REMARK    5  A    between atoms: N_14  and  C_15 
REMARK    6  A    between atoms: C_15  and  C_16 
ROOT
ATOM      1  N   UNL d   1       7.919   4.229   1.980  0.00  0.00    -0.319 N 
ATOM      2  C   UNL d   1       8.572   5.153   2.818  0.00  0.00     0.313 C 
ATOM      3  O   UNL d   1       8.402   5.331   4.022  0.00  0.00    -0.262 OA
ATOM      4  H   UNL d   1       8.190   4.244   0.999  0.00  0.00     0.169 HD
ENDROOT
BRANCH   1   5
ATOM      5  C   UNL d   1       6.903   3.303   2.400  0.00  0.00     0.037 A 
ATOM      6  C   UNL d   1       6.264   2.410   1.495  0.00  0.00     0.062 A 
ATOM      7  C   UNL d   1       5.194   1.580   1.932  0.00  0.00     0.077 A 
ATOM      8  C   UNL d   1       4.860   1.570   3.293  0.00  0.00     0.143 A 
ATOM      9  C   UNL d   1       5.499   2.404   4.188  0.00  0.00     0.047 A 
ATOM     10  F   UNL d   1       3.962   0.701   3.779  0.00  0.00    -0.204 F 
ATOM     11  C   UNL d   1       6.487   3.273   3.737  0.00  0.00     0.032 A 
BRANCH   7  12
ATOM     12  N   UNL d   1       4.431   0.784   1.028  0.00  0.00    -0.300 N 
ATOM     13  C   UNL d   1       3.043   0.769   1.074  0.00  0.00     0.364 C 
ATOM     14  O   UNL d   1       2.347   1.444   1.832  0.00  0.00    -0.238 OA
ATOM     15  H   UNL d   1       4.861   0.385   0.206  0.00  0.00     0.171 HD
BRANCH  13  16
ATOM     16  O   UNL d   1       2.506  -0.024   0.100  0.00  0.00    -0.309 OA
ATOM     17  C   UNL d   1       1.063  -0.018   0.084  0.00  0.00     0.215 C 
ENDBRANCH  13  16
ENDBRANCH   7  12
ENDBRANCH   1   5
BRANCH   2  18
ATOM     18  C   UNL d   1       9.650   6.059   2.171  0.00  0.00     0.309 C 
ATOM     19  O   UNL d   1       9.896   5.975   0.977  0.00  0.00    -0.262 OA
ATOM     20  N   UNL d   1      10.271   6.921   3.071  0.00  0.00    -0.349 N 
ATOM     21  H   UNL d   1       9.933   6.913   4.031  0.00  0.00     0.163 HD
BRANCH  20  22
ATOM     22  C   UNL d   1      11.294   7.867   2.671  0.00  0.00     0.163 C 
BRANCH  22  23
ATOM     23  C   UNL d   1      11.729   8.789   3.792  0.00  0.00    -0.019 A 
ATOM     24  C   UNL d   1      12.415   8.270   4.910  0.00  0.00     0.010 A 
ATOM     25  C   UNL d   1      12.781   9.094   5.984  0.00  0.00     0.001 A 
ATOM     26  C   UNL d   1      12.492  10.455   5.951  0.00  0.00     0.002 A 
ATOM     27  C   UNL d   1      11.852  10.995   4.839  0.00  0.00     0.024 A 
ATOM     28  C   UNL d   1      11.475  10.173   3.769  0.00  0.00     0.042 A 
ATOM     29 CL   UNL d   1      10.684  10.948   2.441  0.00  0.00    -0.084 Cl
ENDBRANCH  22  23
ENDBRANCH  20  22
ENDBRANCH   2  18
TORSDOF 6
