@<TRIPOS>MOLECULE
*****
 31 32 0 0 0
SMALL
GASTEIGER

@<TRIPOS>ATOM
      1 C           1.0269   -0.1067   -0.0747 C.3     1  UNL1       -0.0650
      2 C           2.5308    0.0364    0.0559 C.3     1  UNL1       -0.0527
      3 C           3.0284    1.1758    0.9803 C.3     1  UNL1       -0.0365
      4 C           2.2972    1.2755    2.3436 C.3     1  UNL1       -0.0459
      5 C           0.8650    1.8360    2.2716 C.3     1  UNL1       -0.0266
      6 C           0.7690    2.9864    1.3182 C.ar    1  UNL1       -0.0364
      7 C          -0.3547    3.8477    1.1652 C.ar    1  UNL1       -0.0390
      8 C          -0.1544    4.8550    0.2360 C.ar    1  UNL1        0.0756
      9 C          -1.1078    5.9167   -0.0759 C.2     1  UNL1        0.2640
     10 O          -2.2130    5.9953    0.4776 O.2     1  UNL1       -0.2683
     11 N          -0.7410    6.8636   -1.0343 N.am    1  UNL1       -0.2491
     12 N          -1.5858    7.9809   -1.2932 N.3     1  UNL1       -0.2541
     13 S           1.3797    4.6852   -0.5135 S.2     1  UNL1       -0.0883
     14 C           1.7631    3.2985    0.4122 C.ar    1  UNL1       -0.0060
     15 C           3.0572    2.5495    0.2542 C.3     1  UNL1       -0.0183
     16 H           0.7505   -0.8425   -0.8312 H       1  UNL1        0.0230
     17 H           0.5578    0.8390   -0.3560 H       1  UNL1        0.0230
     18 H           0.6096   -0.4755    0.8654 H       1  UNL1        0.0230
     19 H           2.9591    0.1663   -0.9455 H       1  UNL1        0.0265
     20 H           2.9241   -0.9174    0.4301 H       1  UNL1        0.0265
     21 H           4.0777    0.9219    1.1998 H       1  UNL1        0.0304
     22 H           2.8800    1.9559    2.9805 H       1  UNL1        0.0271
     23 H           2.3010    0.3038    2.8516 H       1  UNL1        0.0271
     24 H           0.5364    2.1335    3.2726 H       1  UNL1        0.0314
     25 H           0.1436    1.0725    1.9723 H       1  UNL1        0.0314
     26 H          -1.2755    3.7516    1.7298 H       1  UNL1        0.0633
     27 H           0.1997    6.8497   -1.4215 H       1  UNL1        0.1690
     28 H          -2.4402    7.8479   -0.7299 H       1  UNL1        0.1405
     29 H          -1.9105    7.9268   -2.2614 H       1  UNL1        0.1405
     30 H           3.8632    3.1544    0.6907 H       1  UNL1        0.0321
     31 H           3.3060    2.4086   -0.8045 H       1  UNL1        0.0321
@<TRIPOS>BOND
     1     1     2    1
     2     2     3    1
     3     3     4    1
     4     4     5    1
     5     5     6    1
     6     6     7   ar
     7     7     8   ar
     8     8     9    1
     9     9    10    2
    10     9    11   am
    11    11    12    1
    12     8    13   ar
    13    13    14   ar
    14     6    14   ar
    15    14    15    1
    16     3    15    1
    17     1    16    1
    18     1    17    1
    19     1    18    1
    20     2    19    1
    21     2    20    1
    22     3    21    1
    23     4    22    1
    24     4    23    1
    25     5    24    1
    26     5    25    1
    27     7    26    1
    28    11    27    1
    29    12    28    1
    30    12    29    1
    31    15    30    1
    32    15    31    1
