REMARK  10 active torsions:
REMARK  status: ('A' for Active; 'I' for Inactive)
REMARK    1  A    between atoms: C_2  and  C_4 
REMARK    2  A    between atoms: C_9  and  N_10 
REMARK    3  A    between atoms: N_10  and  N_11 
REMARK       I    between atoms: N_11  and  C_12 
REMARK    4  A    between atoms: C_12  and  C_14 
REMARK    5  A    between atoms: C_14  and  C_15 
REMARK    6  A    between atoms: C_15  and  C_16 
REMARK    7  A    between atoms: C_16  and  N_17 
REMARK       I    between atoms: N_17  and  C_18 
REMARK    8  A    between atoms: C_18  and  O_20 
REMARK    9  A    between atoms: O_20  and  C_21 
REMARK   10  A    between atoms: C_21  and  C_22 
ROOT
ATOM      1  C   UNL d   1       3.137  -1.751  -0.023  0.00  0.00     0.152 A 
ATOM      2  N   UNL d   1       4.378  -2.223  -0.157  0.00  0.00    -0.213 NA
ATOM      3  C   UNL d   1       4.221  -3.614  -0.147  0.00  0.00     0.191 A 
ATOM      4  C   UNL d   1       5.259  -4.598  -0.248  0.00  0.00     0.124 C 
ATOM      5  N   UNL d   1       5.985  -5.512  -0.317  0.00  0.00    -0.190 NA
ATOM      6  C   UNL d   1       2.888  -3.939  -0.020  0.00  0.00     0.204 A 
ATOM      7  O   UNL d   1       2.191  -2.759   0.056  0.00  0.00    -0.274 OA
ENDROOT
BRANCH   6   8
ATOM      8  N   UNL d   1       2.219  -5.118   0.039  0.00  0.00    -0.275 N 
ATOM      9  H   UNL d   1       2.708  -6.023  -0.014  0.00  0.00     0.189 HD
BRANCH   8  10
ATOM     10  N   UNL d   1       0.825  -5.240   0.170  0.00  0.00    -0.268 N 
ATOM     11  C   UNL d   1       0.279  -6.518   0.215  0.00  0.00     0.236 C 
ATOM     12  O   UNL d   1       0.976  -7.530   0.142  0.00  0.00    -0.272 OA
ATOM     13  H   UNL d   1       0.299  -4.375   0.226  0.00  0.00     0.190 HD
BRANCH  11  14
ATOM     14  C   UNL d   1      -1.247  -6.572   0.361  0.00  0.00     0.106 C 
BRANCH  14  15
ATOM     15  C   UNL d   1      -1.777  -8.025   0.404  0.00  0.00     0.029 C 
BRANCH  15  16
ATOM     16  C   UNL d   1      -3.304  -8.114   0.549  0.00  0.00     0.125 C 
BRANCH  16  17
ATOM     17  N   UNL d   1      -3.829  -9.479   0.591  0.00  0.00    -0.337 N 
ATOM     18  C   UNL d   1      -5.182  -9.727   0.719  0.00  0.00     0.360 C 
ATOM     19  O   UNL d   1      -6.028  -8.847   0.804  0.00  0.00    -0.239 OA
ATOM     20  H   UNL d   1      -3.206 -10.274   0.532  0.00  0.00     0.164 HD
BRANCH  18  21
ATOM     21  O   UNL d   1      -5.466 -11.063   0.736  0.00  0.00    -0.299 OA
BRANCH  21  22
ATOM     22  C   UNL d   1      -6.880 -11.385   0.864  0.00  0.00     0.219 C 
BRANCH  22  23
ATOM     23  C   UNL d   1      -7.101 -12.890   0.900  0.00  0.00    -0.034 A 
ATOM     24  C   UNL d   1      -8.063 -13.470   1.747  0.00  0.00     0.009 A 
ATOM     25  C   UNL d   1      -8.157 -14.863   1.870  0.00  0.00     0.001 A 
ATOM     26  C   UNL d   1      -7.388 -15.690   1.056  0.00  0.00     0.000 A 
ATOM     27  C   UNL d   1      -6.488 -15.126   0.155  0.00  0.00     0.001 A 
ATOM     28  C   UNL d   1      -6.348 -13.737   0.077  0.00  0.00     0.009 A 
ENDBRANCH  22  23
ENDBRANCH  21  22
ENDBRANCH  18  21
ENDBRANCH  16  17
ENDBRANCH  15  16
ENDBRANCH  14  15
ENDBRANCH  11  14
ENDBRANCH   8  10
ENDBRANCH   6   8
BRANCH   1  29
ATOM     29  C   UNL d   1       2.604  -0.300   0.020  0.00  0.00     0.055 C 
ATOM     30  C   UNL d   1       1.063  -0.202  -0.007  0.00  0.00     0.018 C 
ATOM     31  C   UNL d   1       3.068   0.481   1.258  0.00  0.00     0.018 C 
ENDBRANCH   1  29
TORSDOF 10
