REMARK  5 active torsions:
REMARK  status: ('A' for Active; 'I' for Inactive)
REMARK    1  A    between atoms: C_2  and  C_4 
REMARK       I    between atoms: C_4  and  N_6 
REMARK    2  A    between atoms: N_6  and  C_7 
REMARK       I    between atoms: N_19  and  C_20 
REMARK    3  A    between atoms: C_20  and  C_22 
REMARK    4  A    between atoms: N_26  and  C_27 
REMARK    5  A    between atoms: C_27  and  C_28 
ROOT
ATOM      1  C   UNL d   1       5.046  -0.540   3.148  0.00  0.00     0.734 C 
ATOM      2  N   UNL d   1       4.468  -1.501   3.869  0.00  0.00    -0.019 NA
ATOM      3  C   UNL d   1       4.944  -1.880   5.086  0.00  0.00     0.314 C 
ATOM      4  O   UNL d   1       4.441  -2.968   5.508  0.00  0.00    -0.263 OA
ATOM      5  C   UNL d   1       5.976  -1.148   5.685  0.00  0.00     0.155 C 
ATOM      6  C   UNL d   1       6.559  -0.150   4.832  0.00  0.00     0.176 C 
ATOM      7  N   UNL d   1       6.155   0.115   3.551  0.00  0.00    -0.043 NA
ATOM      8  N   UNL d   1       7.625   0.641   5.303  0.00  0.00    -0.366 N 
ATOM      9  C   UNL d   1       7.826   0.688   6.736  0.00  0.00     0.102 C 
ATOM     10  C   UNL d   1       6.727   1.501   7.444  0.00  0.00     0.034 C 
ATOM     11  C   UNL d   1       7.891  -0.783   7.229  0.00  0.00     0.112 C 
ATOM     12  C   UNL d   1       8.587  -0.806   8.584  0.00  0.00     0.035 C 
ATOM     13  N   UNL d   1       6.522  -1.403   7.077  0.00  0.00    -0.299 N 
ATOM     14  C   UNL d   1       5.747  -2.057   8.070  0.00  0.00     0.260 C 
ATOM     15  O   UNL d   1       4.526  -2.247   8.138  0.00  0.00    -0.267 OA
ATOM     16  H   UNL d   1       7.981   1.350   4.679  0.00  0.00     0.161 HD
ENDROOT
BRANCH  14  17
ATOM     17  C   UNL d   1       6.306  -2.416   9.381  0.00  0.00     0.048 C 
ATOM     18  C   UNL d   1       6.566  -3.712   9.789  0.00  0.00     0.020 C 
ATOM     19  C   UNL d   1       7.122  -3.919  11.053  0.00  0.00     0.018 C 
ATOM     20  C   UNL d   1       7.429  -2.827  11.869  0.00  0.00     0.090 C 
ATOM     21  N   UNL d   1       7.104  -1.569  11.480  0.00  0.00    -0.361 N 
ATOM     22  C   UNL d   1       6.444  -1.397  10.304  0.00  0.00     0.107 C 
BRANCH  21  23
ATOM     23  C   UNL d   1       7.555  -0.422  12.345  0.00  0.00     0.166 C 
BRANCH  23  24
ATOM     24  C   UNL d   1       7.233   0.957  11.822  0.00  0.00    -0.040 A 
ATOM     25  C   UNL d   1       8.230   1.919  11.592  0.00  0.00     0.009 A 
ATOM     26  C   UNL d   1       7.883   3.170  11.070  0.00  0.00     0.001 A 
ATOM     27  C   UNL d   1       6.558   3.451  10.737  0.00  0.00     0.000 A 
ATOM     28  C   UNL d   1       5.567   2.501  10.952  0.00  0.00     0.001 A 
ATOM     29  C   UNL d   1       5.896   1.290  11.547  0.00  0.00     0.009 A 
ENDBRANCH  23  24
ENDBRANCH  21  23
ENDBRANCH  14  17
BRANCH   1  30
ATOM     30  N   UNL d   1       4.515  -0.284   1.855  0.00  0.00    -0.155 N 
ATOM     31  C   UNL d   1       3.148  -0.295   1.603  0.00  0.00     0.239 C 
ATOM     32  O   UNL d   1       2.280  -0.417   2.468  0.00  0.00    -0.272 OA
ATOM     33  H   UNL d   1       5.179   0.032   1.171  0.00  0.00     0.187 HD
BRANCH  31  34
ATOM     34  C   UNL d   1       2.688  -0.049   0.138  0.00  0.00     0.070 C 
ATOM     35  C   UNL d   1       1.143  -0.062   0.057  0.00  0.00     0.019 C 
ATOM     36  C   UNL d   1       3.163   1.294  -0.412  0.00  0.00     0.019 C 
ENDBRANCH  31  34
ENDBRANCH   1  30
TORSDOF 5
