REMARK  8 active torsions:
REMARK  status: ('A' for Active; 'I' for Inactive)
REMARK    1  A    between atoms: C_6  and  N_7 
REMARK       I    between atoms: N_7  and  C_8 
REMARK    2  A    between atoms: C_8  and  C_10 
REMARK       I    between atoms: C_10  and  N_12 
REMARK    3  A    between atoms: N_12  and  C_13 
REMARK    4  A    between atoms: C_13  and  C_14 
REMARK    5  A    between atoms: C_18  and  C_19 
REMARK    6  A    between atoms: C_19  and  N_20 
REMARK       I    between atoms: N_20  and  C_21 
REMARK    7  A    between atoms: C_21  and  C_23 
REMARK       I    between atoms: C_23  and  N_25 
REMARK    8  A    between atoms: N_25  and  C_26 
ROOT
ATOM      1  C   UNL d   1      -4.532  -7.723  -0.093  0.00  0.00    -0.040 A 
ATOM      2  C   UNL d   1      -5.664  -6.905  -0.020  0.00  0.00     0.009 A 
ATOM      3  C   UNL d   1      -6.932  -7.461   0.148  0.00  0.00     0.001 A 
ATOM      4  C   UNL d   1      -7.100  -8.847   0.149  0.00  0.00     0.009 A 
ATOM      5  C   UNL d   1      -5.992  -9.705   0.035  0.00  0.00    -0.040 A 
ATOM      6  C   UNL d   1      -4.723  -9.115  -0.090  0.00  0.00     0.017 A 
ENDROOT
BRANCH   1   7
ATOM      7  C   UNL d   1      -3.103  -7.222  -0.097  0.00  0.00     0.161 C 
BRANCH   7   8
ATOM      8  N   UNL d   1      -2.956  -5.794  -0.077  0.00  0.00    -0.349 N 
ATOM      9  C   UNL d   1      -1.748  -5.142  -0.048  0.00  0.00     0.309 C 
ATOM     10  O   UNL d   1      -0.636  -5.654  -0.035  0.00  0.00    -0.262 OA
ATOM     11  H   UNL d   1      -3.766  -5.183  -0.051  0.00  0.00     0.163 HD
BRANCH   9  12
ATOM     12  C   UNL d   1      -1.930  -3.610  -0.035  0.00  0.00     0.314 C 
ATOM     13  N   UNL d   1      -0.758  -2.866  -0.025  0.00  0.00    -0.318 N 
ATOM     14  H   UNL d   1       0.093  -3.417  -0.022  0.00  0.00     0.169 HD
ATOM     15  O   UNL d   1      -3.094  -3.219  -0.036  0.00  0.00    -0.262 OA
BRANCH  13  16
ATOM     16  C   UNL d   1      -0.671  -1.443  -0.015  0.00  0.00     0.041 A 
ATOM     17  C   UNL d   1      -1.845  -0.672  -0.016  0.00  0.00     0.030 A 
ATOM     18  C   UNL d   1      -1.827   0.717   0.016  0.00  0.00     0.003 A 
ATOM     19  C   UNL d   1      -0.620   1.387   0.022  0.00  0.00     0.007 A 
ATOM     20  C   UNL d   1       0.585   0.670   0.003  0.00  0.00    -0.054 A 
ATOM     21  C   UNL d   1       1.863   1.471  -0.015  0.00  0.00     0.049 C 
ATOM     22  C   UNL d   1       0.573  -0.761  -0.000  0.00  0.00    -0.029 A 
ATOM     23  C   UNL d   1       1.903  -1.475   0.022  0.00  0.00     0.051 C 
ENDBRANCH  13  16
ENDBRANCH   9  12
ENDBRANCH   7   8
ENDBRANCH   1   7
BRANCH   5  24
ATOM     24  C   UNL d   1      -6.207 -11.206   0.106  0.00  0.00     0.161 C 
BRANCH  24  25
ATOM     25  N   UNL d   1      -5.002 -12.011   0.035  0.00  0.00    -0.349 N 
ATOM     26  C   UNL d   1      -4.984 -13.386   0.106  0.00  0.00     0.309 C 
ATOM     27  O   UNL d   1      -5.960 -14.114   0.212  0.00  0.00    -0.262 OA
ATOM     28  H   UNL d   1      -4.087 -11.586  -0.051  0.00  0.00     0.163 HD
BRANCH  26  29
ATOM     29  C   UNL d   1      -3.547 -13.978   0.035  0.00  0.00     0.314 C 
ATOM     30  O   UNL d   1      -2.612 -13.192  -0.086  0.00  0.00    -0.262 OA
ATOM     31  N   UNL d   1      -3.483 -15.367   0.052  0.00  0.00    -0.318 N 
ATOM     32  H   UNL d   1      -4.363 -15.860  -0.062  0.00  0.00     0.169 HD
BRANCH  31  33
ATOM     33  C   UNL d   1      -2.265 -16.087  -0.046  0.00  0.00     0.041 A 
ATOM     34  C   UNL d   1      -1.151 -15.645   0.678  0.00  0.00     0.030 A 
ATOM     35  C   UNL d   1       0.060 -16.330   0.622  0.00  0.00     0.003 A 
ATOM     36  C   UNL d   1       0.188 -17.445  -0.198  0.00  0.00     0.007 A 
ATOM     37  C   UNL d   1      -0.903 -17.910  -0.948  0.00  0.00    -0.054 A 
ATOM     38  C   UNL d   1      -0.679 -19.088  -1.861  0.00  0.00     0.049 C 
ATOM     39  C   UNL d   1      -2.159 -17.251  -0.845  0.00  0.00    -0.029 A 
ATOM     40  C   UNL d   1      -3.344 -17.734  -1.640  0.00  0.00     0.051 C 
ENDBRANCH  31  33
ENDBRANCH  26  29
ENDBRANCH  24  25
ENDBRANCH   5  24
TORSDOF 8
