@<TRIPOS>MOLECULE
*****
 58 60 0 0 0
SMALL
GASTEIGER

@<TRIPOS>ATOM
      1 C         -28.1204  -10.3831   17.0839 C.3     1  UNL1       -0.0379
      2 C         -28.4192  -11.8024   16.7437 C.ar    1  UNL1       -0.0279
      3 C         -29.2964  -12.4268   17.6591 C.ar    1  UNL1       -0.0387
      4 C         -29.6481  -13.7537   17.5272 C.ar    1  UNL1        0.0413
      5 CL        -30.7002  -14.4614   18.6889 Cl      1  UNL1       -0.0835
      6 C         -29.1332  -14.4813   16.4655 C.ar    1  UNL1       -0.0416
      7 C         -28.2682  -13.8610   15.5251 C.ar    1  UNL1       -0.0388
      8 C         -27.8885  -12.4976   15.6338 C.ar    1  UNL1        0.0368
      9 N         -27.0119  -11.9324   14.6228 N.am    1  UNL1       -0.2775
     10 C         -26.5000  -10.6264   14.5176 C.2     1  UNL1        0.3048
     11 O         -26.6452   -9.6607   15.2654 O.2     1  UNL1       -0.2648
     12 C         -25.6131  -10.2492   13.3267 C.2     1  UNL1        0.3184
     13 O         -25.3289  -11.0846   12.4788 O.2     1  UNL1       -0.2634
     14 N         -25.2281   -8.8969   13.4010 N.am    1  UNL1       -0.1992
     15 N         -24.4364   -8.3201   12.4529 N.2     1  UNL1       -0.1873
     16 C         -24.0496   -7.0933   12.6309 C.2     1  UNL1        0.0528
     17 C         -23.2108   -6.4373   11.5919 C.ar    1  UNL1       -0.0052
     18 C         -22.1910   -5.5388   11.9129 C.ar    1  UNL1       -0.0496
     19 C         -21.4589   -4.9257   10.8779 C.ar    1  UNL1       -0.0193
     20 C         -21.7085   -5.2325    9.5306 C.ar    1  UNL1        0.1212
     21 O         -20.8954   -4.6182    8.6164 O.3     1  UNL1       -0.4828
     22 C         -21.0072   -4.9989    7.2414 C.3     1  UNL1        0.1651
     23 C         -19.9137   -4.3196    6.3929 C.2     1  UNL1        0.2507
     24 O         -19.0530   -3.5798    6.8642 O.2     1  UNL1       -0.2721
     25 N         -19.9505   -4.6163    5.0404 N.am    1  UNL1       -0.3100
     26 C         -19.0424   -3.9521    4.1100 C.3     1  UNL1        0.0380
     27 C         -19.2599   -4.3451    2.6354 C.3     1  UNL1        0.0742
     28 C         -18.5220   -5.6171    2.2470 C.3     1  UNL1       -0.0231
     29 C         -19.5510   -6.6892    2.4878 C.3     1  UNL1       -0.0271
     30 C         -20.8449   -5.9932    2.1274 C.3     1  UNL1        0.0482
     31 O         -20.6617   -4.5937    2.3928 O.3     1  UNL1       -0.3750
     32 C         -22.7351   -6.1222    9.2261 C.ar    1  UNL1       -0.0193
     33 C         -23.4775   -6.7233   10.2502 C.ar    1  UNL1       -0.0496
     34 H         -28.5965  -10.0351   18.0011 H       1  UNL1        0.0278
     35 H         -28.5198   -9.7493   16.2875 H       1  UNL1        0.0278
     36 H         -27.0452  -10.3003   17.2691 H       1  UNL1        0.0278
     37 H         -29.6961  -11.8486   18.4911 H       1  UNL1        0.0635
     38 H         -29.4054  -15.5311   16.3694 H       1  UNL1        0.0633
     39 H         -27.9052  -14.4917   14.7147 H       1  UNL1        0.0637
     40 H         -26.7252  -12.5588   13.8714 H       1  UNL1        0.1553
     41 H         -25.5711   -8.3584   14.2018 H       1  UNL1        0.1777
     42 H         -24.3159   -6.4810   13.5157 H       1  UNL1        0.0851
     43 H         -21.9271   -5.3297   12.9468 H       1  UNL1        0.0625
     44 H         -20.6792   -4.2049   11.1235 H       1  UNL1        0.0654
     45 H         -21.9829   -4.6858    6.8510 H       1  UNL1        0.0795
     46 H         -20.8815   -6.0835    7.1290 H       1  UNL1        0.0795
     47 H         -20.7738   -5.0460    4.6361 H       1  UNL1        0.1489
     48 H         -18.0134   -4.1687    4.4199 H       1  UNL1        0.0487
     49 H         -19.1857   -2.8710    4.2239 H       1  UNL1        0.0487
     50 H         -18.9339   -3.5163    1.9944 H       1  UNL1        0.0611
     51 H         -17.5938   -5.7723    2.8040 H       1  UNL1        0.0291
     52 H         -18.2665   -5.5857    1.1805 H       1  UNL1        0.0291
     53 H         -19.5552   -6.9649    3.5482 H       1  UNL1        0.0288
     54 H         -19.3794   -7.5983    1.9068 H       1  UNL1        0.0288
     55 H         -21.6875   -6.3603    2.7209 H       1  UNL1        0.0560
     56 H         -21.0878   -6.1130    1.0668 H       1  UNL1        0.0560
     57 H         -22.9932   -6.3696    8.2034 H       1  UNL1        0.0654
     58 H         -24.2761   -7.4164    9.9954 H       1  UNL1        0.0625
@<TRIPOS>BOND
     1     1     2    1
     2     2     3   ar
     3     3     4   ar
     4     4     5    1
     5     4     6   ar
     6     6     7   ar
     7     7     8   ar
     8     2     8   ar
     9     8     9    1
    10     9    10   am
    11    10    11    2
    12    10    12    1
    13    12    13    2
    14    12    14   am
    15    14    15    1
    16    15    16    2
    17    16    17    1
    18    17    18   ar
    19    18    19   ar
    20    19    20   ar
    21    20    21    1
    22    21    22    1
    23    22    23    1
    24    23    24    2
    25    23    25   am
    26    25    26    1
    27    27    28    1
    28    28    29    1
    29    29    30    1
    30    30    31    1
    31    27    31    1
    32    20    32   ar
    33    32    33   ar
    34    17    33   ar
    35    27    26    1
    36     1    34    1
    37     1    35    1
    38     1    36    1
    39     3    37    1
    40     6    38    1
    41     7    39    1
    42     9    40    1
    43    14    41    1
    44    16    42    1
    45    18    43    1
    46    19    44    1
    47    22    45    1
    48    22    46    1
    49    25    47    1
    50    26    48    1
    51    26    49    1
    52    27    50    1
    53    28    51    1
    54    28    52    1
    55    29    53    1
    56    29    54    1
    57    30    55    1
    58    30    56    1
    59    32    57    1
    60    33    58    1
