REMARK  6 active torsions:
REMARK  status: ('A' for Active; 'I' for Inactive)
REMARK       I    between atoms: C_2  and  N_3 
REMARK    1  A    between atoms: C_2  and  C_16 
REMARK    2  A    between atoms: N_3  and  C_4 
REMARK    3  A    between atoms: C_4  and  C_5 
REMARK    4  A    between atoms: C_5  and  C_6 
REMARK    5  A    between atoms: C_6  and  C_7 
REMARK    6  A    between atoms: C_22  and  N_23 
ROOT
ATOM      1  O   UNL d   1       1.093  -0.229  -0.045  0.00  0.00    -0.266 OA
ATOM      2  C   UNL d   1       2.319  -0.122  -0.044  0.00  0.00     0.268 C 
ATOM      3  N   UNL d   1       3.030   0.238  -1.174  0.00  0.00    -0.356 N 
ATOM      4  H   UNL d   1       4.041   0.229  -1.136  0.00  0.00     0.162 HD
ENDROOT
BRANCH   2   5
ATOM      5  C   UNL d   1       3.119  -0.386   1.137  0.00  0.00     0.102 A 
ATOM      6  C   UNL d   1       4.234   0.284   1.610  0.00  0.00     0.049 A 
ATOM      7  C   UNL d   1       4.610  -0.279   2.860  0.00  0.00    -0.005 A 
ATOM      8  C   UNL d   1       5.625   0.029   3.787  0.00  0.00     0.014 A 
ATOM      9  C   UNL d   1       3.720  -1.318   3.139  0.00  0.00     0.076 A 
ATOM     10  C   UNL d   1       5.731  -0.700   4.974  0.00  0.00     0.003 A 
ATOM     11  C   UNL d   1       4.846  -1.741   5.242  0.00  0.00     0.038 A 
ATOM     12  C   UNL d   1       3.826  -2.082   4.328  0.00  0.00     0.130 A 
ATOM     13  N   UNL d   1       2.825  -1.358   2.080  0.00  0.00    -0.349 N 
ATOM     14  H   UNL d   1       2.047  -2.006   2.012  0.00  0.00     0.166 HD
BRANCH  12  15
ATOM     15  N   UNL d   1       2.936  -3.201   4.665  0.00  0.00    -0.113 N 
ATOM     16  O   UNL d   1       2.062  -3.499   3.838  0.00  0.00    -0.532 OA
ATOM     17  O   UNL d   1       3.114  -3.787   5.743  0.00  0.00    -0.532 OA
ENDBRANCH  12  15
ENDBRANCH   2   5
BRANCH   3  18
ATOM     18  C   UNL d   1       2.360   0.539  -2.431  0.00  0.00     0.123 C 
BRANCH  18  19
ATOM     19  C   UNL d   1       3.332   0.818  -3.578  0.00  0.00     0.027 C 
BRANCH  19  20
ATOM     20  C   UNL d   1       2.588   1.130  -4.881  0.00  0.00     0.080 C 
BRANCH  20  21
ATOM     21  C   UNL d   1       3.536   1.437  -5.991  0.00  0.00     0.105 A 
ATOM     22  N   UNL d   1       3.837   2.634  -6.451  0.00  0.00    -0.233 NA
ATOM     23  C   UNL d   1       4.743   2.426  -7.462  0.00  0.00     0.085 A 
ATOM     24  C   UNL d   1       5.383   3.351  -8.299  0.00  0.00     0.034 A 
ATOM     25  C   UNL d   1       5.013   1.071  -7.615  0.00  0.00     0.062 A 
ATOM     26  C   UNL d   1       6.277   2.875  -9.267  0.00  0.00     0.002 A 
ATOM     27  C   UNL d   1       6.538   1.508  -9.388  0.00  0.00     0.002 A 
ATOM     28  C   UNL d   1       5.910   0.569  -8.560  0.00  0.00     0.032 A 
ATOM     29  N   UNL d   1       4.219   0.462  -6.677  0.00  0.00    -0.343 N 
ATOM     30  H   UNL d   1       4.152  -0.532  -6.518  0.00  0.00     0.167 HD
ENDBRANCH  20  21
ENDBRANCH  19  20
ENDBRANCH  18  19
ENDBRANCH   3  18
TORSDOF 6
