REMARK  7 active torsions:
REMARK  status: ('A' for Active; 'I' for Inactive)
REMARK    1  A    between atoms: O_2  and  C_3 
REMARK    2  A    between atoms: C_6  and  N_7 
REMARK       I    between atoms: N_7  and  C_8 
REMARK       I    between atoms: C_8  and  N_20 
REMARK       I    between atoms: N_9  and  C_10 
REMARK    3  A    between atoms: C_10  and  C_12 
REMARK    4  A    between atoms: N_20  and  C_21 
REMARK    5  A    between atoms: C_21  and  C_22 
REMARK    6  A    between atoms: C_22  and  C_23 
REMARK    7  A    between atoms: C_33  and  O_34 
ROOT
ATOM      1  N   UNL d   1       5.694  -3.909   2.186  0.00  0.00    -0.190 N 
ATOM      2  C   UNL d   1       5.275  -5.257   2.287  0.00  0.00     0.704 C 
ATOM      3  N   UNL d   1       4.196  -5.856   1.860  0.00  0.00    -0.023 NA
ATOM      4  C   UNL d   1       3.049  -5.112   1.767  0.00  0.00     0.294 C 
ATOM      5  O   UNL d   1       2.694  -4.344   2.628  0.00  0.00    -0.265 OA
ATOM      6  N   UNL d   1       6.150  -6.134   2.953  0.00  0.00    -0.224 N 
ATOM      7  H   UNL d   1       6.431  -3.615   2.812  0.00  0.00     0.184 HD
ATOM      8  H   UNL d   1       6.857  -5.765   3.580  0.00  0.00     0.177 HD
ENDROOT
BRANCH   1   9
ATOM      9  C   UNL d   1       5.036  -2.799   1.544  0.00  0.00     0.052 C 
ATOM     10  C   UNL d   1       5.290  -1.456   1.787  0.00  0.00     0.033 C 
ATOM     11  C   UNL d   1       4.395  -0.436   1.301  0.00  0.00     0.042 C 
ATOM     12  C   UNL d   1       3.171  -0.715   0.650  0.00  0.00     0.101 C 
ATOM     13  C   UNL d   1       2.933  -2.047   0.436  0.00  0.00     0.103 C 
ATOM     14  C   UNL d   1       4.007  -2.962   0.634  0.00  0.00     0.069 C 
BRANCH  12  15
ATOM     15  O   UNL d   1       2.582   0.337  -0.004  0.00  0.00    -0.353 OA
ATOM     16  C   UNL d   1       1.186   0.615   0.028  0.00  0.00     0.210 C 
ENDBRANCH  12  15
BRANCH  13  17
ATOM     17  O   UNL d   1       1.772  -2.706   0.182  0.00  0.00    -0.353 OA
ATOM     18  C   UNL d   1       0.654  -2.081  -0.372  0.00  0.00     0.210 C 
ENDBRANCH  13  17
ENDBRANCH   1   9
BRANCH   6  19
ATOM     19  C   UNL d   1       5.696  -7.530   3.213  0.00  0.00     0.142 C 
BRANCH  19  20
ATOM     20  C   UNL d   1       6.669  -8.379   4.017  0.00  0.00     0.057 C 
BRANCH  20  21
ATOM     21  C   UNL d   1       6.352  -9.847   4.199  0.00  0.00    -0.048 A 
ATOM     22  C   UNL d   1       7.239 -10.644   4.798  0.00  0.00    -0.006 A 
ATOM     23  C   UNL d   1       8.522 -10.351   5.323  0.00  0.00     0.014 C 
ATOM     24  C   UNL d   1       6.690 -12.004   4.779  0.00  0.00     0.038 A 
ATOM     25  C   UNL d   1       9.308 -11.370   5.678  0.00  0.00     0.001 C 
ATOM     26  C   UNL d   1       8.807 -12.734   5.694  0.00  0.00     0.002 C 
ATOM     27  C   UNL d   1       7.565 -13.085   5.293  0.00  0.00     0.030 C 
ATOM     28  N   UNL d   1       5.510 -12.020   4.282  0.00  0.00    -0.385 N 
ATOM     29  C   UNL d   1       5.154 -10.653   3.761  0.00  0.00     0.155 A 
ATOM     30  H   UNL d   1       4.934 -12.862   4.265  0.00  0.00     0.160 HD
ENDBRANCH  20  21
ENDBRANCH  19  20
ENDBRANCH   6  19
BRANCH   4  31
ATOM     31  C   UNL d   1       2.030  -5.555   0.755  0.00  0.00     0.036 C 
ATOM     32  C   UNL d   1       1.790  -5.113  -0.573  0.00  0.00     0.020 C 
ATOM     33  C   UNL d   1       0.501  -5.230  -1.120  0.00  0.00     0.045 C 
ATOM     34  C   UNL d   1      -0.469  -5.928  -0.417  0.00  0.00     0.138 C 
ATOM     35  F   UNL d   1      -1.677  -6.093  -0.971  0.00  0.00    -0.204 F 
ATOM     36  C   UNL d   1      -0.190  -6.448   0.843  0.00  0.00     0.073 C 
ATOM     37 CL   UNL d   1      -1.351  -7.322   1.748  0.00  0.00    -0.081 Cl
ATOM     38  C   UNL d   1       1.041  -6.242   1.431  0.00  0.00     0.044 C 
ENDBRANCH   4  31
TORSDOF 7
