@<TRIPOS>MOLECULE
*****
 44 47 0 0 0
SMALL
GASTEIGER

@<TRIPOS>ATOM
      1 O           1.0183   -0.1224    0.1107 O.2     1  UNL1       -0.2699
      2 C           2.2205   -0.0378    0.2078 C.2     1  UNL1        0.2484
      3 N           2.9407    1.0389    0.7182 N.am    1  UNL1       -0.2814
      4 C           2.3080    2.1236    1.3589 C.ar    1  UNL1        0.0356
      5 C           2.8542    3.4088    1.2587 C.ar    1  UNL1       -0.0404
      6 C           2.3220    4.4558    2.0212 C.ar    1  UNL1       -0.0581
      7 C           1.2193    4.2300    2.8506 C.ar    1  UNL1       -0.0327
      8 C           0.6644    2.9460    2.9273 C.ar    1  UNL1        0.1364
      9 S          -0.6651    2.6338    4.0809 S.O2    1  UNL1        0.1785
     10 O          -0.0900    2.8778    5.3895 O.2     1  UNL1       -0.1251
     11 O          -1.7733    3.4571    3.6185 O.2     1  UNL1       -0.1251
     12 N          -1.0321    1.0445    3.9758 N.2     1  UNL1        0.0899
     13 C          -2.0845    0.6387    3.3574 C.2     1  UNL1        0.3132
     14 C          -2.4643   -0.8390    3.3060 C.3     1  UNL1        0.0561
     15 C          -3.5013   -0.8551    2.1710 C.3     1  UNL1       -0.0059
     16 C          -4.1387    0.5331    2.2247 C.3     1  UNL1        0.0785
     17 N          -3.0422    1.3393    2.6854 N.pl3   1  UNL1       -0.2358
     18 C           1.1956    1.9037    2.1740 C.ar    1  UNL1       -0.0116
     19 C           3.0352   -1.0681   -0.4570 C.ar    1  UNL1        0.0421
     20 C           4.0207   -1.8417    0.1322 C.ar    1  UNL1       -0.0275
     21 C           4.6090   -2.8590   -0.6558 C.ar    1  UNL1        0.0870
     22 CL          6.2026   -3.3142   -0.0863 Cl      1  UNL1       -0.0796
     23 C           4.2973   -2.9311   -2.0362 C.ar    1  UNL1        0.1845
     24 C           3.7646   -1.8128   -2.6063 C.ar    1  UNL1        0.1684
     25 C           2.8465   -1.1424   -1.8252 C.ar    1  UNL1       -0.0039
     26 O           3.5265   -1.9739   -3.9461 O.3     1  UNL1       -0.4525
     27 C           2.8247   -3.1937   -3.7783 C.3     1  UNL1        0.2333
     28 O           3.4832   -3.9567   -2.6843 O.3     1  UNL1       -0.4511
     29 H           3.9240    1.1299    0.5011 H       1  UNL1        0.1551
     30 H           3.6612    3.6244    0.5616 H       1  UNL1        0.0636
     31 H           2.7789    5.4434    1.9829 H       1  UNL1        0.0619
     32 H           0.8056    5.0491    3.4360 H       1  UNL1        0.0638
     33 H          -2.9344   -1.1296    4.2523 H       1  UNL1        0.0389
     34 H          -1.6111   -1.4904    3.1040 H       1  UNL1        0.0389
     35 H          -4.2406   -1.6553    2.2754 H       1  UNL1        0.0307
     36 H          -2.9937   -0.9941    1.2076 H       1  UNL1        0.0307
     37 H          -4.9663    0.5547    2.9416 H       1  UNL1        0.0724
     38 H          -4.4942    0.8692    1.2480 H       1  UNL1        0.0724
     39 H          -3.0847    2.3565    2.7391 H       1  UNL1        0.2911
     40 H           0.7841    0.9048    2.2708 H       1  UNL1        0.0656
     41 H           4.3478   -1.6292    1.1488 H       1  UNL1        0.0641
     42 H           1.9152   -0.8001   -2.2657 H       1  UNL1        0.0663
     43 H           2.7362   -3.7243   -4.7354 H       1  UNL1        0.1166
     44 H           1.7894   -2.8839   -3.5291 H       1  UNL1        0.1166
@<TRIPOS>BOND
     1     1     2    2
     2     2     3   am
     3     3     4    1
     4     4     5   ar
     5     5     6   ar
     6     6     7   ar
     7     7     8   ar
     8     8     9    1
     9     9    10    2
    10     9    11    2
    11     9    12    1
    12    12    13    2
    13    13    14    1
    14    14    15    1
    15    15    16    1
    16    16    17    1
    17    13    17    1
    18     8    18   ar
    19     4    18   ar
    20     2    19    1
    21    19    20   ar
    22    20    21   ar
    23    21    22    1
    24    21    23   ar
    25    23    24   ar
    26    24    25   ar
    27    19    25   ar
    28    24    26    1
    29    26    27    1
    30    27    28    1
    31    23    28    1
    32     3    29    1
    33     5    30    1
    34     6    31    1
    35     7    32    1
    36    14    33    1
    37    14    34    1
    38    15    35    1
    39    15    36    1
    40    16    37    1
    41    16    38    1
    42    17    39    1
    43    18    40    1
    44    20    41    1
    45    25    42    1
    46    27    43    1
    47    27    44    1
