@<TRIPOS>MOLECULE
*****
 50 50 0 0 0
SMALL
GASTEIGER

@<TRIPOS>ATOM
      1 C           1.0115   -0.0729    0.0618 C.3     1  UNL1       -0.0653
      2 C           2.5329   -0.0832    0.0703 C.3     1  UNL1       -0.0559
      3 C           3.0774   -1.1879    0.9806 C.3     1  UNL1       -0.0519
      4 C           4.6137   -1.2066    0.9934 C.3     1  UNL1       -0.0373
      5 C           5.1698   -2.3128    1.9008 C.3     1  UNL1        0.0131
      6 N           6.6348   -2.3670    1.9323 N.am    1  UNL1       -0.2982
      7 C           7.3040   -3.2658    2.7413 C.2     1  UNL1        0.3160
      8 O           6.7202   -4.0926    3.4389 O.2     1  UNL1       -0.2513
      9 N           8.6894   -3.1238    2.7502 N.am    1  UNL1       -0.2180
     10 N           9.4501   -3.9483    3.6583 N.am    1  UNL1       -0.2290
     11 C          10.8328   -4.0756    3.5173 C.2     1  UNL1        0.2669
     12 O          11.4940   -3.3160    2.8118 O.2     1  UNL1       -0.2684
     13 C          11.5688   -5.1823    4.2657 C.ar    1  UNL1        0.1187
     14 C          12.8301   -4.8422    4.8498 C.ar    1  UNL1        0.0024
     15 C          13.7224   -5.8179    5.3817 C.ar    1  UNL1        0.1630
     16 O          14.9746   -5.3561    5.7599 O.3     1  UNL1       -0.4885
     17 C          15.9686   -6.3539    6.0718 C.3     1  UNL1        0.0870
     18 C          17.3373   -5.7475    6.3006 C.3     1  UNL1       -0.0307
     19 C          13.3044   -7.1541    5.4481 C.ar    1  UNL1        0.1680
     20 O          14.1010   -8.0573    6.0868 O.3     1  UNL1       -0.4912
     21 C          13.7153   -9.4132    6.2145 C.3     1  UNL1        0.0790
     22 C          12.0857   -7.5029    4.8778 C.ar    1  UNL1        0.0616
     23 C          11.2202   -6.5440    4.2908 C.ar    1  UNL1        0.2890
     24 N           9.9854   -7.1072    3.7278 N.pl3   1  UNL1        0.0805
     25 O           9.7963   -8.3210    3.8502 O.2     1  UNL1        0.0415
     26 O           9.1755   -6.3509    3.1864 O.co2   1  UNL1       -0.5760
     27 H           0.6376    0.7209   -0.5928 H       1  UNL1        0.0230
     28 H           0.6164    0.1019    1.0677 H       1  UNL1        0.0230
     29 H           0.6164   -1.0270   -0.3013 H       1  UNL1        0.0230
     30 H           2.8965    0.8941    0.4085 H       1  UNL1        0.0263
     31 H           2.8964   -0.2289   -0.9537 H       1  UNL1        0.0263
     32 H           2.6966   -2.1580    0.6379 H       1  UNL1        0.0266
     33 H           2.6980   -1.0358    1.9988 H       1  UNL1        0.0266
     34 H           4.9820   -0.2302    1.3310 H       1  UNL1        0.0280
     35 H           4.9807   -1.3484   -0.0301 H       1  UNL1        0.0280
     36 H           4.8015   -3.2896    1.5659 H       1  UNL1        0.0462
     37 H           4.8107   -2.1643    2.9267 H       1  UNL1        0.0462
     38 H           7.1603   -1.6891    1.4028 H       1  UNL1        0.1503
     39 H           9.2124   -2.5453    2.1025 H       1  UNL1        0.1744
     40 H           8.8988   -4.7424    3.9910 H       1  UNL1        0.1732
     41 H          13.1420   -3.7955    4.8821 H       1  UNL1        0.0665
     42 H          16.0672   -7.0824    5.2540 H       1  UNL1        0.0694
     43 H          15.7030   -6.8457    7.0143 H       1  UNL1        0.0694
     44 H          17.7105   -5.2687    5.3926 H       1  UNL1        0.0262
     45 H          18.0467   -6.5295    6.6002 H       1  UNL1        0.0262
     46 H          17.2901   -4.9973    7.0929 H       1  UNL1        0.0262
     47 H          14.4946   -9.9206    6.7929 H       1  UNL1        0.0660
     48 H          13.6633   -9.8902    5.2327 H       1  UNL1        0.0660
     49 H          12.7761   -9.5039    6.7665 H       1  UNL1        0.0660
     50 H          11.8062   -8.5524    4.8620 H       1  UNL1        0.0724
@<TRIPOS>UNITY_ATOM_ATTR
24 1
charge 1
26 1
charge -1
@<TRIPOS>BOND
     1     1     2    1
     2     2     3    1
     3     3     4    1
     4     4     5    1
     5     5     6    1
     6     6     7   am
     7     7     8    2
     8     7     9   am
     9     9    10    1
    10    10    11   am
    11    11    12    2
    12    11    13    1
    13    13    14   ar
    14    14    15   ar
    15    15    16    1
    16    16    17    1
    17    17    18    1
    18    15    19   ar
    19    19    20    1
    20    20    21    1
    21    19    22   ar
    22    22    23   ar
    23    13    23   ar
    24    23    24    1
    25    24    25    2
    26    24    26    1
    27     1    27    1
    28     1    28    1
    29     1    29    1
    30     2    30    1
    31     2    31    1
    32     3    32    1
    33     3    33    1
    34     4    34    1
    35     4    35    1
    36     5    36    1
    37     5    37    1
    38     6    38    1
    39     9    39    1
    40    10    40    1
    41    14    41    1
    42    17    42    1
    43    17    43    1
    44    18    44    1
    45    18    45    1
    46    18    46    1
    47    21    47    1
    48    21    48    1
    49    21    49    1
    50    22    50    1
