@<TRIPOS>MOLECULE
*****
 60 64 0 0 0
SMALL
GASTEIGER

@<TRIPOS>ATOM
      1 C           1.1216   -0.0424    0.0951 C.3     1  UNL1       -0.0011
      2 N           2.5732    0.0896    0.1103 N.pl3   1  UNL1       -0.3320
      3 C           3.2260    0.1035   -1.1292 C.ar    1  UNL1        0.1223
      4 C           2.7584    0.9356   -2.1143 C.ar    1  UNL1        0.0013
      5 C           3.4595    1.0814   -3.2885 C.ar    1  UNL1        0.0671
      6 C           2.9638    2.0322   -4.4119 C.3     1  UNL1        0.0698
      7 C           2.7418    1.3214   -5.7363 C.3     1  UNL1       -0.0016
      8 C           3.9075    0.6073   -6.2737 C.ar    1  UNL1       -0.0202
      9 C           5.0855    1.1449   -6.7416 C.ar    1  UNL1        0.0060
     10 N           5.8906    0.1006   -7.1039 N.ar    1  UNL1       -0.3604
     11 C           5.2345   -1.0995   -6.9105 C.ar    1  UNL1        0.0467
     12 C           5.6546   -2.4198   -7.1032 C.ar    1  UNL1       -0.0378
     13 C           4.7793   -3.4426   -6.7092 C.ar    1  UNL1       -0.0598
     14 C           3.5488   -3.1643   -6.1199 C.ar    1  UNL1       -0.0611
     15 C           3.1592   -1.8466   -5.9084 C.ar    1  UNL1       -0.0523
     16 C           4.0066   -0.8044   -6.3321 C.ar    1  UNL1        0.0029
     17 N           1.6614    2.6841   -4.1286 N.am    1  UNL1       -0.3026
     18 C           1.2441    3.8356   -4.7451 C.2     1  UNL1        0.2481
     19 O           1.7637    4.2896   -5.7735 O.2     1  UNL1       -0.2701
     20 C           0.1188    4.5687   -4.1149 C.ar    1  UNL1        0.0782
     21 C          -0.9554    4.8676   -4.9778 C.ar    1  UNL1       -0.0461
     22 C          -1.9828    5.7211   -4.5715 C.ar    1  UNL1       -0.0608
     23 C          -1.9999    6.2108   -3.2719 C.ar    1  UNL1       -0.0583
     24 C          -0.9566    5.9004   -2.4032 C.ar    1  UNL1       -0.0192
     25 C           0.1358    5.1216   -2.8149 C.ar    1  UNL1        0.1322
     26 O           1.1065    5.1289   -1.8416 O.3     1  UNL1       -0.4944
     27 C           2.2233    4.2969   -2.0258 C.3     1  UNL1        0.0788
     28 N           4.6074    0.3852   -3.4533 N.ar    1  UNL1       -0.2346
     29 C           4.9742   -0.5104   -2.5043 C.ar    1  UNL1        0.1345
     30 C           6.1420   -1.4597   -2.7295 C.3     1  UNL1        0.0190
     31 C           6.8225   -1.7420   -4.0422 C.3     1  UNL1       -0.0427
     32 C           7.5217   -0.9051   -3.0274 C.3     1  UNL1       -0.0427
     33 N           4.3196   -0.6354   -1.3197 N.ar    1  UNL1       -0.2173
     34 H           0.7526   -0.1782    1.1155 H       1  UNL1        0.0426
     35 H           0.7848   -0.8957   -0.5059 H       1  UNL1        0.0426
     36 H           0.6377    0.8642   -0.2879 H       1  UNL1        0.0426
     37 H           3.0561   -0.5251    0.7576 H       1  UNL1        0.1471
     38 H           1.8652    1.4791   -1.8953 H       1  UNL1        0.0670
     39 H           3.7176    2.8292   -4.5167 H       1  UNL1        0.0567
     40 H           2.4042    2.0258   -6.5024 H       1  UNL1        0.0336
     41 H           1.9054    0.6266   -5.5898 H       1  UNL1        0.0336
     42 H           5.4191    2.1733   -6.8091 H       1  UNL1        0.0810
     43 H           6.8488    0.1944   -7.4073 H       1  UNL1        0.1653
     44 H           6.6409   -2.6468   -7.4894 H       1  UNL1        0.0638
     45 H           5.0732   -4.4786   -6.8487 H       1  UNL1        0.0618
     46 H           2.8852   -3.9682   -5.8154 H       1  UNL1        0.0618
     47 H           2.2188   -1.6287   -5.4106 H       1  UNL1        0.0624
     48 H           0.9992    2.2118   -3.5289 H       1  UNL1        0.1497
     49 H          -0.9687    4.4745   -5.9940 H       1  UNL1        0.0626
     50 H          -2.7520    6.0291   -5.2759 H       1  UNL1        0.0618
     51 H          -2.8035    6.8618   -2.9382 H       1  UNL1        0.0619
     52 H          -0.9576    6.3205   -1.3986 H       1  UNL1        0.0654
     53 H           2.9112    4.2946   -1.1800 H       1  UNL1        0.0660
     54 H           2.7885    4.5684   -2.9212 H       1  UNL1        0.0660
     55 H           1.8200    3.3030   -2.0271 H       1  UNL1        0.0660
     56 H           6.0752   -2.3502   -2.1097 H       1  UNL1        0.0379
     57 H           6.5536   -1.2041   -4.9273 H       1  UNL1        0.0272
     58 H           7.1586   -2.7560   -4.2293 H       1  UNL1        0.0272
     59 H           7.6302    0.1399   -3.3024 H       1  UNL1        0.0272
     60 H           8.3696   -1.3270   -2.5087 H       1  UNL1        0.0272
@<TRIPOS>BOND
     1     1     2    1
     2     2     3    1
     3     3     4   ar
     4     4     5   ar
     5     5     6    1
     6     6     7    1
     7     7     8    1
     8     8     9   ar
     9     9    10   ar
    10    10    11   ar
    11    11    12   ar
    12    12    13   ar
    13    13    14   ar
    14    14    15   ar
    15    15    16   ar
    16     8    16   ar
    17    11    16   ar
    18     6    17    1
    19    17    18   am
    20    18    19    2
    21    18    20    1
    22    20    21   ar
    23    21    22   ar
    24    22    23   ar
    25    23    24   ar
    26    24    25   ar
    27    20    25   ar
    28    25    26    1
    29    26    27    1
    30     5    28   ar
    31    28    29   ar
    32    29    30    1
    33    30    31    1
    34    31    32    1
    35    30    32    1
    36    29    33   ar
    37     3    33   ar
    38     1    34    1
    39     1    35    1
    40     1    36    1
    41     2    37    1
    42     4    38    1
    43     6    39    1
    44     7    40    1
    45     7    41    1
    46     9    42    1
    47    10    43    1
    48    12    44    1
    49    13    45    1
    50    14    46    1
    51    15    47    1
    52    17    48    1
    53    21    49    1
    54    22    50    1
    55    23    51    1
    56    24    52    1
    57    27    53    1
    58    27    54    1
    59    27    55    1
    60    30    56    1
    61    31    57    1
    62    31    58    1
    63    32    59    1
    64    32    60    1
