REMARK  13 active torsions:
REMARK  status: ('A' for Active; 'I' for Inactive)
REMARK    1  A    between atoms: C_2  and  C_3 
REMARK    2  A    between atoms: C_3  and  C_4 
REMARK    3  A    between atoms: C_4  and  N_5 
REMARK       I    between atoms: N_5  and  C_6 
REMARK    4  A    between atoms: C_6  and  C_8 
REMARK    5  A    between atoms: C_8  and  C_9 
REMARK    6  A    between atoms: C_8  and  N_18 
REMARK    7  A    between atoms: C_10  and  O_11 
REMARK    8  A    between atoms: C_13  and  O_14 
REMARK    9  A    between atoms: C_16  and  O_17 
REMARK       I    between atoms: N_18  and  C_20 
REMARK   10  A    between atoms: C_20  and  C_22 
REMARK   11  A    between atoms: C_22  and  O_23 
REMARK   12  A    between atoms: C_22  and  C_24 
REMARK   13  A    between atoms: C_22  and  C_30 
ROOT
ATOM      1  C   UNL d   1       6.974   1.463   4.164  0.00  0.00     0.217 C 
ENDROOT
BRANCH   1   2
ATOM      2  C   UNL d   1       6.314   1.068   2.787  0.00  0.00     0.245 C 
ATOM      3  N   UNL d   1       4.949   1.065   2.666  0.00  0.00    -0.359 N 
ATOM      4  H   UNL d   1       4.344   1.198   3.467  0.00  0.00     0.162 HD
ATOM      5  O   UNL d   1       6.927   0.800   1.743  0.00  0.00    -0.271 OA
BRANCH   3   6
ATOM      6  C   UNL d   1       4.450   0.590   1.390  0.00  0.00     0.122 C 
BRANCH   6   7
ATOM      7  C   UNL d   1       2.950   0.566   1.339  0.00  0.00     0.019 C 
BRANCH   7   8
ATOM      8  C   UNL d   1       2.470   0.095  -0.028  0.00  0.00    -0.003 C 
ATOM      9  C   UNL d   1       0.956   0.085  -0.054  0.00  0.00     0.005 C 
ENDBRANCH   7   8
ENDBRANCH   6   7
ENDBRANCH   3   6
ENDBRANCH   1   2
BRANCH   1  10
ATOM     10  C   UNL d   1       6.474   0.541   5.283  0.00  0.00     0.040 A 
ATOM     11  C   UNL d   1       5.739   0.961   6.410  0.00  0.00     0.080 A 
ATOM     12  C   UNL d   1       5.419   0.066   7.442  0.00  0.00     0.073 A 
ATOM     13  C   UNL d   1       5.810  -1.264   7.341  0.00  0.00     0.071 A 
ATOM     14  C   UNL d   1       6.521  -1.710   6.239  0.00  0.00     0.073 A 
ATOM     15  C   UNL d   1       6.851  -0.811   5.231  0.00  0.00     0.080 A 
BRANCH  11  16
ATOM     16  O   UNL d   1       5.271   2.235   6.597  0.00  0.00    -0.360 OA
ATOM     17  H   UNL d   1       5.798   2.867   6.083  0.00  0.00     0.217 HD
ENDBRANCH  11  16
BRANCH  13  18
ATOM     18  O   UNL d   1       5.511  -2.185   8.301  0.00  0.00    -0.361 OA
ATOM     19  H   UNL d   1       5.028  -1.746   9.020  0.00  0.00     0.217 HD
ENDBRANCH  13  18
BRANCH  15  20
ATOM     20  O   UNL d   1       7.579  -1.248   4.158  0.00  0.00    -0.360 OA
ATOM     21  H   UNL d   1       7.808  -2.182   4.287  0.00  0.00     0.217 HD
ENDBRANCH  15  20
ENDBRANCH   1  10
BRANCH   1  22
ATOM     22  N   UNL d   1       8.476   1.527   4.198  0.00  0.00    -0.336 N 
ATOM     23  C   UNL d   1       9.248   1.136   3.029  0.00  0.00     0.154 C 
ATOM     24  C   UNL d   1       9.110   1.954   5.389  0.00  0.00     0.264 C 
ATOM     25  O   UNL d   1       8.431   2.381   6.332  0.00  0.00    -0.269 OA
BRANCH  24  26
ATOM     26  C   UNL d   1      10.730   1.970   5.442  0.00  0.00     0.194 C 
BRANCH  26  27
ATOM     27  O   UNL d   1      11.300   0.663   5.292  0.00  0.00    -0.371 OA
ATOM     28  H   UNL d   1      11.045   0.295   4.443  0.00  0.00     0.212 HD
ENDBRANCH  26  27
BRANCH  26  29
ATOM     29  C   UNL d   1      11.216   2.932   4.340  0.00  0.00    -0.010 C 
ATOM     30  C   UNL d   1      12.139   2.575   3.346  0.00  0.00     0.011 C 
ATOM     31  C   UNL d   1      12.524   3.516   2.388  0.00  0.00     0.001 C 
ATOM     32  C   UNL d   1      12.013   4.816   2.420  0.00  0.00     0.000 C 
ATOM     33  C   UNL d   1      11.081   5.177   3.379  0.00  0.00     0.001 C 
ATOM     34  C   UNL d   1      10.636   4.220   4.271  0.00  0.00     0.011 C 
ENDBRANCH  26  29
BRANCH  26  35
ATOM     35  C   UNL d   1      11.208   2.436   6.845  0.00  0.00    -0.010 A 
ATOM     36  C   UNL d   1      11.519   1.506   7.850  0.00  0.00     0.011 A 
ATOM     37  C   UNL d   1      11.730   1.927   9.166  0.00  0.00     0.001 A 
ATOM     38  C   UNL d   1      11.705   3.281   9.493  0.00  0.00     0.000 A 
ATOM     39  C   UNL d   1      11.466   4.220   8.510  0.00  0.00     0.001 A 
ATOM     40  C   UNL d   1      11.238   3.796   7.211  0.00  0.00     0.011 A 
ENDBRANCH  26  35
ENDBRANCH  24  26
ENDBRANCH   1  22
TORSDOF 13
