@<TRIPOS>MOLECULE
*****
 63 66 0 0 0
SMALL
GASTEIGER

@<TRIPOS>ATOM
      1 O          14.3668    0.3832  -11.7020 O.2     1  UNL1       -0.2738
      2 C          14.2473   -0.8390  -11.8207 C.2     1  UNL1        0.2343
      3 C          12.9807   -1.5939  -11.3567 C.3     1  UNL1        0.0861
      4 N          12.0045   -0.7204  -10.7131 N.pl3   1  UNL1       -0.3354
      5 C          10.7595   -1.2342  -10.3775 C.ar    1  UNL1        0.0277
      6 C           9.5705   -0.5993  -10.7493 C.ar    1  UNL1       -0.0374
      7 C           8.3184   -1.0868  -10.3173 C.ar    1  UNL1       -0.0182
      8 C           8.2284   -2.2699   -9.5786 C.ar    1  UNL1        0.1207
      9 O           6.9673   -2.7074   -9.2313 O.3     1  UNL1       -0.4894
     10 C           6.9245   -4.0318   -8.6743 C.3     1  UNL1        0.1156
     11 C           5.5130   -4.5748   -8.3806 C.3     1  UNL1        0.0927
     12 C           4.4145   -4.1254   -9.3221 C.3     1  UNL1       -0.0213
     13 C           4.4271   -5.1884  -10.3895 C.3     1  UNL1       -0.0270
     14 C           4.7929   -6.4375   -9.6192 C.3     1  UNL1        0.0482
     15 O           5.5547   -6.0214   -8.4743 O.3     1  UNL1       -0.3732
     16 C           9.4127   -2.9276   -9.2500 C.ar    1  UNL1       -0.0182
     17 C          10.6522   -2.4272   -9.6615 C.ar    1  UNL1       -0.0374
     18 N          15.3083   -1.5757  -12.3182 N.am    1  UNL1       -0.2842
     19 C          15.3186   -2.9360  -12.6644 C.ar    1  UNL1        0.0341
     20 C          16.4517   -3.7160  -12.4456 C.ar    1  UNL1       -0.0404
     21 C          16.4491   -5.0613  -12.8297 C.ar    1  UNL1       -0.0593
     22 C          15.3020   -5.6320  -13.3901 C.ar    1  UNL1       -0.0495
     23 C          14.1764   -4.8430  -13.6505 C.ar    1  UNL1        0.0388
     24 C          12.9901   -5.4385  -14.3205 C.2     1  UNL1        0.2483
     25 O          13.0444   -6.6431  -14.5994 O.2     1  UNL1       -0.2699
     26 N          11.9176   -4.6107  -14.6442 N.am    1  UNL1       -0.2815
     27 C          10.7446   -5.0999  -15.2453 C.ar    1  UNL1        0.0342
     28 C          10.0761   -4.3586  -16.2214 C.ar    1  UNL1       -0.0404
     29 C           8.9022   -4.8633  -16.7911 C.ar    1  UNL1       -0.0595
     30 C           8.4073   -6.1064  -16.3904 C.ar    1  UNL1       -0.0500
     31 C           9.0519   -6.8294  -15.3793 C.ar    1  UNL1        0.0566
     32 C           8.4909   -8.1210  -14.8581 C.3     1  UNL1        0.4175
     33 F           7.2255   -7.9671  -14.3778 F       1  UNL1       -0.1659
     34 F           8.4197   -9.0872  -15.8119 F       1  UNL1       -0.1659
     35 F           9.2099   -8.6557  -13.8312 F       1  UNL1       -0.1659
     36 C          10.2215   -6.3159  -14.8202 C.ar    1  UNL1       -0.0288
     37 C          14.2212   -3.4955  -13.3143 C.ar    1  UNL1       -0.0284
     38 H          13.2987   -2.3872  -10.6717 H       1  UNL1        0.0557
     39 H          12.4779   -2.0208  -12.2216 H       1  UNL1        0.0557
     40 H          12.1114    0.2740  -10.8908 H       1  UNL1        0.1466
     41 H           9.6009    0.2813  -11.3870 H       1  UNL1        0.0637
     42 H           7.4182   -0.5261  -10.5584 H       1  UNL1        0.0655
     43 H           7.4525   -4.0164   -7.7120 H       1  UNL1        0.0723
     44 H           7.4370   -4.7339   -9.3440 H       1  UNL1        0.0723
     45 H           5.2492   -4.3268   -7.3459 H       1  UNL1        0.0630
     46 H           4.5460   -3.1142   -9.7115 H       1  UNL1        0.0292
     47 H           3.4528   -4.1533   -8.7936 H       1  UNL1        0.0292
     48 H           5.2065   -4.9641  -11.1258 H       1  UNL1        0.0288
     49 H           3.4755   -5.2827  -10.9200 H       1  UNL1        0.0288
     50 H           5.3814   -7.1358  -10.2237 H       1  UNL1        0.0560
     51 H           3.9031   -6.9654   -9.2593 H       1  UNL1        0.0560
     52 H           9.4235   -3.8270   -8.6449 H       1  UNL1        0.0655
     53 H          11.5450   -2.9626   -9.3529 H       1  UNL1        0.0637
     54 H          16.1730   -1.0531  -12.4144 H       1  UNL1        0.1549
     55 H          17.3265   -3.3116  -11.9420 H       1  UNL1        0.0636
     56 H          17.3407   -5.6712  -12.6988 H       1  UNL1        0.0618
     57 H          15.3014   -6.6895  -13.6530 H       1  UNL1        0.0625
     58 H          11.9727   -3.6059  -14.5674 H       1  UNL1        0.1551
     59 H          10.4868   -3.4270  -16.6029 H       1  UNL1        0.0636
     60 H           8.3709   -4.2940  -17.5510 H       1  UNL1        0.0618
     61 H           7.5124   -6.5108  -16.8606 H       1  UNL1        0.0623
     62 H          10.7112   -6.8599  -14.0145 H       1  UNL1        0.0642
     63 H          13.4276   -2.8433  -13.6334 H       1  UNL1        0.0644
@<TRIPOS>BOND
     1     1     2    2
     2     2     3    1
     3     3     4    1
     4     4     5    1
     5     5     6   ar
     6     6     7   ar
     7     7     8   ar
     8     8     9    1
     9     9    10    1
    10    11    12    1
    11    12    13    1
    12    13    14    1
    13    14    15    1
    14    11    15    1
    15     8    16   ar
    16    16    17   ar
    17     5    17   ar
    18     2    18   am
    19    18    19    1
    20    19    20   ar
    21    20    21   ar
    22    21    22   ar
    23    22    23   ar
    24    23    24    1
    25    24    25    2
    26    24    26   am
    27    26    27    1
    28    27    28   ar
    29    28    29   ar
    30    29    30   ar
    31    30    31   ar
    32    31    32    1
    33    32    33    1
    34    32    34    1
    35    32    35    1
    36    31    36   ar
    37    27    36   ar
    38    23    37   ar
    39    19    37   ar
    40    11    10    1
    41     3    38    1
    42     3    39    1
    43     4    40    1
    44     6    41    1
    45     7    42    1
    46    10    43    1
    47    10    44    1
    48    11    45    1
    49    12    46    1
    50    12    47    1
    51    13    48    1
    52    13    49    1
    53    14    50    1
    54    14    51    1
    55    16    52    1
    56    17    53    1
    57    18    54    1
    58    20    55    1
    59    21    56    1
    60    22    57    1
    61    26    58    1
    62    28    59    1
    63    29    60    1
    64    30    61    1
    65    36    62    1
    66    37    63    1
