@<TRIPOS>MOLECULE
*****
 52 53 0 0 0
SMALL
GASTEIGER

@<TRIPOS>ATOM
      1 C           2.3529    1.8217   -1.2377 C.3     0  UNK0       -0.0379
      2 C           0.9118    2.2070   -1.2668 C.ar    0  UNK0       -0.0275
      3 C           0.0979    1.0637   -1.2550 C.ar    0  UNK0       -0.0360
      4 C          -1.2825    1.0797   -1.2863 C.ar    0  UNK0        0.0296
      5 N          -2.0012   -0.1010   -1.2716 N.pl3   0  UNK0       -0.3360
      6 C          -1.3675   -1.4281   -1.2095 C.3     0  UNK0        0.0004
      7 C          -3.4555   -0.1312   -1.3003 C.3     0  UNK0        0.0004
      8 C          -1.8263    2.3717   -1.3351 C.ar    0  UNK0       -0.0389
      9 C          -1.0348    3.5583   -1.3403 C.ar    0  UNK0       -0.0384
     10 C           0.3651    3.5070   -1.3079 C.ar    0  UNK0        0.0378
     11 N           1.1127    4.7552   -1.3209 N.am    0  UNK0       -0.2692
     12 C           2.4647    4.8403   -1.3179 C.2     0  UNK0        0.3043
     13 O           3.2403    3.8922   -1.3208 O.2     0  UNK0       -0.2525
     14 N           3.1410    6.0037   -1.3122 N.am    1  UNK1       -0.2913
     15 C           4.6465    5.8552   -1.2868 C.3     1  UNK1        0.0776
     16 C           5.2680    5.1827   -2.5904 C.3     1  UNK1        0.0653
     17 O           5.0562    3.8083   -2.9058 O.3     1  UNK1       -0.3931
     18 C           5.2243    5.2245    0.0733 C.3     1  UNK1        0.1006
     19 O           4.8138    3.9174    0.4736 O.3     1  UNK1       -0.3853
     20 C           6.7419    5.1914    0.0927 C.ar    1  UNK1       -0.0169
     21 C           7.4598    6.3918    0.0888 C.ar    1  UNK1       -0.0497
     22 C           8.8541    6.3749    0.0777 C.ar    1  UNK1        0.0159
     23 C           9.5370    5.1497    0.0727 C.ar    1  UNK1        0.2732
     24 N          11.0006    5.1283    0.0649 N.pl3   1  UNK1        0.0796
     25 O          11.5905    6.2177    0.0602 O.2     1  UNK1        0.0414
     26 O          11.5622    4.0234    0.0609 O.co2   1  UNK1       -0.5760
     27 C           8.8399    3.9426    0.0735 C.ar    1  UNK1        0.0159
     28 C           7.4509    3.9699    0.0786 C.ar    1  UNK1       -0.0497
     29 H           2.5931    0.7604   -1.2078 H       0  UNK0        0.0278
     30 H           2.7689    2.2068   -0.2998 H       0  UNK0        0.0278
     31 H           2.7877    2.1499   -2.1891 H       0  UNK0        0.0278
     32 H           0.6433    0.1300   -1.2230 H       0  UNK0        0.0639
     33 H          -0.2770   -1.4490   -1.1817 H       0  UNK0        0.0428
     34 H          -1.6460   -2.0206   -2.0873 H       0  UNK0        0.0428
     35 H          -1.6897   -1.9595   -0.3078 H       0  UNK0        0.0428
     36 H          -3.9341    0.8465   -1.3421 H       0  UNK0        0.0428
     37 H          -3.8341   -0.6301   -0.4022 H       0  UNK0        0.0428
     38 H          -3.7965   -0.6876   -2.1793 H       0  UNK0        0.0428
     39 H          -2.9003    2.5158   -1.3737 H       0  UNK0        0.0637
     40 H          -1.5689    4.5053   -1.3732 H       0  UNK0        0.0637
     41 H           0.5690    5.6071   -1.3548 H       0  UNK0        0.1564
     42 H           2.6882    6.9062   -1.3570 H       1  UNK1        0.1507
     43 H           4.9994    6.8935   -1.3197 H       1  UNK1        0.0550
     44 H           6.3551    5.2653   -2.5449 H       1  UNK1        0.0576
     45 H           4.9326    5.7418   -3.4664 H       1  UNK1        0.0576
     46 H           4.7616    3.3364   -2.1104 H       1  UNK1        0.2095
     47 H           4.8719    5.8550    0.8968 H       1  UNK1        0.0663
     48 H           4.7974    3.3596   -0.3203 H       1  UNK1        0.2103
     49 H           6.9357    7.3455    0.0889 H       1  UNK1        0.0623
     50 H           9.3894    7.3208    0.0758 H       1  UNK1        0.0685
     51 H           9.3472    2.9803    0.0730 H       1  UNK1        0.0685
     52 H           6.9328    3.0116    0.0782 H       1  UNK1        0.0623
@<TRIPOS>UNITY_ATOM_ATTR
24 1
charge 1
26 1
charge -1
@<TRIPOS>BOND
     1     1     2    1
     2     2     3   ar
     3     3     4   ar
     4     4     5    1
     5     5     6    1
     6     5     7    1
     7     4     8   ar
     8     8     9   ar
     9     9    10   ar
    10     2    10   ar
    11    10    11    1
    12    11    12   am
    13    12    13    2
    14    12    14   am
    15    14    15    1
    16    15    16    1
    17    16    17    1
    18    18    20    1
    19    20    21   ar
    20    21    22   ar
    21    22    23   ar
    22    23    24    1
    23    24    25    2
    24    24    26    1
    25    23    27   ar
    26    27    28   ar
    27    20    28   ar
    28    18    19    1
    29    18    15    1
    30     1    29    1
    31     1    30    1
    32     1    31    1
    33     3    32    1
    34     6    33    1
    35     6    34    1
    36     6    35    1
    37     7    36    1
    38     7    37    1
    39     7    38    1
    40     8    39    1
    41     9    40    1
    42    11    41    1
    43    14    42    1
    44    15    43    1
    45    16    44    1
    46    16    45    1
    47    17    46    1
    48    18    47    1
    49    19    48    1
    50    21    49    1
    51    22    50    1
    52    27    51    1
    53    28    52    1
