REMARK  13 active torsions:
REMARK  status: ('A' for Active; 'I' for Inactive)
REMARK    1  A    between atoms: C_2  and  N_3 
REMARK    2  A    between atoms: N_3  and  C_4 
REMARK    3  A    between atoms: N_3  and  C_6 
REMARK    4  A    between atoms: C_6  and  C_7 
REMARK    5  A    between atoms: C_7  and  C_8 
REMARK    6  A    between atoms: C_8  and  N_9 
REMARK       I    between atoms: N_9  and  C_10 
REMARK    7  A    between atoms: N_9  and  C_23 
REMARK    8  A    between atoms: C_10  and  C_12 
REMARK    9  A    between atoms: C_15  and  C_16 
REMARK   10  A    between atoms: C_23  and  C_24 
REMARK   11  A    between atoms: C_23  and  C_33 
REMARK       I    between atoms: C_24  and  N_26 
REMARK   12  A    between atoms: N_26  and  C_27 
REMARK   13  A    between atoms: C_36  and  O_37 
ROOT
ATOM      1  N   UNL d   1       6.920  -1.856  -3.774  0.00  0.00    -0.329 N 
ATOM      2  C   UNL d   1       6.011  -2.216  -4.848  0.00  0.00     0.271 C 
ATOM      3  O   UNL d   1       6.331  -2.573  -5.958  0.00  0.00    -0.266 OA
ENDROOT
BRANCH   1   4
ATOM      4  C   UNL d   1       6.552  -1.289  -2.449  0.00  0.00     0.129 C 
BRANCH   4   5
ATOM      5  C   UNL d   1       5.089  -1.179  -2.182  0.00  0.00     0.048 C 
BRANCH   5   6
ATOM      6  C   UNL d   1       4.566  -0.533  -0.944  0.00  0.00     0.236 C 
BRANCH   6   7
ATOM      7  N   UNL d   1       3.012  -0.445  -1.026  0.00  0.00    -0.072 N 
ATOM      8  H   UNL d   1       2.669  -1.399  -1.242  0.00  0.00     0.279 HD
BRANCH   7   9
ATOM      9  C   UNL d   1       2.536  -0.001   0.324  0.00  0.00     0.230 C 
ATOM     10  C   UNL d   1       1.038  -0.079   0.473  0.00  0.00     0.034 C 
ENDBRANCH   7   9
BRANCH   7  11
ATOM     11  C   UNL d   1       2.496   0.511  -2.100  0.00  0.00     0.230 C 
ATOM     12  C   UNL d   1       1.006   0.374  -2.422  0.00  0.00     0.034 C 
ENDBRANCH   7  11
ENDBRANCH   6   7
ENDBRANCH   5   6
ENDBRANCH   4   5
ENDBRANCH   1   4
BRANCH   1  13
ATOM     13  C   UNL d   1       8.424  -1.960  -3.999  0.00  0.00     0.212 C 
BRANCH  13  14
ATOM     14  C   UNL d   1       9.217  -2.772  -2.891  0.00  0.00     0.245 C 
ATOM     15  O   UNL d   1       9.962  -3.707  -3.187  0.00  0.00    -0.271 OA
ATOM     16  N   UNL d   1       9.088  -2.395  -1.563  0.00  0.00    -0.354 N 
ATOM     17  H   UNL d   1       8.852  -1.439  -1.340  0.00  0.00     0.162 HD
BRANCH  16  18
ATOM     18  C   UNL d   1       9.614  -3.232  -0.479  0.00  0.00     0.084 C 
ATOM     19  C   UNL d   1       9.061  -2.742   0.874  0.00  0.00     0.025 C 
ATOM     20  C   UNL d   1       9.437  -3.671   2.030  0.00  0.00     0.002 C 
ATOM     21  C   UNL d   1       9.024  -5.113   1.758  0.00  0.00     0.000 C 
ATOM     22  C   UNL d   1       9.626  -5.602   0.456  0.00  0.00     0.002 C 
ATOM     23  C   UNL d   1       9.221  -4.705  -0.693  0.00  0.00     0.025 C 
ENDBRANCH  16  18
ENDBRANCH  13  14
BRANCH  13  24
ATOM     24  C   UNL d   1       8.803  -2.570  -5.341  0.00  0.00    -0.026 A 
ATOM     25  C   UNL d   1       8.472  -3.928  -5.576  0.00  0.00     0.012 A 
ATOM     26  C   UNL d   1       8.674  -4.515  -6.814  0.00  0.00     0.037 A 
ATOM     27  C   UNL d   1       9.204  -3.740  -7.833  0.00  0.00     0.065 A 
ATOM     28  C   UNL d   1       9.582  -2.415  -7.615  0.00  0.00     0.037 A 
ATOM     29  C   UNL d   1       9.381  -1.819  -6.368  0.00  0.00     0.012 A 
BRANCH  27  30
ATOM     30  O   UNL d   1       9.339  -4.246  -9.091  0.00  0.00    -0.361 OA
ATOM     31  H   UNL d   1       8.919  -5.122  -9.108  0.00  0.00     0.217 HD
ENDBRANCH  27  30
ENDBRANCH  13  24
ENDBRANCH   1  13
BRANCH   2  32
ATOM     32  C   UNL d   1       4.579  -2.145  -4.690  0.00  0.00     0.101 C 
ATOM     33  C   UNL d   1       3.797  -1.012  -4.750  0.00  0.00     0.037 C 
ATOM     34  C   UNL d   1       2.491  -1.417  -4.498  0.00  0.00     0.033 C 
ATOM     35  C   UNL d   1       2.428  -2.781  -4.522  0.00  0.00     0.043 C 
ATOM     36  N   UNL d   1       3.705  -3.218  -4.794  0.00  0.00    -0.351 N 
ATOM     37  H   UNL d   1       3.964  -4.149  -5.100  0.00  0.00     0.166 HD
BRANCH  35  38
ATOM     38  C   UNL d   1       1.195  -3.531  -4.600  0.00  0.00    -0.009 C 
ATOM     39  C   UNL d   1       1.006  -4.731  -3.930  0.00  0.00     0.013 C 
ATOM     40  C   UNL d   1      -0.151  -5.463  -4.185  0.00  0.00     0.001 C 
ATOM     41  C   UNL d   1      -1.157  -4.945  -5.008  0.00  0.00     0.000 C 
ATOM     42  C   UNL d   1      -1.013  -3.695  -5.596  0.00  0.00     0.001 C 
ATOM     43  C   UNL d   1       0.160  -2.992  -5.390  0.00  0.00     0.013 C 
ENDBRANCH  35  38
ENDBRANCH   2  32
TORSDOF 13
