@<TRIPOS>MOLECULE
*****
 46 47 0 0 0
SMALL
GASTEIGER

@<TRIPOS>ATOM
      1 C           1.1698    0.1573   -0.0290 C.3     1  UNL1       -0.0251
      2 C           2.6932   -0.0187    0.0727 C.2     1  UNL1        0.0237
      3 C           3.2519   -1.1010    0.6803 C.2     1  UNL1        0.0184
      4 C           2.4939   -2.2368    1.3119 C.2     1  UNL1        0.2426
      5 O           1.2670   -2.2422    1.3668 O.2     1  UNL1       -0.2704
      6 N           3.2348   -3.2561    1.8914 N.am    1  UNL1       -0.2819
      7 C           2.5714   -4.3935    2.4373 C.ar    1  UNL1        0.0351
      8 C           1.4653   -4.9445    1.7713 C.ar    1  UNL1       -0.0390
      9 C           0.7998   -6.0660    2.2628 C.ar    1  UNL1       -0.0402
     10 C           1.2234   -6.6533    3.4496 C.ar    1  UNL1        0.0594
     11 CL          0.3908   -8.0722    3.9770 Cl      1  UNL1       -0.0820
     12 C           2.3048   -6.0965    4.1470 C.ar    1  UNL1        0.0610
     13 CL          2.8287   -6.7430    5.6646 Cl      1  UNL1       -0.0820
     14 C           2.9941   -4.9805    3.6316 C.ar    1  UNL1       -0.0207
     15 N           3.4241    1.0349   -0.5163 N.pl3   1  UNL1       -0.2683
     16 N           4.8301    1.1694   -0.5959 N.am    1  UNL1       -0.2290
     17 C           5.4553    2.2616   -1.2136 C.2     1  UNL1        0.3152
     18 O           4.8935    3.2251   -1.7330 O.2     1  UNL1       -0.2636
     19 C           7.0201    2.1652   -1.1970 C.2     1  UNL1        0.3046
     20 O           7.5113    1.1732   -0.6625 O.2     1  UNL1       -0.2648
     21 N           7.7411    3.2448   -1.7351 N.am    1  UNL1       -0.2777
     22 C           9.1693    3.2925   -1.7773 C.ar    1  UNL1        0.0352
     23 C           9.9159    2.1535   -2.0929 C.ar    1  UNL1       -0.0401
     24 C          11.3205    2.1800   -2.1292 C.ar    1  UNL1       -0.0557
     25 C          12.0306    3.3464   -1.8229 C.ar    1  UNL1       -0.0320
     26 C          13.5387    3.3271   -1.8379 C.3     1  UNL1       -0.0383
     27 C          11.2853    4.4942   -1.5095 C.ar    1  UNL1        0.0456
     28 CL         12.0871    5.9638   -1.0634 Cl      1  UNL1       -0.0832
     29 C           9.8698    4.4799   -1.5206 C.ar    1  UNL1       -0.0219
     30 H           0.5567   -0.6289    0.4019 H       1  UNL1        0.0290
     31 H           0.8482    0.1969   -1.0743 H       1  UNL1        0.0290
     32 H           0.8454    1.0641    0.4907 H       1  UNL1        0.0290
     33 H           4.3287   -1.1905    0.7213 H       1  UNL1        0.0685
     34 H           4.2207   -3.1311    2.0812 H       1  UNL1        0.1551
     35 H           1.1110   -4.5150    0.8362 H       1  UNL1        0.0636
     36 H          -0.0411   -6.4682    1.7035 H       1  UNL1        0.0633
     37 H           3.8070   -4.5476    4.2080 H       1  UNL1        0.0651
     38 H           2.8811    1.7966   -0.9401 H       1  UNL1        0.1696
     39 H           5.4085    0.4399   -0.1902 H       1  UNL1        0.1732
     40 H           7.2187    4.0885   -1.9571 H       1  UNL1        0.1553
     41 H           9.4144    1.2260   -2.3561 H       1  UNL1        0.0636
     42 H          11.8529    1.2686   -2.3961 H       1  UNL1        0.0621
     43 H          13.9277    2.3435   -2.1278 H       1  UNL1        0.0278
     44 H          13.9441    3.5521   -0.8454 H       1  UNL1        0.0278
     45 H          13.9306    4.0509   -2.5608 H       1  UNL1        0.0278
     46 H           9.3419    5.3920   -1.2546 H       1  UNL1        0.0651
@<TRIPOS>BOND
     1     1     2    1
     2     2     3    2
     3     3     4    1
     4     4     5    2
     5     4     6   am
     6     6     7    1
     7     7     8   ar
     8     8     9   ar
     9     9    10   ar
    10    10    11    1
    11    10    12   ar
    12    12    13    1
    13    12    14   ar
    14     7    14   ar
    15     2    15    1
    16    15    16    1
    17    16    17   am
    18    17    18    2
    19    17    19    1
    20    19    20    2
    21    19    21   am
    22    21    22    1
    23    22    23   ar
    24    23    24   ar
    25    24    25   ar
    26    25    26    1
    27    25    27   ar
    28    27    28    1
    29    27    29   ar
    30    22    29   ar
    31     1    30    1
    32     1    31    1
    33     1    32    1
    34     3    33    1
    35     6    34    1
    36     8    35    1
    37     9    36    1
    38    14    37    1
    39    15    38    1
    40    16    39    1
    41    21    40    1
    42    23    41    1
    43    24    42    1
    44    26    43    1
    45    26    44    1
    46    26    45    1
    47    29    46    1
