REMARK  7 active torsions:
REMARK  status: ('A' for Active; 'I' for Inactive)
REMARK    1  A    between atoms: C_2  and  C_4 
REMARK    2  A    between atoms: C_4  and  C_5 
REMARK    3  A    between atoms: C_5  and  C_6 
REMARK       I    between atoms: C_6  and  N_8 
REMARK    4  A    between atoms: N_8  and  N_9 
REMARK       I    between atoms: N_9  and  C_10 
REMARK    5  A    between atoms: C_10  and  C_12 
REMARK    6  A    between atoms: C_13  and  C_14 
REMARK    7  A    between atoms: C_18  and  N_19 
ROOT
ATOM      1  N   UNL d   1       7.049   1.706  -4.065  0.00  0.00    -0.264 N 
ATOM      2  C   UNL d   1       8.421   1.763  -4.231  0.00  0.00     0.259 C 
ATOM      3  O   UNL d   1       9.216   1.394  -3.366  0.00  0.00    -0.267 OA
ATOM      4  H   UNL d   1       6.366   2.006  -4.760  0.00  0.00     0.190 HD
ENDROOT
BRANCH   2   5
ATOM      5  C   UNL d   1       8.877   2.313  -5.547  0.00  0.00     0.076 C 
ATOM      6  C   UNL d   1      10.185   2.420  -5.861  0.00  0.00     0.017 C 
BRANCH   6   7
ATOM      7  C   UNL d   1      10.670   3.015  -7.125  0.00  0.00    -0.034 A 
ATOM      8  C   UNL d   1      11.719   2.441  -7.864  0.00  0.00     0.011 A 
ATOM      9  C   UNL d   1      12.201   3.056  -9.033  0.00  0.00     0.003 A 
ATOM     10  C   UNL d   1      11.611   4.228  -9.507  0.00  0.00     0.036 A 
ATOM     11  C   UNL d   1      10.586   4.817  -8.762  0.00  0.00     0.103 A 
ATOM     12  C   UNL d   1      10.128   4.225  -7.575  0.00  0.00     0.047 A 
BRANCH  11  13
ATOM     13  N   UNL d   1       9.992   6.085  -9.200  0.00  0.00    -0.116 N 
ATOM     14  O   UNL d   1      10.409   6.585 -10.253  0.00  0.00    -0.532 OA
ATOM     15  O   UNL d   1       9.109   6.582  -8.486  0.00  0.00    -0.532 OA
ENDBRANCH  11  13
ENDBRANCH   6   7
ENDBRANCH   2   5
BRANCH   1  16
ATOM     16  N   UNL d   1       6.508   1.191  -2.854  0.00  0.00    -0.267 N 
ATOM     17  C   UNL d   1       5.130   1.130  -2.706  0.00  0.00     0.236 C 
ATOM     18  O   UNL d   1       4.365   1.512  -3.592  0.00  0.00    -0.272 OA
ATOM     19  H   UNL d   1       7.177   0.873  -2.155  0.00  0.00     0.190 HD
BRANCH  17  20
ATOM     20  C   UNL d   1       4.644   0.543  -1.379  0.00  0.00     0.105 C 
BRANCH  20  21
ATOM     21  C   UNL d   1       3.106   0.491  -1.291  0.00  0.00     0.013 C 
BRANCH  21  22
ATOM     22  C   UNL d   1       2.565  -0.106   0.025  0.00  0.00    -0.022 C 
ATOM     23  C   UNL d   1       1.031  -0.081   0.034  0.00  0.00     0.009 C 
ATOM     24  C   UNL d   1       3.041  -1.544   0.229  0.00  0.00     0.009 C 
ENDBRANCH  21  22
ENDBRANCH  20  21
ENDBRANCH  17  20
ENDBRANCH   1  16
TORSDOF 7
