@<TRIPOS>MOLECULE
*****
 41 43 0 0 0
SMALL
GASTEIGER

@<TRIPOS>ATOM
      1 N           1.0928   -0.0563   -0.1655 N.am    1  UNL1       -0.3253
      2 C           2.4526   -0.0784   -0.0725 C.2     1  UNL1        0.2415
      3 O           3.0525    0.6604    0.7073 O.2     1  UNL1       -0.2704
      4 C           3.1843   -1.0410   -0.9277 C.ar    1  UNL1        0.0365
      5 C           4.2730   -1.7264   -0.3863 C.ar    1  UNL1       -0.0489
      6 C           5.0363   -2.5757   -1.1947 C.ar    1  UNL1       -0.0489
      7 C           4.6857   -2.8085   -2.5376 C.ar    1  UNL1        0.0371
      8 C           5.4603   -3.8550   -3.2832 C.2     1  UNL1        0.2483
      9 O           6.3659   -4.4322   -2.6839 O.2     1  UNL1       -0.2699
     10 N           5.1319   -4.0987   -4.6129 N.am    1  UNL1       -0.2814
     11 C           5.7844   -5.0771   -5.3945 C.ar    1  UNL1        0.0372
     12 C           6.0709   -4.8210   -6.7345 C.ar    1  UNL1       -0.0402
     13 C           6.6808   -5.8051   -7.5211 C.ar    1  UNL1       -0.0565
     14 C           7.0062   -7.0468   -6.9668 C.ar    1  UNL1       -0.0192
     15 C           6.6953   -7.3158   -5.6319 C.ar    1  UNL1        0.1302
     16 O           7.0234   -8.5677   -5.1562 O.3     1  UNL1       -0.4560
     17 C           6.5155   -8.9794   -3.9420 C.ar    1  UNL1        0.1284
     18 C           7.4186   -9.5233   -3.0301 C.ar    1  UNL1       -0.0193
     19 C           6.9549  -10.0472   -1.8221 C.ar    1  UNL1       -0.0583
     20 C           5.6032   -9.9500   -1.4885 C.ar    1  UNL1       -0.0615
     21 C           4.7016   -9.3848   -2.3882 C.ar    1  UNL1       -0.0583
     22 C           5.1505   -8.9384   -3.6312 C.ar    1  UNL1       -0.0193
     23 C           6.1114   -6.3160   -4.8522 C.ar    1  UNL1        0.0019
     24 C           3.6081   -2.0950   -3.0791 C.ar    1  UNL1       -0.0489
     25 C           2.8612   -1.2138   -2.2782 C.ar    1  UNL1       -0.0489
     26 H           0.6002    0.5468    0.4833 H       1  UNL1        0.1453
     27 H           0.5566   -0.7415   -0.6789 H       1  UNL1        0.1453
     28 H           4.5260   -1.6087    0.6660 H       1  UNL1        0.0625
     29 H           5.9131   -3.0605   -0.7642 H       1  UNL1        0.0625
     30 H           4.5139   -3.4775   -5.1096 H       1  UNL1        0.1551
     31 H           5.9035   -3.8340   -7.1552 H       1  UNL1        0.0636
     32 H           6.9146   -5.5997   -8.5632 H       1  UNL1        0.0619
     33 H           7.5129   -7.7938   -7.5743 H       1  UNL1        0.0654
     34 H           8.4813   -9.5317   -3.2555 H       1  UNL1        0.0654
     35 H           7.6477  -10.5337   -1.1411 H       1  UNL1        0.0619
     36 H           5.2534  -10.3160   -0.5268 H       1  UNL1        0.0618
     37 H           3.6497   -9.3016   -2.1286 H       1  UNL1        0.0619
     38 H           4.4363   -8.5175   -4.3331 H       1  UNL1        0.0654
     39 H           5.8700   -6.5048   -3.8126 H       1  UNL1        0.0673
     40 H           3.3257   -2.1912   -4.1209 H       1  UNL1        0.0625
     41 H           2.0469   -0.6488   -2.7239 H       1  UNL1        0.0625
@<TRIPOS>BOND
     1     1     2   am
     2     2     3    2
     3     2     4    1
     4     4     5   ar
     5     5     6   ar
     6     6     7   ar
     7     7     8    1
     8     8     9    2
     9     8    10   am
    10    10    11    1
    11    11    12   ar
    12    12    13   ar
    13    13    14   ar
    14    14    15   ar
    15    15    16    1
    16    16    17    1
    17    17    18   ar
    18    18    19   ar
    19    19    20   ar
    20    20    21   ar
    21    21    22   ar
    22    17    22   ar
    23    15    23   ar
    24    11    23   ar
    25     7    24   ar
    26    24    25   ar
    27     4    25   ar
    28     1    26    1
    29     1    27    1
    30     5    28    1
    31     6    29    1
    32    10    30    1
    33    12    31    1
    34    13    32    1
    35    14    33    1
    36    18    34    1
    37    19    35    1
    38    20    36    1
    39    21    37    1
    40    22    38    1
    41    23    39    1
    42    24    40    1
    43    25    41    1
