@<TRIPOS>MOLECULE
*****
 43 45 0 0 0
SMALL
GASTEIGER

@<TRIPOS>ATOM
      1 N           0.9528   -0.0374   -0.0798 N.1     1  UNL1       -0.1907
      2 C           2.2137   -0.0374   -0.0798 C.1     1  UNL1        0.1045
      3 C           3.7337   -0.0374   -0.0798 C.2     1  UNL1        0.1171
      4 C           4.3687   -0.7833   -1.0161 C.2     1  UNL1        0.0031
      5 C           3.5942   -1.4536   -2.0169 C.ar    1  UNL1        0.1300
      6 C           2.5527   -0.9026   -2.7574 C.ar    1  UNL1       -0.0158
      7 C           1.8785   -1.9436   -3.3981 C.ar    1  UNL1       -0.0150
      8 C           2.6794   -3.0492   -3.2566 C.ar    1  UNL1        0.1422
      9 C           2.6498   -4.3089   -3.9834 C.ar    1  UNL1        0.0942
     10 C           2.4063   -5.5119   -3.2895 C.ar    1  UNL1       -0.0445
     11 C           2.2850   -6.7294   -3.9760 C.ar    1  UNL1       -0.0607
     12 C           2.3313   -6.7577   -5.3659 C.ar    1  UNL1       -0.0553
     13 C           2.5461   -5.5787   -6.0740 C.ar    1  UNL1        0.0163
     14 C           2.7158   -4.3551   -5.3959 C.ar    1  UNL1        0.2837
     15 N           2.9323   -3.1622   -6.2539 N.pl3   1  UNL1        0.0803
     16 O           2.8117   -3.3111   -7.4738 O.2     1  UNL1        0.0415
     17 O           3.2369   -2.0746   -5.7414 O.co2   1  UNL1       -0.5760
     18 O           3.7160   -2.7822   -2.3998 O.2     1  UNL1       -0.4552
     19 C           4.4288    0.8295    0.9271 C.2     1  UNL1        0.2587
     20 O           3.7410    1.5891    1.6098 O.2     1  UNL1       -0.2691
     21 N           5.8192    0.8123    0.9902 N.am    1  UNL1       -0.2797
     22 C           6.5622    1.3955    2.0642 C.ar    1  UNL1        0.0527
     23 C           7.8068    2.0030    1.7792 C.ar    1  UNL1       -0.0274
     24 C           8.6596    2.4400    2.8221 C.ar    1  UNL1        0.0566
     25 C          10.0894    2.8678    2.5646 C.3     1  UNL1        0.4175
     26 F          10.7931    1.8978    1.9161 F       1  UNL1       -0.1659
     27 F          10.1974    3.9886    1.8060 F       1  UNL1       -0.1659
     28 F          10.7890    3.1176    3.7094 F       1  UNL1       -0.1659
     29 C           8.2096    2.3660    4.1447 C.ar    1  UNL1       -0.0486
     30 C           6.9862    1.7767    4.4352 C.ar    1  UNL1       -0.0411
     31 C           6.1760    1.2707    3.4156 C.ar    1  UNL1        0.0622
     32 CL          4.8393    0.3131    3.9636 Cl      1  UNL1       -0.0816
     33 H           5.4449   -0.8709   -1.0862 H       1  UNL1        0.0669
     34 H           2.2486    0.1356   -2.7543 H       1  UNL1        0.0655
     35 H           1.0145   -1.8615   -4.0394 H       1  UNL1        0.0656
     36 H           2.2630   -5.5126   -2.2086 H       1  UNL1        0.0627
     37 H           2.1387   -7.6593   -3.4285 H       1  UNL1        0.0618
     38 H           2.1897   -7.6922   -5.9051 H       1  UNL1        0.0620
     39 H           2.5761   -5.6247   -7.1608 H       1  UNL1        0.0685
     40 H           6.3692    0.4379    0.2284 H       1  UNL1        0.1552
     41 H           8.1302    2.1567    0.7485 H       1  UNL1        0.0642
     42 H           8.8340    2.7150    4.9668 H       1  UNL1        0.0623
     43 H           6.6950    1.6448    5.4743 H       1  UNL1        0.0633
@<TRIPOS>UNITY_ATOM_ATTR
15 1
charge 1
17 1
charge -1
@<TRIPOS>BOND
     1     1     2    3
     2     2     3    1
     3     3     4    2
     4     4     5    1
     5     5     6   ar
     6     6     7   ar
     7     7     8   ar
     8     8     9    1
     9     9    10   ar
    10    10    11   ar
    11    11    12   ar
    12    12    13   ar
    13    13    14   ar
    14     9    14   ar
    15    14    15    1
    16    15    16    2
    17    15    17    1
    18     8    18   ar
    19     5    18   ar
    20     3    19    1
    21    19    20    2
    22    19    21   am
    23    21    22    1
    24    22    23   ar
    25    23    24   ar
    26    24    25    1
    27    25    26    1
    28    25    27    1
    29    25    28    1
    30    24    29   ar
    31    29    30   ar
    32    30    31   ar
    33    22    31   ar
    34    31    32    1
    35     4    33    1
    36     6    34    1
    37     7    35    1
    38    10    36    1
    39    11    37    1
    40    12    38    1
    41    13    39    1
    42    21    40    1
    43    23    41    1
    44    29    42    1
    45    30    43    1
