@<TRIPOS>MOLECULE
*****
 65 69 0 0 0
SMALL
GASTEIGER

@<TRIPOS>ATOM
      1 O           7.1546    1.6751    2.5309 O.2     1  UNL1       -0.2749
      2 C           6.2874    2.2284    1.8544 C.2     1  UNL1        0.2233
      3 C           4.7795    2.2093    2.1986 C.3     1  UNL1        0.0734
      4 S           4.4740    1.1777    3.7068 S.3     1  UNL1       -0.1085
      5 C           2.6707    1.3331    4.0056 C.3     1  UNL1        0.1563
      6 N           2.3395    2.7104    4.3040 N.pl3   1  UNL1       -0.3156
      7 C           2.3326    3.1582    5.6173 C.ar    1  UNL1        0.0414
      8 C           2.3073    4.5202    5.9235 C.ar    1  UNL1       -0.0400
      9 C           2.3768    4.9657    7.2557 C.ar    1  UNL1       -0.0600
     10 C           2.4518    4.0592    8.3094 C.ar    1  UNL1       -0.0609
     11 C           2.5011    2.7077    8.0247 C.ar    1  UNL1       -0.0478
     12 C           2.4762    2.2789    6.6899 C.ar    1  UNL1        0.0593
     13 C           2.5496    0.8453    6.4212 C.2     1  UNL1        0.2669
     14 O           2.8530    0.1232    7.3722 O.2     1  UNL1       -0.2683
     15 N           2.2354    0.4571    5.1172 N.am    1  UNL1       -0.1859
     16 N           2.0323   -0.9601    4.8205 N.am    1  UNL1       -0.2292
     17 C           1.4987   -1.8076    5.7909 C.2     1  UNL1        0.2296
     18 O           1.2012   -1.5144    6.9448 O.2     1  UNL1       -0.2743
     19 C           1.1702   -3.2105    5.3429 C.3     1  UNL1        0.0293
     20 C           0.8454   -4.0112    6.6182 C.3     1  UNL1       -0.0165
     21 C           0.5082   -5.4266    6.3507 C.2     1  UNL1        0.0081
     22 C           1.1323   -6.4857    6.8658 C.ar    1  UNL1        0.0509
     23 C           2.2177   -6.6410    7.7726 C.ar    1  UNL1       -0.0482
     24 C           2.6326   -7.8831    8.0562 C.ar    1  UNL1       -0.0608
     25 C           1.9998   -9.0498    7.4577 C.ar    1  UNL1       -0.0555
     26 C           0.9622   -8.9816    6.5993 C.ar    1  UNL1        0.0098
     27 C           0.4551   -7.6413    6.2593 C.ar    1  UNL1        0.2086
     28 N          -0.5003   -7.2911    5.4837 N.2     1  UNL1       -0.2369
     29 C          -0.6180   -5.8212    5.4508 C.3     1  UNL1        0.1660
     30 N           6.7014    2.8848    0.7239 N.am    1  UNL1       -0.3105
     31 C           5.9008    3.6060   -0.2442 C.3     1  UNL1        0.0369
     32 C           6.7502    4.1771   -1.3523 C.ar    1  UNL1       -0.0303
     33 C           6.8816    3.5083   -2.5785 C.ar    1  UNL1       -0.0571
     34 C           7.8332    3.9243   -3.5137 C.ar    1  UNL1       -0.0615
     35 C           8.5820    5.0757   -3.2833 C.ar    1  UNL1       -0.0617
     36 C           8.3594    5.8266   -2.1320 C.ar    1  UNL1       -0.0615
     37 C           7.4843    5.3557   -1.1502 C.ar    1  UNL1       -0.0571
     38 H           4.2461    1.7623    1.3546 H       1  UNL1        0.0472
     39 H           4.4493    3.2419    2.3496 H       1  UNL1        0.0472
     40 H           2.1446    1.0154    3.0979 H       1  UNL1        0.0847
     41 H           1.8958    3.2792    3.5972 H       1  UNL1        0.1487
     42 H           2.2584    5.2609    5.1310 H       1  UNL1        0.0636
     43 H           2.3790    6.0299    7.4749 H       1  UNL1        0.0618
     44 H           2.4831    4.3914    9.3434 H       1  UNL1        0.0618
     45 H           2.5590    1.9803    8.8331 H       1  UNL1        0.0626
     46 H           1.9524   -1.2050    3.8402 H       1  UNL1        0.1731
     47 H           2.0018   -3.6674    4.7970 H       1  UNL1        0.0362
     48 H           0.2890   -3.1602    4.6945 H       1  UNL1        0.0362
     49 H           0.0084   -3.5626    7.1707 H       1  UNL1        0.0317
     50 H           1.7088   -3.9567    7.2960 H       1  UNL1        0.0317
     51 H           2.6879   -5.7720    8.2237 H       1  UNL1        0.0626
     52 H           3.4603   -8.0338    8.7463 H       1  UNL1        0.0618
     53 H           2.4191  -10.0113    7.7477 H       1  UNL1        0.0620
     54 H           0.5224   -9.8746    6.1740 H       1  UNL1        0.0683
     55 H          -1.0742   -7.9485    4.9615 H       1  UNL1        0.4459
     56 H          -1.5967   -5.5275    5.8411 H       1  UNL1        0.1077
     57 H          -0.4712   -5.4763    4.4243 H       1  UNL1        0.1077
     58 H           7.7077    2.8503    0.5787 H       1  UNL1        0.1490
     59 H           5.3667    4.4036    0.2807 H       1  UNL1        0.0512
     60 H           5.1550    2.9116   -0.6434 H       1  UNL1        0.0512
     61 H           6.2626    2.6448   -2.8102 H       1  UNL1        0.0621
     62 H           7.9988    3.3456   -4.4195 H       1  UNL1        0.0618
     63 H           9.3362    5.3891   -4.0014 H       1  UNL1        0.0618
     64 H           8.8873    6.7664   -1.9883 H       1  UNL1        0.0618
     65 H           7.3914    5.9096   -0.2185 H       1  UNL1        0.0621
@<TRIPOS>UNITY_ATOM_ATTR
28 1
charge 1
@<TRIPOS>BOND
     1     1     2    2
     2     2     3    1
     3     3     4    1
     4     5     6    1
     5     6     7    1
     6     7     8   ar
     7     8     9   ar
     8     9    10   ar
     9    10    11   ar
    10    11    12   ar
    11     7    12   ar
    12    12    13    1
    13    13    14    2
    14    13    15   am
    15     5    15    1
    16    15    16    1
    17    16    17   am
    18    17    18    2
    19    17    19    1
    20    19    20    1
    21    20    21    1
    22    21    22    2
    23    22    23   ar
    24    23    24   ar
    25    24    25   ar
    26    25    26   ar
    27    26    27   ar
    28    22    27   ar
    29    27    28    2
    30    28    29    1
    31    21    29    1
    32     2    30   am
    33    30    31    1
    34    31    32    1
    35    32    33   ar
    36    33    34   ar
    37    34    35   ar
    38    35    36   ar
    39    36    37   ar
    40    32    37   ar
    41     5     4    1
    42     3    38    1
    43     3    39    1
    44     5    40    1
    45     6    41    1
    46     8    42    1
    47     9    43    1
    48    10    44    1
    49    11    45    1
    50    16    46    1
    51    19    47    1
    52    19    48    1
    53    20    49    1
    54    20    50    1
    55    23    51    1
    56    24    52    1
    57    25    53    1
    58    26    54    1
    59    28    55    1
    60    29    56    1
    61    29    57    1
    62    30    58    1
    63    31    59    1
    64    31    60    1
    65    33    61    1
    66    34    62    1
    67    35    63    1
    68    36    64    1
    69    37    65    1
