@<TRIPOS>MOLECULE
*****
 53 55 0 0 0
SMALL
GASTEIGER

@<TRIPOS>ATOM
      1 C           0.9651   -0.0225   -0.0030 C.3     1  UNL1        0.0788
      2 O           2.3914   -0.1270   -0.1130 O.3     1  UNL1       -0.4950
      3 C           2.9644    0.8453   -0.8891 C.ar    1  UNL1        0.1237
      4 C           4.0841    0.5418   -1.6613 C.ar    1  UNL1       -0.0180
      5 C           4.7247    1.5460   -2.4345 C.ar    1  UNL1       -0.0334
      6 C           4.2342    2.8692   -2.4618 C.ar    1  UNL1        0.0758
      7 N           4.8289    3.8431   -3.3657 N.am    1  UNL1       -0.2819
      8 C           4.2664    5.0998   -3.6532 C.2     1  UNL1        0.2276
      9 O           3.1764    5.4684   -3.2527 O.2     1  UNL1       -0.2746
     10 C           4.9947    6.0553   -4.6219 C.3     1  UNL1        0.0779
     11 S           4.0680    7.7015   -4.4182 S.3     1  UNL1       -0.0766
     12 C           4.7222    8.7665   -5.6325 C.ar    1  UNL1        0.1914
     13 N           5.5086    8.2247   -6.5439 N.ar    1  UNL1       -0.2067
     14 C           6.0995    9.0062   -7.4520 C.ar    1  UNL1        0.1291
     15 N           6.9770    8.2212   -8.1804 N.pl3   1  UNL1       -0.3425
     16 C           5.7468   10.3987   -7.5419 C.ar    1  UNL1        0.0504
     17 C           5.9569   11.5518   -8.4695 C.ar    1  UNL1       -0.0276
     18 C           6.6297   11.6101   -9.8385 C.3     1  UNL1       -0.0241
     19 C           7.0501   10.2509  -10.3391 C.3     1  UNL1       -0.0427
     20 C           5.8102    9.3468  -10.5711 C.3     1  UNL1       -0.0624
     21 C           7.9212   10.1633  -11.5713 C.3     1  UNL1       -0.0624
     22 C           5.3840   12.7137   -7.9680 C.ar    1  UNL1       -0.0184
     23 S           4.5301   12.4709   -6.5242 S.2     1  UNL1       -0.0767
     24 C           4.9055   10.8123   -6.5123 C.ar    1  UNL1        0.1146
     25 N           4.3924   10.0515   -5.5383 N.ar    1  UNL1       -0.2145
     26 C           3.1747    3.1569   -1.5735 C.ar    1  UNL1        0.1447
     27 O           2.8910    4.4553   -1.2866 O.3     1  UNL1       -0.4931
     28 C           1.6562    4.8134   -0.6948 C.3     1  UNL1        0.0789
     29 C           2.5406    2.1576   -0.8380 C.ar    1  UNL1        0.0236
     30 H           0.6186   -0.7549    0.7309 H       1  UNL1        0.0660
     31 H           0.5108   -0.2489   -0.9718 H       1  UNL1        0.0660
     32 H           0.6046    0.9476    0.3574 H       1  UNL1        0.0660
     33 H           4.4548   -0.4820   -1.6724 H       1  UNL1        0.0655
     34 H           5.6173    1.2614   -2.9873 H       1  UNL1        0.0638
     35 H           5.5905    3.5116   -3.9421 H       1  UNL1        0.1549
     36 H           4.8836    5.6629   -5.6389 H       1  UNL1        0.0475
     37 H           6.0461    6.1894   -4.3576 H       1  UNL1        0.0475
     38 H           6.6258    7.2738   -8.2499 H       1  UNL1        0.1437
     39 H           7.3499    8.5147   -9.0490 H       1  UNL1        0.1437
     40 H           7.5077   12.2647   -9.7522 H       1  UNL1        0.0316
     41 H           5.9579   12.0732  -10.5722 H       1  UNL1        0.0316
     42 H           7.7666    9.9787   -9.5623 H       1  UNL1        0.0299
     43 H           5.2225    9.6964  -11.4222 H       1  UNL1        0.0232
     44 H           5.0965    9.3256   -9.7430 H       1  UNL1        0.0232
     45 H           6.0975    8.3059  -10.7579 H       1  UNL1        0.0232
     46 H           7.3732   10.4675  -12.4615 H       1  UNL1        0.0232
     47 H           8.2398    9.1174  -11.6921 H       1  UNL1        0.0232
     48 H           8.8269   10.7637  -11.4580 H       1  UNL1        0.0232
     49 H           5.4035   13.7015   -8.4145 H       1  UNL1        0.0697
     50 H           1.4968    5.8774   -0.8887 H       1  UNL1        0.0660
     51 H           1.7516    4.6710    0.3828 H       1  UNL1        0.0660
     52 H           0.7920    4.2704   -1.0981 H       1  UNL1        0.0660
     53 H           1.7517    2.4420   -0.1600 H       1  UNL1        0.0691
@<TRIPOS>BOND
     1     1     2    1
     2     2     3    1
     3     3     4   ar
     4     4     5   ar
     5     5     6   ar
     6     6     7    1
     7     7     8   am
     8     8     9    2
     9     8    10    1
    10    10    11    1
    11    11    12    1
    12    12    13   ar
    13    13    14   ar
    14    14    15    1
    15    14    16   ar
    16    16    17   ar
    17    17    18    1
    18    18    19    1
    19    19    20    1
    20    19    21    1
    21    17    22   ar
    22    22    23   ar
    23    23    24   ar
    24    16    24   ar
    25    24    25   ar
    26    12    25   ar
    27     6    26   ar
    28    26    27    1
    29    27    28    1
    30    26    29   ar
    31     3    29   ar
    32     1    30    1
    33     1    31    1
    34     1    32    1
    35     4    33    1
    36     5    34    1
    37     7    35    1
    38    10    36    1
    39    10    37    1
    40    15    38    1
    41    15    39    1
    42    18    40    1
    43    18    41    1
    44    19    42    1
    45    20    43    1
    46    20    44    1
    47    20    45    1
    48    21    46    1
    49    21    47    1
    50    21    48    1
    51    22    49    1
    52    28    50    1
    53    28    51    1
    54    28    52    1
    55    29    53    1
