REMARK  2 active torsions:
REMARK  status: ('A' for Active; 'I' for Inactive)
REMARK       I    between atoms: C_2  and  N_3 
REMARK    1  A    between atoms: C_2  and  C_11 
REMARK    2  A    between atoms: N_3  and  C_4 
ROOT
ATOM      1  O   UNL d   1       0.822  -0.043   0.022  0.00  0.00    -0.267 OA
ATOM      2  C   UNL d   1       2.051  -0.020   0.070  0.00  0.00     0.266 C 
ATOM      3  N   UNL d   1       2.814  -1.202   0.114  0.00  0.00    -0.322 N 
ATOM      4  H   UNL d   1       3.779  -1.093   0.394  0.00  0.00     0.169 HD
ENDROOT
BRANCH   2   5
ATOM      5  C   UNL d   1       2.841   1.200   0.068  0.00  0.00     0.111 A 
ATOM      6  S   UNL d   1       4.178   1.289  -1.002  0.00  0.00    -0.081 SA
ATOM      7  C   UNL d   1       4.501   2.923  -0.595  0.00  0.00     0.019 A 
ATOM      8  C   UNL d   1       5.526   3.719  -1.136  0.00  0.00     0.020 A 
ATOM      9  C   UNL d   1       3.615   3.410   0.368  0.00  0.00     0.019 A 
ATOM     10  C   UNL d   1       5.669   5.031  -0.687  0.00  0.00     0.001 A 
ATOM     11  C   UNL d   1       4.807   5.546   0.272  0.00  0.00     0.001 A 
ATOM     12  C   UNL d   1       3.783   4.753   0.797  0.00  0.00     0.016 A 
ATOM     13  C   UNL d   1       2.675   2.393   0.741  0.00  0.00     0.141 A 
ATOM     14  O   UNL d   1       1.744   2.595   1.660  0.00  0.00    -0.190 OA
ENDBRANCH   2   5
BRANCH   3  15
ATOM     15  C   UNL d   1       2.199  -2.464   0.147  0.00  0.00     0.035 A 
ATOM     16  C   UNL d   1       1.100  -2.720  -0.679  0.00  0.00     0.031 A 
ATOM     17  C   UNL d   1       0.409  -3.923  -0.596  0.00  0.00     0.026 A 
ATOM     18  C   UNL d   1       0.822  -4.882   0.320  0.00  0.00     0.034 A 
ATOM     19 CL   UNL d   1      -0.061  -6.352   0.457  0.00  0.00    -0.084 Cl
ATOM     20  C   UNL d   1       1.942  -4.656   1.126  0.00  0.00     0.026 A 
ATOM     21  C   UNL d   1       2.651  -3.452   1.024  0.00  0.00     0.031 A 
ENDBRANCH   3  15
TORSDOF 2
