@<TRIPOS>MOLECULE
*****
 45 45 0 0 0
SMALL
GASTEIGER

@<TRIPOS>ATOM
      1 C           1.0172   -0.0701    0.0370 C.3     1  UNL1       -0.0639
      2 C           2.5465   -0.0534    0.0260 C.3     1  UNL1       -0.0402
      3 C           3.1061    1.1347   -0.7706 C.3     1  UNL1        0.0128
      4 N           4.5713    1.2016   -0.8124 N.am    1  UNL1       -0.2982
      5 C           5.2296    2.2075   -1.4941 C.2     1  UNL1        0.3160
      6 O           4.6398    3.1081   -2.0979 O.2     1  UNL1       -0.2513
      7 N           6.6144    2.1357   -1.4559 N.am    1  UNL1       -0.2181
      8 N           7.3920    3.1133   -2.1635 N.am    1  UNL1       -0.2301
      9 C           8.7913    3.0768   -2.1163 C.2     1  UNL1        0.2696
     10 O           9.3753    2.1728   -1.5134 O.2     1  UNL1       -0.2702
     11 C           9.5501    4.2444   -2.8690 C.3     1  UNL1        0.1741
     12 C           9.0269    5.5586   -2.2806 C.3     1  UNL1       -0.0190
     13 O          10.9963    4.0597   -2.7872 O.3     1  UNL1       -0.4798
     14 C          11.8563    4.9796   -3.3402 C.ar    1  UNL1        0.1218
     15 C          12.9965    4.5491   -4.0305 C.ar    1  UNL1       -0.0165
     16 C          13.9518    5.4848   -4.5043 C.ar    1  UNL1       -0.0165
     17 C          13.7311    6.8599   -4.3783 C.ar    1  UNL1        0.1207
     18 O          14.6377    7.7197   -4.9426 O.3     1  UNL1       -0.4922
     19 C          14.2813    9.1108   -4.8846 C.3     1  UNL1        0.0868
     20 C          15.3129    9.9301   -5.6316 C.3     1  UNL1       -0.0307
     21 C          12.6244    7.2743   -3.6600 C.ar    1  UNL1       -0.0165
     22 C          11.7620    6.3418   -3.0920 C.ar    1  UNL1       -0.0165
     23 H           0.6425   -0.9258    0.6111 H       1  UNL1        0.0230
     24 H           0.6129   -0.1497   -0.9777 H       1  UNL1        0.0230
     25 H           0.6127    0.8386    0.4952 H       1  UNL1        0.0230
     26 H           2.9050   -0.9974   -0.4010 H       1  UNL1        0.0278
     27 H           2.9048   -0.0164    1.0615 H       1  UNL1        0.0278
     28 H           2.7398    2.0729   -0.3375 H       1  UNL1        0.0462
     29 H           2.7415    1.0887   -1.8037 H       1  UNL1        0.0462
     30 H           5.1049    0.4869   -0.3393 H       1  UNL1        0.1503
     31 H           7.1375    1.4152   -0.9671 H       1  UNL1        0.1744
     32 H           6.8491    3.8424   -2.6242 H       1  UNL1        0.1729
     33 H           9.2751    4.1766   -3.9291 H       1  UNL1        0.0829
     34 H           9.4351    5.7180   -1.2750 H       1  UNL1        0.0270
     35 H           7.9397    5.6085   -2.2208 H       1  UNL1        0.0270
     36 H           9.2797    6.4100   -2.9169 H       1  UNL1        0.0270
     37 H          13.1788    3.4881   -4.1913 H       1  UNL1        0.0655
     38 H          14.8754    5.1337   -4.9616 H       1  UNL1        0.0655
     39 H          14.2595    9.4514   -3.8416 H       1  UNL1        0.0694
     40 H          13.3008    9.2788   -5.3505 H       1  UNL1        0.0694
     41 H          16.3081    9.7677   -5.2084 H       1  UNL1        0.0262
     42 H          15.0732   10.9969   -5.5743 H       1  UNL1        0.0262
     43 H          15.3488    9.6337   -6.6839 H       1  UNL1        0.0262
     44 H          12.4088    8.3178   -3.4645 H       1  UNL1        0.0655
     45 H          11.0617    6.7562   -2.3883 H       1  UNL1        0.0655
@<TRIPOS>BOND
     1     1     2    1
     2     2     3    1
     3     3     4    1
     4     4     5   am
     5     5     6    2
     6     5     7   am
     7     7     8    1
     8     8     9   am
     9     9    10    2
    10     9    11    1
    11    11    12    1
    12    11    13    1
    13    13    14    1
    14    14    15   ar
    15    15    16   ar
    16    16    17   ar
    17    17    18    1
    18    18    19    1
    19    19    20    1
    20    17    21   ar
    21    21    22   ar
    22    14    22   ar
    23     1    23    1
    24     1    24    1
    25     1    25    1
    26     2    26    1
    27     2    27    1
    28     3    28    1
    29     3    29    1
    30     4    30    1
    31     7    31    1
    32     8    32    1
    33    11    33    1
    34    12    34    1
    35    12    35    1
    36    12    36    1
    37    15    37    1
    38    16    38    1
    39    19    39    1
    40    19    40    1
    41    20    41    1
    42    20    42    1
    43    20    43    1
    44    21    44    1
    45    22    45    1
