@<TRIPOS>MOLECULE
*****
 33 34 0 0 0
SMALL
GASTEIGER

@<TRIPOS>ATOM
      1 C           2.4993    1.2148   -0.0002 C.3     1  UNL1       -0.0396
      2 C           1.2590    0.3752    0.0052 C.ar    1  UNL1       -0.0469
      3 C           1.3304   -1.0113    0.0207 C.ar    1  UNL1       -0.0569
      4 C           0.1614   -1.7788   -0.0017 C.ar    1  UNL1       -0.0366
      5 C          -1.1197   -1.2077   -0.0316 C.ar    1  UNL1        0.0756
      6 N          -2.2940   -2.0301   -0.0800 N.am    1  UNL1       -0.2786
      7 C          -2.2928   -3.4256   -0.0788 C.2     1  UNL1        0.2483
      8 O          -1.3129   -4.1678   -0.0318 O.2     1  UNL1       -0.2699
      9 C          -3.5997   -4.1268   -0.1034 C.ar    1  UNL1        0.0374
     10 C          -3.7494   -5.2603    0.7163 C.ar    1  UNL1       -0.0469
     11 C          -4.9326   -5.9970    0.6955 C.ar    1  UNL1       -0.0255
     12 C          -5.9535   -5.6190   -0.1666 C.ar    1  UNL1        0.1263
     13 F          -7.0860   -6.3364   -0.1744 F       1  UNL1       -0.2052
     14 C          -5.8117   -4.5200   -1.0224 C.ar    1  UNL1       -0.0146
     15 C          -6.9079   -4.1553   -1.9763 C.3     1  UNL1       -0.0370
     16 C          -4.6206   -3.7713   -0.9903 C.ar    1  UNL1       -0.0440
     17 C          -1.1765    0.1990   -0.0206 C.ar    1  UNL1        0.1382
     18 O          -2.3284    0.9395   -0.0246 O.3     1  UNL1       -0.5049
     19 C          -0.0037    0.9742   -0.0092 C.ar    1  UNL1       -0.0154
     20 H           3.4059    0.5996    0.0032 H       1  UNL1        0.0278
     21 H           2.5228    1.8547    0.8869 H       1  UNL1        0.0278
     22 H           2.5229    1.8394   -0.8988 H       1  UNL1        0.0278
     23 H           2.2878   -1.5274    0.0440 H       1  UNL1        0.0621
     24 H           0.3165   -2.8500    0.0020 H       1  UNL1        0.0637
     25 H          -3.1926   -1.5726   -0.0803 H       1  UNL1        0.1552
     26 H          -2.9321   -5.5819    1.3609 H       1  UNL1        0.0626
     27 H          -5.0608   -6.8659    1.3342 H       1  UNL1        0.0646
     28 H          -7.7798   -4.8077   -1.8622 H       1  UNL1        0.0278
     29 H          -6.5563   -4.2439   -3.0090 H       1  UNL1        0.0278
     30 H          -7.2340   -3.1280   -1.7886 H       1  UNL1        0.0278
     31 H          -4.4778   -2.9539   -1.6920 H       1  UNL1        0.0629
     32 H          -3.0977    0.3634    0.0395 H       1  UNL1        0.2922
     33 H          -0.0778    2.0600   -0.0137 H       1  UNL1        0.0657
@<TRIPOS>BOND
     1     1     2    1
     2     2     3   ar
     3     3     4   ar
     4     4     5   ar
     5     5     6    1
     6     6     7   am
     7     7     8    2
     8     7     9    1
     9     9    10   ar
    10    10    11   ar
    11    11    12   ar
    12    12    13    1
    13    12    14   ar
    14    14    15    1
    15    14    16   ar
    16     9    16   ar
    17     5    17   ar
    18    17    18    1
    19    17    19   ar
    20     2    19   ar
    21     1    20    1
    22     1    21    1
    23     1    22    1
    24     3    23    1
    25     4    24    1
    26     6    25    1
    27    10    26    1
    28    11    27    1
    29    15    28    1
    30    15    29    1
    31    15    30    1
    32    16    31    1
    33    18    32    1
    34    19    33    1
