REMARK  5 active torsions:
REMARK  status: ('A' for Active; 'I' for Inactive)
REMARK    1  A    between atoms: C_4  and  S_5 
REMARK    2  A    between atoms: S_5  and  C_6 
REMARK    3  A    between atoms: C_12  and  N_13 
REMARK    4  A    between atoms: N_13  and  C_14 
REMARK    5  A    between atoms: C_14  and  C_16 
REMARK       I    between atoms: C_16  and  N_18 
REMARK       I    between atoms: N_18  and  C_19 
REMARK       I    between atoms: C_19  and  N_20 
ROOT
ATOM      1  N   UNL d   1       1.084   2.412   0.045  0.00  0.00    -0.377 N 
ATOM      2  H   UNL d   1       0.528   3.266  -0.030  0.00  0.00     0.160 HD
ENDROOT
BRANCH   1   3
ATOM      3  C   UNL d   1       0.437   1.190   0.037  0.00  0.00     0.034 A 
ATOM      4  C   UNL d   1      -0.962   1.232  -0.001  0.00  0.00     0.031 A 
ATOM      5  C   UNL d   1      -1.728   0.068  -0.018  0.00  0.00     0.021 A 
ATOM      6  C   UNL d   1      -1.148  -1.192  -0.013  0.00  0.00     0.002 A 
ATOM      7  C   UNL d   1       0.244  -1.245   0.022  0.00  0.00     0.027 A 
ATOM      8  C   UNL d   1       1.047  -0.086   0.089  0.00  0.00    -0.034 A 
ATOM      9  C   UNL d   1       2.519  -0.362   0.281  0.00  0.00     0.050 C 
BRANCH   6  10
ATOM     10  S   UNL d   1      -1.990  -2.767  -0.005  0.00  0.00    -0.121 SA
BRANCH  10  11
ATOM     11  C   UNL d   1      -3.800  -2.399  -0.001  0.00  0.00     0.002 C 
ATOM     12  C   UNL d   1      -4.212  -1.659   1.280  0.00  0.00     0.026 C 
ATOM     13  C   UNL d   1      -4.208  -1.684  -1.297  0.00  0.00     0.026 C 
ATOM     14  C   UNL d   1      -4.528  -3.760   0.012  0.00  0.00     0.026 C 
ENDBRANCH  10  11
ENDBRANCH   6  10
ENDBRANCH   1   3
BRANCH   1  15
ATOM     15  C   UNL d   1       2.519   2.595  -0.119  0.00  0.00     0.170 C 
ATOM     16  C   UNL d   1       2.975   2.077  -1.483  0.00  0.00     0.042 C 
BRANCH  15  17
ATOM     17  C   UNL d   1       2.892   4.077  -0.027  0.00  0.00     0.247 C 
ATOM     18  O   UNL d   1       2.035   4.960   0.012  0.00  0.00    -0.271 OA
ATOM     19  N   UNL d   1       4.261   4.320   0.005  0.00  0.00    -0.278 N 
ATOM     20  C   UNL d   1       4.859   5.545  -0.004  0.00  0.00     0.320 C 
ATOM     21  H   UNL d   1       4.921   3.554   0.003  0.00  0.00     0.173 HD
ATOM     22  N   UNL d   1       4.039   6.611  -0.023  0.00  0.00    -0.352 N 
ATOM     23  O   UNL d   1       6.087   5.663  -0.005  0.00  0.00    -0.247 OA
ATOM     24  H   UNL d   1       3.030   6.467  -0.009  0.00  0.00     0.160 HD
ATOM     25  H   UNL d   1       4.404   7.550  -0.021  0.00  0.00     0.160 HD
ENDBRANCH  15  17
ENDBRANCH   1  15
TORSDOF 5
