@<TRIPOS>MOLECULE
*****
 54 55 0 0 0
SMALL
GASTEIGER

@<TRIPOS>ATOM
      1 C           1.2264    0.1322    0.3878 C.3     1  UNL1       -0.0467
      2 C           2.6806   -0.0680    0.0761 C.3     1  UNL1        0.0208
      3 C           3.1659   -0.9436    1.2271 C.3     1  UNL1       -0.0467
      4 N           3.0723   -0.6525   -1.2314 N.am    1  UNL1       -0.2933
      5 C           2.0832   -1.1528   -2.3157 C.3     1  UNL1        0.0400
      6 C           0.5798   -0.8989   -2.1721 C.ar    1  UNL1       -0.0301
      7 C          -0.0001    0.3883   -2.1647 C.ar    1  UNL1       -0.0571
      8 C          -1.1948    0.5992   -1.4367 C.ar    1  UNL1       -0.0615
      9 C          -1.9139   -0.4786   -0.9204 C.ar    1  UNL1       -0.0617
     10 C          -1.4508   -1.7732   -1.1378 C.ar    1  UNL1       -0.0615
     11 C          -0.2169   -1.9831   -1.7633 C.ar    1  UNL1       -0.0571
     12 C           4.5098   -0.8217   -1.2914 C.2     1  UNL1        0.2332
     13 O           5.2973   -0.2762   -0.5010 O.2     1  UNL1       -0.2739
     14 C           5.0454   -1.5101   -2.5063 C.3     1  UNL1        0.0860
     15 N           6.4778   -1.4567   -2.7974 N.pl3   1  UNL1       -0.3338
     16 C           7.0918   -1.7736   -4.0218 C.ar    1  UNL1        0.0551
     17 C           8.2522   -2.5868   -3.8711 C.ar    1  UNL1        0.0382
     18 C           9.0412   -2.9722   -4.9698 C.ar    1  UNL1        0.2750
     19 N          10.3361   -3.6350   -4.7570 N.pl3   1  UNL1        0.0797
     20 O          10.6873   -3.8796   -3.6036 O.2     1  UNL1        0.0414
     21 O          11.0239   -3.8827   -5.7708 O.co2   1  UNL1       -0.5760
     22 C           8.6496   -2.6507   -6.2607 C.ar    1  UNL1        0.0174
     23 C           7.5353   -1.8375   -6.4406 C.ar    1  UNL1       -0.0326
     24 C           6.7491   -1.3521   -5.3617 C.ar    1  UNL1        0.0488
     25 N           5.8436   -0.3291   -5.7874 N.pl3   1  UNL1       -0.3402
     26 C           4.8415    0.0638   -4.8512 C.3     1  UNL1        0.0323
     27 C           3.6787    0.9688   -5.1897 C.3     1  UNL1        0.0596
     28 O           3.0684    1.5494   -4.0209 O.3     1  UNL1       -0.3935
     29 H           0.9842    0.4415    1.4034 H       1  UNL1        0.0247
     30 H           0.7061   -0.8156    0.2561 H       1  UNL1        0.0247
     31 H           0.8916    0.9657   -0.2122 H       1  UNL1        0.0247
     32 H           3.1489    0.9260    0.1129 H       1  UNL1        0.0495
     33 H           2.7935   -1.9632    1.0870 H       1  UNL1        0.0247
     34 H           2.7973   -0.5499    2.1770 H       1  UNL1        0.0247
     35 H           4.2493   -0.9876    1.3112 H       1  UNL1        0.0247
     36 H           2.2589   -2.2321   -2.3946 H       1  UNL1        0.0514
     37 H           2.3716   -0.7980   -3.3094 H       1  UNL1        0.0514
     38 H           0.5851    1.2707   -2.4322 H       1  UNL1        0.0621
     39 H          -1.4482    1.6055   -1.0920 H       1  UNL1        0.0618
     40 H          -2.7839   -0.3090   -0.2887 H       1  UNL1        0.0618
     41 H          -1.9786   -2.6172   -0.7019 H       1  UNL1        0.0618
     42 H           0.1916   -2.9901   -1.7817 H       1  UNL1        0.0621
     43 H           4.5970   -0.7301   -3.0441 H       1  UNL1        0.0557
     44 H           4.5732   -2.4504   -2.7802 H       1  UNL1        0.0557
     45 H           7.0395   -0.9132   -2.1386 H       1  UNL1        0.1466
     46 H           8.5333   -2.9197   -2.8713 H       1  UNL1        0.0704
     47 H           9.2192   -2.9722   -7.1308 H       1  UNL1        0.0686
     48 H           7.3035   -1.5205   -7.4564 H       1  UNL1        0.0639
     49 H           5.5048   -0.4541   -6.7356 H       1  UNL1        0.1462
     50 H           5.3782    0.5570   -4.0309 H       1  UNL1        0.0484
     51 H           4.3241   -0.8852   -4.6667 H       1  UNL1        0.0484
     52 H           2.9071    0.3849   -5.7005 H       1  UNL1        0.0573
     53 H           4.0103    1.7960   -5.8045 H       1  UNL1        0.0573
     54 H           3.0224    0.9280   -3.2762 H       1  UNL1        0.2095
@<TRIPOS>UNITY_ATOM_ATTR
19 1
charge 1
21 1
charge -1
@<TRIPOS>BOND
     1     1     2    1
     2     2     3    1
     3     2     4    1
     4     4     5    1
     5     5     6    1
     6     6     7   ar
     7     7     8   ar
     8     8     9   ar
     9     9    10   ar
    10    10    11   ar
    11     6    11   ar
    12     4    12   am
    13    12    13    2
    14    12    14    1
    15    14    15    1
    16    15    16    1
    17    16    17   ar
    18    17    18   ar
    19    18    19    1
    20    19    20    2
    21    19    21    1
    22    18    22   ar
    23    22    23   ar
    24    23    24   ar
    25    16    24   ar
    26    24    25    1
    27    25    26    1
    28    26    27    1
    29    27    28    1
    30     1    29    1
    31     1    30    1
    32     1    31    1
    33     2    32    1
    34     3    33    1
    35     3    34    1
    36     3    35    1
    37     5    36    1
    38     5    37    1
    39     7    38    1
    40     8    39    1
    41     9    40    1
    42    10    41    1
    43    11    42    1
    44    14    43    1
    45    14    44    1
    46    15    45    1
    47    17    46    1
    48    22    47    1
    49    23    48    1
    50    25    49    1
    51    26    50    1
    52    26    51    1
    53    27    52    1
    54    27    53    1
    55    28    54    1
