REMARK  5 active torsions:
REMARK  status: ('A' for Active; 'I' for Inactive)
REMARK    1  A    between atoms: C_3  and  C_4 
REMARK       I    between atoms: C_4  and  N_6 
REMARK    2  A    between atoms: N_6  and  N_7 
REMARK       I    between atoms: N_7  and  C_8 
REMARK       I    between atoms: C_8  and  N_10 
REMARK    3  A    between atoms: N_10  and  C_11 
REMARK    4  A    between atoms: C_11  and  C_12 
REMARK    5  A    between atoms: C_16  and  N_17 
ROOT
ATOM      1  N   UNL d   1       5.876   1.152   0.074  0.00  0.00    -0.249 N 
ATOM      2  C   UNL d   1       6.869   0.169   0.071  0.00  0.00     0.335 C 
ATOM      3  O   UNL d   1       6.613  -1.033   0.061  0.00  0.00    -0.246 OA
ATOM      4  N   UNL d   1       8.139   0.671   0.067  0.00  0.00    -0.338 N 
ATOM      5  H   UNL d   1       6.032   2.155   0.070  0.00  0.00     0.192 HD
ATOM      6  H   UNL d   1       8.197   1.664   0.187  0.00  0.00     0.164 HD
ENDROOT
BRANCH   1   7
ATOM      7  N   UNL d   1       4.534   0.703   0.041  0.00  0.00    -0.260 N 
ATOM      8  C   UNL d   1       3.404   1.525   0.031  0.00  0.00     0.294 C 
ATOM      9  O   UNL d   1       3.545   2.755   0.043  0.00  0.00    -0.264 OA
ATOM     10  H   UNL d   1       4.494  -0.299   0.002  0.00  0.00     0.190 HD
BRANCH   8  11
ATOM     11  C   UNL d   1       2.079   0.850   0.007  0.00  0.00     0.152 A 
ATOM     12  C   UNL d   1       1.673  -0.489   0.004  0.00  0.00    -0.009 A 
ATOM     13  C   UNL d   1       2.459  -1.743   0.040  0.00  0.00     0.052 C 
ATOM     14  C   UNL d   1       0.238  -0.505  -0.016  0.00  0.00     0.007 A 
ATOM     15  C   UNL d   1      -0.735  -1.530  -0.026  0.00  0.00     0.015 A 
ATOM     16  C   UNL d   1      -0.178   0.814  -0.001  0.00  0.00     0.087 A 
ATOM     17  C   UNL d   1      -2.093  -1.197  -0.003  0.00  0.00     0.001 A 
ATOM     18  C   UNL d   1      -2.486   0.140   0.023  0.00  0.00     0.003 A 
ATOM     19  C   UNL d   1      -1.534   1.180   0.018  0.00  0.00     0.038 A 
ATOM     20  O   UNL d   1       0.924   1.637   0.002  0.00  0.00    -0.304 OA
ENDBRANCH   8  11
ENDBRANCH   1   7
BRANCH   4  21
ATOM     21  C   UNL d   1       9.359  -0.150   0.080  0.00  0.00     0.163 C 
BRANCH  21  22
ATOM     22  C   UNL d   1      10.660   0.645   0.125  0.00  0.00    -0.038 A 
ATOM     23  C   UNL d   1      11.906   0.004   0.279  0.00  0.00     0.009 A 
ATOM     24  C   UNL d   1      13.087   0.746   0.468  0.00  0.00     0.003 A 
ATOM     25  C   UNL d   1      13.061   2.142   0.438  0.00  0.00     0.036 A 
ATOM     26  C   UNL d   1      11.840   2.784   0.243  0.00  0.00     0.103 A 
ATOM     27  C   UNL d   1      10.664   2.045   0.070  0.00  0.00     0.045 A 
BRANCH  26  28
ATOM     28  N   UNL d   1      11.740   4.247   0.280  0.00  0.00    -0.116 N 
ATOM     29  O   UNL d   1      12.782   4.894   0.446  0.00  0.00    -0.532 OA
ATOM     30  O   UNL d   1      10.611   4.748   0.162  0.00  0.00    -0.532 OA
ENDBRANCH  26  28
ENDBRANCH  21  22
ENDBRANCH   4  21
TORSDOF 5
