REMARK  6 active torsions:
REMARK  status: ('A' for Active; 'I' for Inactive)
REMARK    1  A    between atoms: O_2  and  C_3 
REMARK    2  A    between atoms: C_3  and  C_5 
REMARK    3  A    between atoms: C_8  and  C_9 
REMARK    4  A    between atoms: C_12  and  C_13 
REMARK       I    between atoms: C_13  and  N_15 
REMARK    5  A    between atoms: N_15  and  C_16 
REMARK    6  A    between atoms: C_20  and  N_21 
REMARK       I    between atoms: N_21  and  C_22 
REMARK       I    between atoms: C_22  and  N_23 
ROOT
ATOM      1  C   UNL d   1      13.268   0.379  -1.570  0.00  0.00     0.256 C 
ATOM      2  O   UNL d   1      13.798   1.290  -0.934  0.00  0.00    -0.267 OA
ATOM      3  N   UNL d   1      13.969  -0.584  -2.312  0.00  0.00    -0.323 N 
ATOM      4  H   UNL d   1      13.477  -1.276  -2.855  0.00  0.00     0.169 HD
ENDROOT
BRANCH   1   5
ATOM      5  C   UNL d   1      11.774   0.331  -1.542  0.00  0.00     0.032 A 
ATOM      6  C   UNL d   1      11.086   1.340  -0.843  0.00  0.00     0.018 A 
ATOM      7  C   UNL d   1       9.693   1.293  -0.699  0.00  0.00     0.013 A 
ATOM      8  C   UNL d   1       8.939   0.287  -1.321  0.00  0.00    -0.026 A 
ATOM      9  C   UNL d   1       9.633  -0.705  -2.029  0.00  0.00     0.013 A 
ATOM     10  C   UNL d   1      11.031  -0.687  -2.138  0.00  0.00     0.018 A 
BRANCH   8  11
ATOM     11  C   UNL d   1       7.466   0.305  -1.269  0.00  0.00    -0.026 A 
ATOM     12  C   UNL d   1       6.757   1.426  -1.733  0.00  0.00     0.013 A 
ATOM     13  C   UNL d   1       5.364   1.508  -1.606  0.00  0.00     0.018 A 
ATOM     14  C   UNL d   1       4.641   0.430  -1.083  0.00  0.00     0.039 A 
ATOM     15  C   UNL d   1       5.326  -0.712  -0.659  0.00  0.00     0.018 A 
ATOM     16  C   UNL d   1       6.726  -0.773  -0.756  0.00  0.00     0.013 A 
BRANCH  14  17
ATOM     17  C   UNL d   1       3.154   0.473  -1.139  0.00  0.00     0.292 C 
ATOM     18  O   UNL d   1       2.551   0.954  -2.076  0.00  0.00    -0.259 OA
BRANCH  17  19
ATOM     19  O   UNL d   1       2.598  -0.076  -0.024  0.00  0.00    -0.323 OA
ATOM     20  C   UNL d   1       1.163  -0.058  -0.029  0.00  0.00     0.213 C 
ENDBRANCH  17  19
ENDBRANCH  14  17
ENDBRANCH   8  11
ENDBRANCH   1   5
BRANCH   3  21
ATOM     21  C   UNL d   1      15.383  -0.711  -2.297  0.00  0.00     0.037 A 
ATOM     22  C   UNL d   1      16.131  -1.181  -3.359  0.00  0.00     0.029 A 
ATOM     23  C   UNL d   1      17.523  -1.330  -3.200  0.00  0.00     0.004 A 
ATOM     24  C   UNL d   1      18.160  -1.040  -1.971  0.00  0.00     0.029 A 
ATOM     25  C   UNL d   1      17.395  -0.612  -0.886  0.00  0.00     0.038 A 
ATOM     26  C   UNL d   1      16.052  -0.411  -1.128  0.00  0.00     0.059 A 
BRANCH  25  27
ATOM     27  N   UNL d   1      17.940  -0.402   0.402  0.00  0.00    -0.309 N 
ATOM     28  C   UNL d   1      17.388  -0.081   1.610  0.00  0.00     0.318 C 
ATOM     29  N   UNL d   1      16.067   0.123   1.783  0.00  0.00    -0.352 N 
ATOM     30  O   UNL d   1      18.113   0.046   2.597  0.00  0.00    -0.247 OA
ATOM     31  H   UNL d   1      15.301  -0.131   1.192  0.00  0.00     0.160 HD
ATOM     32  H   UNL d   1      15.749   0.386   2.702  0.00  0.00     0.160 HD
ATOM     33  H   UNL d   1      18.942  -0.527   0.492  0.00  0.00     0.170 HD
ENDBRANCH  25  27
ENDBRANCH   3  21
TORSDOF 6
