@<TRIPOS>MOLECULE
*****
 66 67 0 0 0
SMALL
GASTEIGER

@<TRIPOS>ATOM
      1 C           6.4759  -10.6038    1.6547 C.3     1  UNL1       -0.0652
      2 C           5.7434   -9.3163    1.9707 C.3     1  UNL1       -0.0545
      3 C           6.7169   -8.1531    2.1664 C.3     1  UNL1       -0.0376
      4 C           5.9170   -6.8876    2.4233 C.3     1  UNL1        0.0116
      5 N           6.6864   -5.6607    2.3846 N.am    1  UNL1       -0.3135
      6 C           6.1319   -4.5697    3.0410 C.2     1  UNL1        0.2384
      7 O           5.0362   -4.6968    3.5617 O.2     1  UNL1       -0.2734
      8 C           6.9086   -3.1921    3.1249 C.3     1  UNL1        0.1344
      9 C           6.1741   -2.0795    2.3817 C.ar    1  UNL1        0.0648
     10 C           6.6912   -0.8116    2.3886 C.ar    1  UNL1        0.1292
     11 O           7.6216   -0.4259    3.3247 O.3     1  UNL1       -0.5062
     12 C           6.4717    0.0087    1.2728 C.ar    1  UNL1        0.0219
     13 C           5.5293   -0.3118    0.3161 C.ar    1  UNL1        0.1238
     14 O           5.3918    0.3462   -0.8631 O.3     1  UNL1       -0.5065
     15 C           4.6362   -1.2944    0.6379 C.ar    1  UNL1        0.0219
     16 C           4.9547   -2.1539    1.6936 C.ar    1  UNL1        0.1292
     17 O           3.9555   -2.9596    2.1413 O.3     1  UNL1       -0.5062
     18 N           8.5270   -3.1420    3.1158 N.am    1  UNL1       -0.2826
     19 C           9.4701   -2.5592    2.1673 C.2     1  UNL1        0.2167
     20 O          10.6845   -2.6751    2.3224 O.2     1  UNL1       -0.2756
     21 C           8.9986   -1.6234    1.0356 C.3     1  UNL1        0.0242
     22 C           9.8775   -0.6948    0.1869 C.3     1  UNL1       -0.0450
     23 C           9.0288    0.2690   -0.6945 C.3     1  UNL1       -0.0555
     24 C           9.8960    1.1111   -1.5928 C.3     1  UNL1       -0.0653
     25 C           9.2060   -3.8829    4.2754 C.3     1  UNL1        0.0271
     26 C           8.8817   -3.3471    5.6906 C.3     1  UNL1       -0.0343
     27 C           9.4312   -4.2669    6.8019 C.3     1  UNL1       -0.0514
     28 C           8.9612   -5.7134    6.6575 C.3     1  UNL1       -0.0529
     29 C           9.3940   -6.2646    5.3125 C.3     1  UNL1       -0.0514
     30 C           8.8791   -5.3687    4.2172 C.3     1  UNL1       -0.0343
     31 H           5.7602  -11.4160    1.4964 H       1  UNL1        0.0230
     32 H           7.1401  -10.8842    2.4774 H       1  UNL1        0.0230
     33 H           7.0753  -10.4924    0.7461 H       1  UNL1        0.0230
     34 H           5.1321   -9.4536    2.8717 H       1  UNL1        0.0263
     35 H           5.0540   -9.0829    1.1500 H       1  UNL1        0.0263
     36 H           7.3465   -8.0307    1.2793 H       1  UNL1        0.0280
     37 H           7.3870   -8.3622    3.0110 H       1  UNL1        0.0280
     38 H           5.4116   -6.9876    3.3938 H       1  UNL1        0.0462
     39 H           5.1473   -6.7564    1.6582 H       1  UNL1        0.0462
     40 H           7.6705   -5.7082    2.1793 H       1  UNL1        0.1487
     41 H           6.7100   -2.9254    4.1714 H       1  UNL1        0.0650
     42 H           8.1294   -1.2086    3.6273 H       1  UNL1        0.2922
     43 H           7.1496    0.8287    1.1213 H       1  UNL1        0.0691
     44 H           6.1869    0.8773   -1.0419 H       1  UNL1        0.2921
     45 H           3.7047   -1.3666    0.0887 H       1  UNL1        0.0691
     46 H           3.1156   -2.6888    1.7354 H       1  UNL1        0.2922
     47 H           8.6758   -0.7979    1.6231 H       1  UNL1        0.0358
     48 H           8.2149   -2.0953    0.4428 H       1  UNL1        0.0358
     49 H          10.5721   -1.2687   -0.4195 H       1  UNL1        0.0270
     50 H          10.4608   -0.0510    0.8646 H       1  UNL1        0.0270
     51 H           8.5059    1.0293   -0.1107 H       1  UNL1        0.0263
     52 H           8.2748   -0.2772   -1.2740 H       1  UNL1        0.0263
     53 H          10.5027    1.7791   -0.9725 H       1  UNL1        0.0230
     54 H           9.2728    1.7326   -2.2450 H       1  UNL1        0.0230
     55 H          10.5383    0.4703   -2.1935 H       1  UNL1        0.0230
     56 H          10.2943   -3.7996    4.1684 H       1  UNL1        0.0501
     57 H           7.8020   -3.2652    5.8435 H       1  UNL1        0.0283
     58 H           9.2931   -2.3386    5.8157 H       1  UNL1        0.0283
     59 H           9.1196   -3.8893    7.7815 H       1  UNL1        0.0266
     60 H          10.5269   -4.2522    6.7785 H       1  UNL1        0.0266
     61 H           7.8663   -5.7581    6.7490 H       1  UNL1        0.0265
     62 H           9.3705   -6.3450    7.4519 H       1  UNL1        0.0265
     63 H           8.9591   -7.2620    5.1633 H       1  UNL1        0.0266
     64 H          10.4797   -6.3574    5.2409 H       1  UNL1        0.0266
     65 H           7.8059   -5.4548    4.3518 H       1  UNL1        0.0283
     66 H           9.2084   -5.7692    3.2578 H       1  UNL1        0.0283
@<TRIPOS>BOND
     1     1     2    1
     2     2     3    1
     3     3     4    1
     4     4     5    1
     5     5     6   am
     6     6     7    2
     7     9    10   ar
     8    10    11    1
     9    10    12   ar
    10    12    13   ar
    11    13    14    1
    12    13    15   ar
    13    15    16   ar
    14     9    16   ar
    15    16    17    1
    16     8    18    1
    17    18    19   am
    18    19    20    2
    19    19    21    1
    20    21    22    1
    21    22    23    1
    22    23    24    1
    23    18    25    1
    24    25    26    1
    25    26    27    1
    26    27    28    1
    27    28    29    1
    28    29    30    1
    29    25    30    1
    30     8     9    1
    31     8     6    1
    32     1    31    1
    33     1    32    1
    34     1    33    1
    35     2    34    1
    36     2    35    1
    37     3    36    1
    38     3    37    1
    39     4    38    1
    40     4    39    1
    41     5    40    1
    42     8    41    1
    43    11    42    1
    44    12    43    1
    45    14    44    1
    46    15    45    1
    47    17    46    1
    48    21    47    1
    49    21    48    1
    50    22    49    1
    51    22    50    1
    52    23    51    1
    53    23    52    1
    54    24    53    1
    55    24    54    1
    56    24    55    1
    57    25    56    1
    58    26    57    1
    59    26    58    1
    60    27    59    1
    61    27    60    1
    62    28    61    1
    63    28    62    1
    64    29    63    1
    65    29    64    1
    66    30    65    1
    67    30    66    1
