REMARK  7 active torsions:
REMARK  status: ('A' for Active; 'I' for Inactive)
REMARK    1  A    between atoms: C_6  and  C_5 
REMARK    2  A    between atoms: C_6  and  N_14 
REMARK    3  A    between atoms: C_6  and  C_7 
REMARK       I    between atoms: C_7  and  N_9 
REMARK    4  A    between atoms: N_9  and  C_10 
REMARK       I    between atoms: N_14  and  C_15 
REMARK    5  A    between atoms: N_14  and  C_26 
REMARK    6  A    between atoms: C_15  and  C_17 
REMARK    7  A    between atoms: C_21  and  N_22 
ROOT
ATOM      1  N   UNL d   1      -2.192  -3.268   0.306  0.00  0.00    -0.296 N 
ATOM      2  C   UNL d   1      -0.857  -4.003  -0.078  0.00  0.00     0.259 C 
ATOM      3  O   UNL d   1      -0.846  -5.235  -0.191  0.00  0.00    -0.267 OA
ENDROOT
BRANCH   1   4
ATOM      4  C   UNL d   1      -2.566  -1.842  -0.090  0.00  0.00     0.219 C 
BRANCH   4   5
ATOM      5  C   UNL d   1      -1.458  -0.850   0.034  0.00  0.00     0.246 C 
ATOM      6  O   UNL d   1      -1.115  -0.171  -0.904  0.00  0.00    -0.271 OA
ATOM      7  N   UNL d   1      -0.925  -0.691   1.280  0.00  0.00    -0.351 N 
ATOM      8  H   UNL d   1      -1.252  -1.194   2.079  0.00  0.00     0.163 HD
BRANCH   7   9
ATOM      9  C   UNL d   1       0.464  -0.487   1.228  0.00  0.00     0.022 C 
ATOM     10  C   UNL d   1       1.158  -0.619  -0.535  0.00  0.00     0.037 C 
ATOM     11  C   UNL d   1       0.761   1.083   0.901  0.00  0.00     0.037 C 
ATOM     12  C   UNL d   1       0.981  -1.646   2.922  0.00  0.00     0.037 C 
ENDBRANCH   7   9
ENDBRANCH   4   5
BRANCH   4  13
ATOM     13  C   UNL d   1      -3.251  -1.491  -1.428  0.00  0.00    -0.020 C 
ATOM     14  C   UNL d   1      -3.501  -0.100  -1.671  0.00  0.00     0.011 C 
ATOM     15  C   UNL d   1      -4.094   0.340  -2.834  0.00  0.00     0.007 C 
ATOM     16  C   UNL d   1      -4.653  -0.599  -3.678  0.00  0.00    -0.061 C 
ATOM     17  C   UNL d   1      -5.392  -0.219  -4.904  0.00  0.00     0.048 C 
ATOM     18  C   UNL d   1      -4.481  -1.951  -3.428  0.00  0.00     0.014 C 
ATOM     19  C   UNL d   1      -3.637  -2.394  -2.425  0.00  0.00    -0.053 C 
ATOM     20  C   UNL d   1      -3.412  -3.859  -2.422  0.00  0.00     0.049 C 
ENDBRANCH   4  13
ENDBRANCH   1   4
BRANCH   1  21
ATOM     21  C   UNL d   1      -3.477  -4.153   0.532  0.00  0.00     0.040 C 
ATOM     22  C   UNL d   1      -3.321  -5.442   1.020  0.00  0.00     0.030 C 
ATOM     23  C   UNL d   1      -4.249  -6.465   0.723  0.00  0.00     0.004 C 
ATOM     24  C   UNL d   1      -5.386  -6.232  -0.047  0.00  0.00     0.024 C 
ATOM     25  C   UNL d   1      -5.646  -4.938  -0.442  0.00  0.00     0.036 C 
ATOM     26 CL   UNL d   1      -6.835  -4.721  -1.710  0.00  0.00    -0.084 Cl
ATOM     27  C   UNL d   1      -4.779  -3.881  -0.034  0.00  0.00     0.053 C 
ENDBRANCH   1  21
BRANCH   2  28
ATOM     28  C   UNL d   1       0.666  -3.450  -0.104  0.00  0.00     0.035 C 
ATOM     29  C   UNL d   1       1.802  -3.561  -0.913  0.00  0.00     0.017 C 
ATOM     30  C   UNL d   1       3.172  -2.721  -0.630  0.00  0.00     0.003 C 
ATOM     31  C   UNL d   1       3.454  -1.675   0.407  0.00  0.00     0.036 C 
ATOM     32  C   UNL d   1       2.480  -1.583   1.299  0.00  0.00     0.103 C 
ATOM     33  C   UNL d   1       1.104  -2.666   0.951  0.00  0.00     0.053 C 
BRANCH  32  34
ATOM     34  N   UNL d   1       2.474   0.019   2.413  0.00  0.00    -0.116 N 
ATOM     35  O   UNL d   1       3.413   0.745   2.377  0.00  0.00    -0.532 OA
ATOM     36  O   UNL d   1       1.464   0.387   3.154  0.00  0.00    -0.532 OA
ENDBRANCH  32  34
ENDBRANCH   2  28
TORSDOF 7
