@<TRIPOS>MOLECULE
*****
 51 52 0 0 0
SMALL
GASTEIGER

@<TRIPOS>ATOM
      1 O           1.1167   -0.0261   -0.1561 O.2     1  UNL1       -0.2758
      2 C           2.3420    0.0350   -0.0698 C.2     1  UNL1        0.2147
      3 C           3.0565    0.9336    0.9365 C.3     1  UNL1        0.0395
      4 C           2.1074    1.7259    1.8328 C.3     1  UNL1        0.0213
      5 N           2.7878    2.5805    2.8209 N.am    1  UNL1       -0.2990
      6 C           2.0525    3.3318    3.7081 C.2     1  UNL1        0.2997
      7 O           0.8227    3.3356    3.7192 O.2     1  UNL1       -0.2529
      8 N           2.7987    4.0895    4.5789 N.am    1  UNL1       -0.2979
      9 C           2.1381    4.9377    5.5842 C.3     1  UNL1        0.0285
     10 C           3.1052    5.7218    6.4965 C.3     1  UNL1        0.0247
     11 N           2.4293    6.4298    7.5916 N.pl3   1  UNL1       -0.3423
     12 C           3.0732    7.4133    8.3428 C.ar    1  UNL1        0.0276
     13 C           2.6126    7.6861    9.6429 C.ar    1  UNL1       -0.0344
     14 C           3.1830    8.6986   10.4315 C.ar    1  UNL1        0.0173
     15 C           4.2789    9.4137    9.9419 C.ar    1  UNL1        0.2733
     16 N           4.9635   10.3947   10.7950 N.pl3   1  UNL1        0.0796
     17 O           4.5231   10.5732   11.9395 O.2     1  UNL1        0.0414
     18 O           5.9562   10.9722   10.3271 O.co2   1  UNL1       -0.5760
     19 C           4.7619    9.1572    8.6571 C.ar    1  UNL1        0.0173
     20 C           4.1610    8.1606    7.8749 C.ar    1  UNL1       -0.0344
     21 N           3.1047   -0.7424   -0.9104 N.am    1  UNL1       -0.3124
     22 C           4.5537   -0.8275   -0.9701 C.3     1  UNL1        0.0231
     23 C           5.1578   -1.4213    0.2979 C.3     1  UNL1       -0.0345
     24 C           6.5704   -1.7991   -0.0919 C.3     1  UNL1       -0.0513
     25 C           6.5005   -2.1574   -1.5702 C.3     1  UNL1       -0.0513
     26 C           5.0868   -1.7914   -2.0374 C.3     1  UNL1       -0.0345
     27 H           3.7253    1.6073    0.3908 H       1  UNL1        0.0374
     28 H           3.6450    0.3052    1.6023 H       1  UNL1        0.0374
     29 H           1.4647    1.0314    2.3880 H       1  UNL1        0.0467
     30 H           1.4544    2.3636    1.2283 H       1  UNL1        0.0467
     31 H           3.7953    2.5863    2.8695 H       1  UNL1        0.1502
     32 H           3.8057    4.0451    4.5467 H       1  UNL1        0.1503
     33 H           1.4832    4.2992    6.1882 H       1  UNL1        0.0478
     34 H           1.4889    5.6412    5.0467 H       1  UNL1        0.0478
     35 H           3.6856    6.3976    5.8614 H       1  UNL1        0.0476
     36 H           3.8050    5.0173    6.9587 H       1  UNL1        0.0476
     37 H           1.4297    6.5970    7.4794 H       1  UNL1        0.1461
     38 H           1.8219    7.0739   10.0749 H       1  UNL1        0.0638
     39 H           2.7700    8.9048   11.4170 H       1  UNL1        0.0686
     40 H           5.5976    9.7183    8.2440 H       1  UNL1        0.0686
     41 H           4.5609    8.0020    6.8794 H       1  UNL1        0.0638
     42 H           2.5534   -1.2961   -1.5603 H       1  UNL1        0.1490
     43 H           4.9384    0.1815   -1.1593 H       1  UNL1        0.0498
     44 H           4.5901   -2.3055    0.6131 H       1  UNL1        0.0283
     45 H           5.1945   -0.7292    1.1363 H       1  UNL1        0.0283
     46 H           6.9418   -2.6207    0.5268 H       1  UNL1        0.0266
     47 H           7.2375   -0.9416    0.0597 H       1  UNL1        0.0266
     48 H           6.7011   -3.2230   -1.7211 H       1  UNL1        0.0266
     49 H           7.2610   -1.5986   -2.1269 H       1  UNL1        0.0266
     50 H           4.4772   -2.7029   -2.0858 H       1  UNL1        0.0283
     51 H           5.0934   -1.3538   -3.0413 H       1  UNL1        0.0283
@<TRIPOS>UNITY_ATOM_ATTR
16 1
charge 1
18 1
charge -1
@<TRIPOS>BOND
     1     1     2    2
     2     2     3    1
     3     3     4    1
     4     4     5    1
     5     5     6   am
     6     6     7    2
     7     6     8   am
     8     8     9    1
     9     9    10    1
    10    10    11    1
    11    11    12    1
    12    12    13   ar
    13    13    14   ar
    14    14    15   ar
    15    15    16    1
    16    16    17    2
    17    16    18    1
    18    15    19   ar
    19    19    20   ar
    20    12    20   ar
    21     2    21   am
    22    21    22    1
    23    22    23    1
    24    23    24    1
    25    24    25    1
    26    25    26    1
    27    22    26    1
    28     3    27    1
    29     3    28    1
    30     4    29    1
    31     4    30    1
    32     5    31    1
    33     8    32    1
    34     9    33    1
    35     9    34    1
    36    10    35    1
    37    10    36    1
    38    11    37    1
    39    13    38    1
    40    14    39    1
    41    19    40    1
    42    20    41    1
    43    21    42    1
    44    22    43    1
    45    23    44    1
    46    23    45    1
    47    24    46    1
    48    24    47    1
    49    25    48    1
    50    25    49    1
    51    26    50    1
    52    26    51    1
