@<TRIPOS>MOLECULE
*****
 63 67 0 0 0
SMALL
GASTEIGER

@<TRIPOS>ATOM
      1 O           6.8490    0.5821    4.2964 O.2     1  UNL1       -0.2749
      2 C           5.9816   -0.2866    4.2092 C.2     1  UNL1        0.2234
      3 C           5.1939   -0.8786    5.3860 C.3     1  UNL1        0.0776
      4 S           5.5732   -0.0010    6.9093 S.3     1  UNL1       -0.0768
      5 C           5.1678   -1.0410    8.2431 C.ar    1  UNL1        0.1903
      6 N           4.5068   -0.3887    9.1557 N.ar    1  UNL1       -0.2218
      7 C           4.0945   -1.0022   10.3359 C.ar    1  UNL1        0.0791
      8 C           3.4480   -0.2283   11.3194 C.ar    1  UNL1       -0.0355
      9 C           3.1373   -0.7700   12.5690 C.ar    1  UNL1       -0.0597
     10 C           3.3984   -2.1154   12.8086 C.ar    1  UNL1       -0.0609
     11 C           3.8561   -2.9329   11.7626 C.ar    1  UNL1       -0.0473
     12 C           4.2934   -2.3575   10.5529 C.ar    1  UNL1        0.0665
     13 C           5.0284   -3.1177    9.4852 C.ar    1  UNL1        0.2796
     14 O           5.1499   -4.3394    9.6063 O.2     1  UNL1       -0.2653
     15 N           5.5403   -2.3865    8.3725 N.ar    1  UNL1       -0.1994
     16 N           6.1988   -3.2689    7.2379 N.am    1  UNL1       -0.2180
     17 C           7.2314   -2.8342    6.3497 C.2     1  UNL1        0.2315
     18 O           7.8285   -1.7498    6.5480 O.2     1  UNL1       -0.2741
     19 C           7.6437   -3.7370    4.9798 C.3     1  UNL1        0.0296
     20 C           8.1043   -2.9009    3.5336 C.3     1  UNL1       -0.0174
     21 C           8.8672   -3.3460    1.9114 C.ar    1  UNL1       -0.0219
     22 C           9.8213   -2.4270    2.2757 C.ar    1  UNL1        0.0059
     23 N          10.7850   -3.2741    1.8302 N.ar    1  UNL1       -0.3604
     24 C          10.7810   -2.6276    0.6531 C.ar    1  UNL1        0.0467
     25 C          11.3997   -1.3453    0.3926 C.ar    1  UNL1       -0.0378
     26 C          11.3646   -0.7382   -0.8218 C.ar    1  UNL1       -0.0598
     27 C          10.8155   -1.5417   -1.7539 C.ar    1  UNL1       -0.0611
     28 C           9.9667   -2.6583   -1.2521 C.ar    1  UNL1       -0.0523
     29 C           9.4913   -3.1693    0.1768 C.ar    1  UNL1        0.0028
     30 N           5.7316   -0.8049    2.9549 N.am    1  UNL1       -0.3122
     31 C           5.0287   -2.0544    2.6546 C.3     1  UNL1        0.0379
     32 C           4.9395   -2.4072    1.1581 C.3     1  UNL1        0.0742
     33 C           6.2454   -2.7665    0.4777 C.3     1  UNL1       -0.0231
     34 C           6.3294   -4.2719    0.6274 C.3     1  UNL1       -0.0271
     35 C           4.8842   -4.6810    0.5513 C.3     1  UNL1        0.0482
     36 O           4.1039   -3.5741    1.0291 O.3     1  UNL1       -0.3750
     37 H           5.4201   -1.9386    5.4050 H       1  UNL1        0.0475
     38 H           4.1246   -0.8224    5.1976 H       1  UNL1        0.0475
     39 H           3.2157    0.8170   11.1210 H       1  UNL1        0.0639
     40 H           2.6963   -0.1463   13.3461 H       1  UNL1        0.0618
     41 H           3.2589   -2.5213   13.8105 H       1  UNL1        0.0618
     42 H           3.8859   -4.0090   11.9165 H       1  UNL1        0.0626
     43 H           6.2193   -4.2369    7.5783 H       1  UNL1        0.1758
     44 H           6.7913   -4.3970    4.7941 H       1  UNL1        0.0362
     45 H           8.4954   -4.3056    5.3737 H       1  UNL1        0.0362
     46 H           8.7859   -2.1655    4.0119 H       1  UNL1        0.0318
     47 H           7.2794   -2.3103    3.2429 H       1  UNL1        0.0318
     48 H           9.6604   -1.3438    2.1156 H       1  UNL1        0.0810
     49 H          10.6544   -4.2870    1.8123 H       1  UNL1        0.1653
     50 H          11.8500   -0.8458    1.2445 H       1  UNL1        0.0638
     51 H          11.8968    0.1909   -0.9918 H       1  UNL1        0.0618
     52 H          11.1646   -1.3980   -2.7878 H       1  UNL1        0.0618
     53 H           9.9958   -3.4371   -2.0602 H       1  UNL1        0.0624
     54 H           6.3976   -0.4376    2.2775 H       1  UNL1        0.1488
     55 H           4.0290   -1.9586    3.0793 H       1  UNL1        0.0487
     56 H           5.4649   -2.8945    3.2103 H       1  UNL1        0.0487
     57 H           4.4843   -1.5620    0.6365 H       1  UNL1        0.0611
     58 H           7.0682   -2.1760    0.8716 H       1  UNL1        0.0291
     59 H           6.2070   -2.5285   -0.5921 H       1  UNL1        0.0291
     60 H           6.7048   -4.5776    1.6092 H       1  UNL1        0.0288
     61 H           6.9524   -4.7652   -0.1281 H       1  UNL1        0.0288
     62 H           4.6872   -5.5634    1.1686 H       1  UNL1        0.0560
     63 H           4.5900   -4.8975   -0.4791 H       1  UNL1        0.0560
@<TRIPOS>BOND
     1     1     2    2
     2     2     3    1
     3     3     4    1
     4     4     5    1
     5     5     6   ar
     6     6     7   ar
     7     7     8   ar
     8     8     9   ar
     9     9    10   ar
    10    10    11   ar
    11    11    12   ar
    12     7    12   ar
    13    12    13   ar
    14    13    14    2
    15    13    15   ar
    16     5    15   ar
    17    15    16    1
    18    16    17   am
    19    17    18    2
    20    17    19    1
    21    19    20    1
    22    20    21    1
    23    21    22   ar
    24    22    23   ar
    25    23    24   ar
    26    24    25   ar
    27    25    26   ar
    28    26    27   ar
    29    27    28   ar
    30    28    29   ar
    31    21    29   ar
    32    24    29   ar
    33     2    30   am
    34    30    31    1
    35    32    33    1
    36    33    34    1
    37    34    35    1
    38    35    36    1
    39    32    36    1
    40    32    31    1
    41     3    37    1
    42     3    38    1
    43     8    39    1
    44     9    40    1
    45    10    41    1
    46    11    42    1
    47    16    43    1
    48    19    44    1
    49    19    45    1
    50    20    46    1
    51    20    47    1
    52    22    48    1
    53    23    49    1
    54    25    50    1
    55    26    51    1
    56    27    52    1
    57    28    53    1
    58    30    54    1
    59    31    55    1
    60    31    56    1
    61    32    57    1
    62    33    58    1
    63    33    59    1
    64    34    60    1
    65    34    61    1
    66    35    62    1
    67    35    63    1
