REMARK  4 active torsions:
REMARK  status: ('A' for Active; 'I' for Inactive)
REMARK       I    between atoms: C_2  and  N_3 
REMARK       I    between atoms: C_2  and  N_12 
REMARK    1  A    between atoms: N_3  and  O_4 
REMARK    2  A    between atoms: O_4  and  C_5 
REMARK    3  A    between atoms: C_5  and  C_6 
REMARK    4  A    between atoms: N_12  and  C_13 
ROOT
ATOM      1  O   UNL d   1       1.128   0.036  -0.154  0.00  0.00    -0.245 OA
ATOM      2  C   UNL d   1       2.358   0.074  -0.085  0.00  0.00     0.340 C 
ATOM      3  N   UNL d   1       3.068   0.667   0.913  0.00  0.00    -0.216 N 
ATOM      4  N   UNL d   1       3.092  -0.541  -1.063  0.00  0.00    -0.333 N 
ATOM      5  H   UNL d   1       4.071   0.765   0.888  0.00  0.00     0.199 HD
ATOM      6  H   UNL d   1       2.497  -1.056  -1.702  0.00  0.00     0.165 HD
ENDROOT
BRANCH   3   7
ATOM      7  O   UNL d   1       2.350   1.395   1.894  0.00  0.00    -0.272 OA
BRANCH   7   8
ATOM      8  C   UNL d   1       3.277   2.045   2.762  0.00  0.00     0.240 C 
BRANCH   8   9
ATOM      9  C   UNL d   1       2.588   2.814   3.858  0.00  0.00    -0.032 A 
ATOM     10  C   UNL d   1       2.682   4.212   3.911  0.00  0.00     0.009 A 
ATOM     11  C   UNL d   1       2.243   4.905   5.039  0.00  0.00     0.001 A 
ATOM     12  C   UNL d   1       1.623   4.220   6.082  0.00  0.00     0.000 A 
ATOM     13  C   UNL d   1       1.462   2.838   6.009  0.00  0.00     0.001 A 
ATOM     14  C   UNL d   1       1.946   2.136   4.903  0.00  0.00     0.009 A 
ENDBRANCH   8   9
ENDBRANCH   7   8
ENDBRANCH   3   7
BRANCH   4  15
ATOM     15  C   UNL d   1       4.459  -1.014  -0.935  0.00  0.00     0.120 C 
ATOM     16  C   UNL d   1       4.475  -2.246   0.002  0.00  0.00     0.035 C 
ATOM     17  C   UNL d   1       4.484  -3.501  -0.883  0.00  0.00     0.041 C 
ATOM     18  C   UNL d   1       4.857  -2.971  -2.226  0.00  0.00    -0.047 A 
ATOM     19  C   UNL d   1       5.097  -3.720  -3.363  0.00  0.00     0.050 A 
ATOM     20  C   UNL d   1       4.966  -1.578  -2.233  0.00  0.00    -0.029 A 
ATOM     21  C   UNL d   1       5.578  -3.064  -4.487  0.00  0.00     0.117 A 
ATOM     22  F   UNL d   1       5.923  -3.783  -5.563  0.00  0.00    -0.206 F 
ATOM     23  C   UNL d   1       5.747  -1.676  -4.501  0.00  0.00     0.043 A 
ATOM     24  C   UNL d   1       5.433  -0.917  -3.365  0.00  0.00     0.013 A 
ENDBRANCH   4  15
TORSDOF 4
