REMARK  6 active torsions:
REMARK  status: ('A' for Active; 'I' for Inactive)
REMARK    1  A    between atoms: C_2  and  N_15 
REMARK    2  A    between atoms: C_3  and  C_4 
REMARK       I    between atoms: C_4  and  N_6 
REMARK    3  A    between atoms: N_6  and  C_7 
REMARK    4  A    between atoms: N_15  and  N_16 
REMARK       I    between atoms: N_16  and  C_17 
REMARK    5  A    between atoms: C_17  and  C_19 
REMARK       I    between atoms: C_19  and  N_21 
REMARK    6  A    between atoms: N_21  and  C_22 
ROOT
ATOM      1  N   UNL d   1       3.424   1.035  -0.516  0.00  0.00    -0.302 N 
ATOM      2  H   UNL d   1       2.881   1.797  -0.940  0.00  0.00     0.186 HD
ENDROOT
BRANCH   1   3
ATOM      3  C   UNL d   1       2.693  -0.019   0.073  0.00  0.00     0.027 C 
ATOM      4  C   UNL d   1       1.170   0.157  -0.029  0.00  0.00     0.070 C 
ATOM      5  C   UNL d   1       3.252  -1.101   0.680  0.00  0.00     0.100 C 
BRANCH   5   6
ATOM      6  C   UNL d   1       2.494  -2.237   1.312  0.00  0.00     0.247 C 
ATOM      7  O   UNL d   1       1.267  -2.242   1.367  0.00  0.00    -0.268 OA
ATOM      8  N   UNL d   1       3.235  -3.256   1.891  0.00  0.00    -0.324 N 
ATOM      9  H   UNL d   1       4.221  -3.131   2.081  0.00  0.00     0.169 HD
BRANCH   8  10
ATOM     10  C   UNL d   1       2.571  -4.394   2.437  0.00  0.00     0.036 A 
ATOM     11  C   UNL d   1       1.465  -4.944   1.771  0.00  0.00     0.031 A 
ATOM     12  C   UNL d   1       0.800  -6.066   2.263  0.00  0.00     0.028 A 
ATOM     13  C   UNL d   1       1.223  -6.653   3.450  0.00  0.00     0.055 A 
ATOM     14 CL   UNL d   1       0.391  -8.072   3.977  0.00  0.00    -0.083 Cl
ATOM     15  C   UNL d   1       2.305  -6.096   4.147  0.00  0.00     0.058 A 
ATOM     16 CL   UNL d   1       2.829  -6.743   5.665  0.00  0.00    -0.082 Cl
ATOM     17  C   UNL d   1       2.994  -4.981   3.632  0.00  0.00     0.055 A 
ENDBRANCH   8  10
ENDBRANCH   5   6
ENDBRANCH   1   3
BRANCH   1  18
ATOM     18  N   UNL d   1       4.830   1.169  -0.596  0.00  0.00    -0.262 N 
ATOM     19  C   UNL d   1       5.455   2.262  -1.214  0.00  0.00     0.328 C 
ATOM     20  O   UNL d   1       4.894   3.225  -1.733  0.00  0.00    -0.261 OA
ATOM     21  H   UNL d   1       5.409   0.440  -0.190  0.00  0.00     0.190 HD
BRANCH  19  22
ATOM     22  C   UNL d   1       7.020   2.165  -1.197  0.00  0.00     0.315 C 
ATOM     23  O   UNL d   1       7.511   1.173  -0.662  0.00  0.00    -0.262 OA
ATOM     24  N   UNL d   1       7.741   3.245  -1.735  0.00  0.00    -0.319 N 
ATOM     25  H   UNL d   1       7.219   4.088  -1.957  0.00  0.00     0.169 HD
BRANCH  24  26
ATOM     26  C   UNL d   1       9.169   3.292  -1.777  0.00  0.00     0.036 A 
ATOM     27  C   UNL d   1       9.916   2.154  -2.093  0.00  0.00     0.030 A 
ATOM     28  C   UNL d   1      11.320   2.180  -2.129  0.00  0.00     0.011 A 
ATOM     29  C   UNL d   1      12.031   3.346  -1.823  0.00  0.00    -0.040 A 
ATOM     30  C   UNL d   1      13.539   3.327  -1.838  0.00  0.00     0.050 C 
ATOM     31  C   UNL d   1      11.285   4.494  -1.510  0.00  0.00     0.042 A 
ATOM     32 CL   UNL d   1      12.087   5.964  -1.063  0.00  0.00    -0.084 Cl
ATOM     33  C   UNL d   1       9.870   4.480  -1.521  0.00  0.00     0.053 A 
ENDBRANCH  24  26
ENDBRANCH  19  22
ENDBRANCH   1  18
TORSDOF 6
