REMARK  3 active torsions:
REMARK  status: ('A' for Active; 'I' for Inactive)
REMARK    1  A    between atoms: C_8  and  N_9 
REMARK       I    between atoms: N_9  and  C_10 
REMARK    2  A    between atoms: C_10  and  C_12 
REMARK    3  A    between atoms: C_15  and  O_16 
ROOT
ATOM      1  N   UNL d   1      -2.230   2.480  -0.028  0.00  0.00    -0.322 N 
ATOM      2  C   UNL d   1      -1.646   3.740  -0.034  0.00  0.00     0.256 C 
ATOM      3  O   UNL d   1      -0.471   4.082   0.074  0.00  0.00    -0.267 OA
ATOM      4  H   UNL d   1      -3.244   2.454  -0.078  0.00  0.00     0.169 HD
ENDROOT
BRANCH   2   5
ATOM      5  C   UNL d   1      -2.450   4.948  -0.152  0.00  0.00     0.034 A 
ATOM      6  C   UNL d   1      -3.470   5.212   0.753  0.00  0.00     0.020 A 
ATOM      7  C   UNL d   1      -4.014   6.497   0.784  0.00  0.00     0.039 A 
ATOM      8  C   UNL d   1      -3.521   7.496  -0.069  0.00  0.00     0.087 A 
ATOM      9  C   UNL d   1      -2.467   7.236  -0.944  0.00  0.00     0.068 A 
ATOM     10 CL   UNL d   1      -1.805   8.450  -1.975  0.00  0.00    -0.081 Cl
ATOM     11  C   UNL d   1      -1.923   5.965  -0.976  0.00  0.00     0.043 A 
BRANCH   8  12
ATOM     12  O   UNL d   1      -4.067   8.748  -0.043  0.00  0.00    -0.359 OA
ATOM     13  H   UNL d   1      -4.790   8.774   0.602  0.00  0.00     0.217 HD
ENDBRANCH   8  12
ENDBRANCH   2   5
BRANCH   1  14
ATOM     14  C   UNL d   1      -1.582   1.187  -0.004  0.00  0.00     0.042 A 
ATOM     15  C   UNL d   1      -2.422   0.047  -0.007  0.00  0.00     0.030 A 
ATOM     16  C   UNL d   1      -1.895  -1.257   0.006  0.00  0.00     0.004 A 
ATOM     17  C   UNL d   1      -0.521  -1.456   0.014  0.00  0.00     0.024 A 
ATOM     18  C   UNL d   1       0.328  -0.360   0.010  0.00  0.00     0.042 A 
ATOM     19  C   UNL d   1      -0.178   0.957   0.006  0.00  0.00    -0.013 A 
ATOM     20 CL   UNL d   1       2.029  -0.705   0.004  0.00  0.00    -0.084 Cl
ATOM     21  C   UNL d   1       0.819   2.067   0.014  0.00  0.00     0.052 C 
ENDBRANCH   1  14
TORSDOF 3
