REMARK  5 active torsions:
REMARK  status: ('A' for Active; 'I' for Inactive)
REMARK    1  A    between atoms: C_8  and  C_9 
REMARK    2  A    between atoms: C_13  and  N_14 
REMARK       I    between atoms: N_14  and  C_15 
REMARK    3  A    between atoms: C_15  and  C_17 
REMARK    4  A    between atoms: C_20  and  C_21 
REMARK    5  A    between atoms: C_25  and  N_26 
ROOT
ATOM      1  N   UNL d   1      11.100  -2.438   2.145  0.00  0.00    -0.321 N 
ATOM      2  C   UNL d   1      10.873  -1.653   3.282  0.00  0.00     0.280 C 
ATOM      3  O   UNL d   1       9.828  -1.031   3.496  0.00  0.00    -0.265 OA
ATOM      4  H   UNL d   1      11.964  -2.966   2.109  0.00  0.00     0.169 HD
ENDROOT
BRANCH   1   5
ATOM      5  C   UNL d   1      10.187  -2.627   1.063  0.00  0.00     0.035 A 
ATOM      6  C   UNL d   1      10.516  -3.509   0.020  0.00  0.00     0.029 A 
ATOM      7  C   UNL d   1       9.623  -3.721  -1.044  0.00  0.00     0.003 A 
ATOM      8  C   UNL d   1       8.393  -3.059  -1.076  0.00  0.00     0.016 A 
ATOM      9  C   UNL d   1       8.048  -2.170  -0.057  0.00  0.00     0.019 A 
ATOM     10  C   UNL d   1       8.950  -1.966   0.995  0.00  0.00     0.045 A 
BRANCH   9  11
ATOM     11  C   UNL d   1       6.727  -1.552  -0.035  0.00  0.00     0.181 A 
ATOM     12  O   UNL d   1       6.663  -0.178   0.001  0.00  0.00    -0.288 OA
ATOM     13  C   UNL d   1       5.314   0.090  -0.021  0.00  0.00     0.112 A 
ATOM     14  C   UNL d   1       4.668   1.332  -0.025  0.00  0.00    -0.025 A 
ATOM     15  C   UNL d   1       4.655  -1.130  -0.044  0.00  0.00     0.094 A 
ATOM     16  C   UNL d   1       3.258   1.271  -0.040  0.00  0.00     0.016 A 
ATOM     17  C   UNL d   1       5.361   2.657  -0.019  0.00  0.00     0.051 C 
ATOM     18  C   UNL d   1       2.553   0.058  -0.043  0.00  0.00    -0.059 A 
ATOM     19  C   UNL d   1       1.052   0.052  -0.044  0.00  0.00     0.048 C 
ATOM     20  C   UNL d   1       3.255  -1.159  -0.045  0.00  0.00     0.041 A 
ATOM     21  N   UNL d   1       5.557  -2.160  -0.075  0.00  0.00    -0.221 NA
ENDBRANCH   9  11
ENDBRANCH   1   5
BRANCH   2  22
ATOM     22  C   UNL d   1      11.964  -1.567   4.237  0.00  0.00     0.144 A 
ATOM     23  C   UNL d   1      13.324  -1.378   4.067  0.00  0.00     0.046 A 
ATOM     24  C   UNL d   1      13.877  -1.205   5.358  0.00  0.00     0.041 A 
ATOM     25  C   UNL d   1      12.842  -1.325   6.258  0.00  0.00     0.086 A 
ATOM     26  O   UNL d   1      11.672  -1.540   5.590  0.00  0.00    -0.304 OA
BRANCH  25  27
ATOM     27  C   UNL d   1      12.809  -1.210   7.711  0.00  0.00     0.000 A 
ATOM     28  C   UNL d   1      13.315  -0.045   8.315  0.00  0.00     0.014 A 
ATOM     29  C   UNL d   1      13.429   0.063   9.704  0.00  0.00     0.003 A 
ATOM     30  C   UNL d   1      13.040  -0.999  10.515  0.00  0.00     0.036 A 
ATOM     31  C   UNL d   1      12.536  -2.167   9.925  0.00  0.00     0.103 A 
ATOM     32  C   UNL d   1      12.417  -2.279   8.527  0.00  0.00     0.050 A 
BRANCH  31  33
ATOM     33  N   UNL d   1      12.153  -3.293  10.788  0.00  0.00    -0.116 N 
ATOM     34  O   UNL d   1      12.267  -3.146  12.014  0.00  0.00    -0.532 OA
ATOM     35  O   UNL d   1      11.746  -4.328  10.241  0.00  0.00    -0.532 OA
ENDBRANCH  31  33
ENDBRANCH  25  27
ENDBRANCH   2  22
TORSDOF 5
