REMARK  8 active torsions:
REMARK  status: ('A' for Active; 'I' for Inactive)
REMARK    1  A    between atoms: O_2  and  C_3 
REMARK    2  A    between atoms: C_6  and  O_7 
REMARK    3  A    between atoms: C_10  and  C_9 
REMARK    4  A    between atoms: C_10  and  N_24 
REMARK    5  A    between atoms: C_10  and  C_11 
REMARK    6  A    between atoms: C_11  and  N_12 
REMARK       I    between atoms: N_12  and  C_13 
REMARK    7  A    between atoms: C_13  and  C_15 
REMARK    8  A    between atoms: C_18  and  S_19 
ROOT
ATOM      1  C   UNL d   1       3.201  -2.905  -3.392  0.00  0.00     0.241 C 
ENDROOT
BRANCH   1   2
ATOM      2  N   UNL d   1       2.037  -2.020  -4.046  0.00  0.00    -0.061 N 
ATOM      3  C   UNL d   1       0.756  -2.300  -3.263  0.00  0.00     0.236 C 
ATOM      4  C   UNL d   1      -0.379  -1.419  -3.678  0.00  0.00     0.028 C 
ATOM      5  C   UNL d   1       0.077   0.019  -3.754  0.00  0.00     0.003 C 
ATOM      6  C   UNL d   1       1.106   0.201  -4.843  0.00  0.00     0.028 C 
ATOM      7  C   UNL d   1       2.377  -0.580  -4.503  0.00  0.00     0.236 C 
ATOM      8  H   UNL d   1       1.862  -2.470  -4.960  0.00  0.00     0.280 HD
ENDBRANCH   1   2
BRANCH   1   9
ATOM      9  C   UNL d   1       3.576  -2.474  -1.968  0.00  0.00     0.161 C 
BRANCH   9  10
ATOM     10  N   UNL d   1       3.035  -1.155  -1.661  0.00  0.00    -0.354 N 
ATOM     11  C   UNL d   1       3.087  -0.539  -0.462  0.00  0.00     0.256 C 
ATOM     12  O   UNL d   1       3.753  -0.988   0.476  0.00  0.00    -0.268 OA
ATOM     13  H   UNL d   1       2.286  -0.824  -2.235  0.00  0.00     0.162 HD
BRANCH  11  14
ATOM     14  C   UNL d   1       2.358   0.736  -0.366  0.00  0.00     0.090 C 
ATOM     15  C   UNL d   1       3.001   1.849   0.091  0.00  0.00     0.139 C 
ATOM     16  N   UNL d   1       2.413   3.067   0.210  0.00  0.00    -0.234 NA
ATOM     17  C   UNL d   1       1.133   3.178  -0.183  0.00  0.00     0.189 C 
ATOM     18  N   UNL d   1       0.415   2.149  -0.641  0.00  0.00    -0.210 NA
ATOM     19  C   UNL d   1       1.021   0.950  -0.595  0.00  0.00     0.146 C 
ATOM     20 CL   UNL d   1      -0.138  -0.327  -0.524  0.00  0.00    -0.061 Cl
BRANCH  17  21
ATOM     21  S   UNL d   1       0.236   4.694   0.012  0.00  0.00    -0.095 SA
ATOM     22  C   UNL d   1       1.371   5.690   1.011  0.00  0.00     0.099 C 
ENDBRANCH  17  21
ENDBRANCH  11  14
ENDBRANCH   9  10
ENDBRANCH   1   9
BRANCH   1  23
ATOM     23  C   UNL d   1       2.928  -4.350  -3.772  0.00  0.00     0.010 C 
ATOM     24  C   UNL d   1       2.897  -4.545  -5.169  0.00  0.00     0.076 C 
ATOM     25  C   UNL d   1       1.784  -5.234  -5.663  0.00  0.00     0.040 C 
ATOM     26  C   UNL d   1       0.804  -5.759  -4.790  0.00  0.00     0.039 C 
ATOM     27  C   UNL d   1       0.991  -5.764  -3.405  0.00  0.00     0.069 C 
ATOM     28  C   UNL d   1       2.116  -5.126  -2.893  0.00  0.00     0.049 C 
BRANCH  24  29
ATOM     29  O   UNL d   1       3.600  -3.800  -6.102  0.00  0.00    -0.355 OA
ATOM     30  C   UNL d   1       4.856  -3.146  -5.810  0.00  0.00     0.210 C 
ENDBRANCH  24  29
BRANCH  27  31
ATOM     31  O   UNL d   1      -0.003  -6.332  -2.658  0.00  0.00    -0.356 OA
ATOM     32  C   UNL d   1      -0.378  -5.704  -1.428  0.00  0.00     0.210 C 
ENDBRANCH  27  31
ENDBRANCH   1  23
TORSDOF 8
