@<TRIPOS>MOLECULE
*****
 64 68 0 0 0
SMALL
GASTEIGER

@<TRIPOS>ATOM
      1 C           1.0419    0.0806    0.0306 C.3     1  UNL1       -0.0613
      2 C           2.5669    0.0543    0.0194 C.3     1  UNL1       -0.0305
      3 C           3.0550   -0.5861    1.2908 C.ar    1  UNL1       -0.0459
      4 C           3.0318   -1.9545    1.4886 C.ar    1  UNL1       -0.0585
      5 C           3.1659   -2.4519    2.7852 C.ar    1  UNL1       -0.0597
      6 C           3.4817   -1.6015    3.8664 C.ar    1  UNL1       -0.0404
      7 C           3.5723   -0.2208    3.6707 C.ar    1  UNL1        0.0350
      8 N           3.8073    0.6873    4.7583 N.am    1  UNL1       -0.2692
      9 C           3.8447    2.0617    4.5846 C.2     1  UNL1        0.3081
     10 O           3.6968    2.6156    3.4967 O.2     1  UNL1       -0.2522
     11 N           4.1018    2.8413    5.6980 N.am    1  UNL1       -0.2692
     12 C           4.1213    4.2615    5.5555 C.ar    1  UNL1        0.0356
     13 C           5.0349    5.0878    6.2040 C.ar    1  UNL1       -0.0386
     14 C           4.9112    6.5099    6.0935 C.ar    1  UNL1       -0.0382
     15 C           3.9644    7.1405    5.2376 C.ar    1  UNL1        0.0423
     16 N           3.6765    8.4690    5.2074 N.pl3   1  UNL1       -0.3247
     17 C           3.5090    9.0458    3.9155 C.3     1  UNL1        0.0165
     18 C           3.9842   11.0272    3.8548 C.3     1  UNL1       -0.0116
     19 C           2.7827   11.6828    3.5528 C.ar    1  UNL1       -0.0412
     20 C           2.6448   13.0551    3.0326 C.ar    1  UNL1       -0.0582
     21 C           1.5239   13.4713    2.3794 C.ar    1  UNL1       -0.0615
     22 C           0.7726   12.4134    2.0713 C.ar    1  UNL1       -0.0614
     23 C           1.2029   11.0349    2.7385 C.ar    1  UNL1       -0.0568
     24 C           1.8922   10.6988    4.1303 C.ar    1  UNL1       -0.0270
     25 C           3.5502    9.8357    5.2343 C.3     1  UNL1        0.0375
     26 C           3.0525    6.2278    4.5792 C.ar    1  UNL1        0.0594
     27 C           1.8279    6.6852    3.8178 C.2     1  UNL1        0.2461
     28 O           1.3499    7.7995    3.8551 O.2     1  UNL1       -0.2701
     29 N           1.0230    5.9132    3.0331 N.am    1  UNL1       -0.3084
     30 C          -0.1104    6.5908    2.3918 C.3     1  UNL1        0.0235
     31 C          -0.0711    8.0576    1.9031 C.3     1  UNL1       -0.0328
     32 C           0.0046    6.9451    0.9327 C.3     1  UNL1       -0.0328
     33 C           3.1493    4.8529    4.7542 C.ar    1  UNL1       -0.0265
     34 C           3.3648    0.2411    2.3669 C.ar    1  UNL1       -0.0373
     35 H           0.6593    0.5334   -0.8870 H       1  UNL1        0.0233
     36 H           0.6572    0.6567    0.8821 H       1  UNL1        0.0233
     37 H           0.6342   -0.9331    0.1108 H       1  UNL1        0.0233
     38 H           2.9420    1.0835   -0.0653 H       1  UNL1        0.0311
     39 H           2.9402   -0.4972   -0.8465 H       1  UNL1        0.0311
     40 H           2.8679   -2.6174    0.6437 H       1  UNL1        0.0620
     41 H           2.9803   -3.5098    2.9543 H       1  UNL1        0.0618
     42 H           3.6529   -2.0602    4.8353 H       1  UNL1        0.0636
     43 H           3.9030    0.2877    5.6802 H       1  UNL1        0.1564
     44 H           4.3451    2.4468    6.5918 H       1  UNL1        0.1564
     45 H           5.8839    4.6564    6.7363 H       1  UNL1        0.0637
     46 H           5.5677    7.1153    6.7218 H       1  UNL1        0.0637
     47 H           2.3272    8.9194    4.5227 H       1  UNL1        0.0467
     48 H           3.4539    8.5757    2.9473 H       1  UNL1        0.0467
     49 H           4.9515   11.2673    3.5120 H       1  UNL1        0.0328
     50 H           3.7916   11.6550    4.9355 H       1  UNL1        0.0328
     51 H           3.4460   13.7247    3.2732 H       1  UNL1        0.0620
     52 H           1.2997   14.5009    2.1268 H       1  UNL1        0.0618
     53 H          -0.0066   12.5345    1.2860 H       1  UNL1        0.0618
     54 H           0.4686   10.4249    2.2633 H       1  UNL1        0.0621
     55 H           3.6429   10.2592    6.3509 H       1  UNL1        0.0513
     56 H           4.7640    9.9539    5.0371 H       1  UNL1        0.0513
     57 H           0.9828    4.9284    3.2071 H       1  UNL1        0.1493
     58 H          -1.0483    6.3216    2.8645 H       1  UNL1        0.0498
     59 H           0.8485    8.6314    1.9614 H       1  UNL1        0.0284
     60 H          -0.9373    8.6973    2.0507 H       1  UNL1        0.0284
     61 H           0.9801    6.8259    0.4705 H       1  UNL1        0.0284
     62 H          -0.8230    6.7962    0.2655 H       1  UNL1        0.0284
     63 H           2.4147    4.2281    4.2672 H       1  UNL1        0.0644
     64 H           3.4057    1.2862    2.1063 H       1  UNL1        0.0639
@<TRIPOS>BOND
     1     1     2    1
     2     2     3    1
     3     3     4   ar
     4     4     5   ar
     5     5     6   ar
     6     6     7   ar
     7     7     8    1
     8     8     9   am
     9     9    10    2
    10     9    11   am
    11    11    12    1
    12    12    13   ar
    13    13    14   ar
    14    14    15   ar
    15    15    16    1
    16    16    17    1
    17    17    18    1
    18    18    19    1
    19    19    20   ar
    20    20    21   ar
    21    21    22   ar
    22    22    23   ar
    23    23    24   ar
    24    19    24   ar
    25    24    25    1
    26    16    25    1
    27    15    26   ar
    28    26    27    1
    29    27    28    2
    30    27    29   am
    31    29    30    1
    32    30    31    1
    33    31    32    1
    34    30    32    1
    35    26    33   ar
    36    12    33   ar
    37     7    34   ar
    38     3    34   ar
    39     1    35    1
    40     1    36    1
    41     1    37    1
    42     2    38    1
    43     2    39    1
    44     4    40    1
    45     5    41    1
    46     6    42    1
    47     8    43    1
    48    11    44    1
    49    13    45    1
    50    14    46    1
    51    17    47    1
    52    17    48    1
    53    18    49    1
    54    18    50    1
    55    20    51    1
    56    21    52    1
    57    22    53    1
    58    23    54    1
    59    25    55    1
    60    25    56    1
    61    29    57    1
    62    30    58    1
    63    31    59    1
    64    31    60    1
    65    32    61    1
    66    32    62    1
    67    33    63    1
    68    34    64    1
