@<TRIPOS>MOLECULE
*****
 43 45 0 0 0
SMALL
GASTEIGER

@<TRIPOS>ATOM
      1 C           1.0274    0.0021    0.0237 C.3     1  UNL1        0.0230
      2 C           2.5203    0.0313    0.0029 C.ar    1  UNL1        0.2053
      3 C           3.1726    1.2384   -0.0551 C.ar    1  UNL1        0.0105
      4 C           4.5341    1.2215   -0.1975 C.ar    1  UNL1       -0.0102
      5 C           5.2311    0.0569   -0.3640 C.ar    1  UNL1        0.1863
      6 N           6.5436    0.0907   -0.8188 N.pl3   1  UNL1       -0.3215
      7 C           7.5882    1.1521   -0.6349 C.3     1  UNL1        0.0250
      8 C           7.5021    1.9786    0.6556 C.3     1  UNL1       -0.0186
      9 C           7.0369    3.4421    0.4912 C.3     1  UNL1        0.0166
     10 N           7.7388    4.1102   -0.5850 N.am    1  UNL1       -0.2973
     11 C           8.3992    5.3169   -0.3174 C.2     1  UNL1        0.2494
     12 O           8.4097    5.8398    0.8064 O.2     1  UNL1       -0.2699
     13 C           9.1297    5.9967   -1.4046 C.ar    1  UNL1        0.0721
     14 C           8.4484    6.4237   -2.5496 C.ar    1  UNL1       -0.0455
     15 C           9.1756    6.7654   -3.6917 C.ar    1  UNL1       -0.0425
     16 C          10.5681    6.8359   -3.6344 C.ar    1  UNL1        0.0437
     17 CL         11.4606    7.1615   -5.0679 Cl      1  UNL1       -0.0835
     18 C          11.2372    6.6034   -2.4358 C.ar    1  UNL1       -0.0074
     19 C          10.5171    6.1395   -1.3360 C.ar    1  UNL1        0.1369
     20 F          11.1960    5.7697   -0.2408 F       1  UNL1       -0.2047
     21 C           7.5878    3.4468   -1.8840 C.3     1  UNL1        0.0166
     22 C           8.0767    2.0023   -1.8249 C.3     1  UNL1       -0.0186
     23 N           4.5775   -1.1177   -0.2056 N.ar    1  UNL1        0.0159
     24 N           3.2463   -1.1036    0.0146 N.ar    1  UNL1       -0.1009
     25 H           0.6272    1.0227   -0.0485 H       1  UNL1        0.0337
     26 H           0.6611   -0.4372    0.9521 H       1  UNL1        0.0337
     27 H           0.6494   -0.5513   -0.8402 H       1  UNL1        0.0337
     28 H           2.6523    2.1910   -0.0424 H       1  UNL1        0.0681
     29 H           5.0286    2.1581   -0.2540 H       1  UNL1        0.0656
     30 H           6.9451   -0.8494   -0.7650 H       1  UNL1        0.1479
     31 H           8.4568    0.4895   -0.5258 H       1  UNL1        0.0499
     32 H           8.5267    2.0199    1.0477 H       1  UNL1        0.0298
     33 H           6.9043    1.4681    1.4157 H       1  UNL1        0.0298
     34 H           7.1171    3.9657    1.4479 H       1  UNL1        0.0465
     35 H           5.9890    3.5594    0.2230 H       1  UNL1        0.0465
     36 H           7.3627    6.4219   -2.5752 H       1  UNL1        0.0626
     37 H           8.6554    6.9504   -4.6286 H       1  UNL1        0.0632
     38 H          12.3127    6.7347   -2.3619 H       1  UNL1        0.0661
     39 H           8.1524    3.9674   -2.6576 H       1  UNL1        0.0465
     40 H           6.5295    3.4843   -2.1644 H       1  UNL1        0.0465
     41 H           9.1624    2.1093   -1.6572 H       1  UNL1        0.0298
     42 H           7.9753    1.5147   -2.7987 H       1  UNL1        0.0298
     43 H           2.7695   -1.9958    0.1716 H       1  UNL1        0.4893
@<TRIPOS>UNITY_ATOM_ATTR
24 1
charge 1
@<TRIPOS>BOND
     1     1     2    1
     2     2     3   ar
     3     3     4   ar
     4     4     5   ar
     5     5     6    1
     6     6     7    1
     7     7     8    1
     8     8     9    1
     9     9    10    1
    10    10    11   am
    11    11    12    2
    12    11    13    1
    13    13    14   ar
    14    14    15   ar
    15    15    16   ar
    16    16    17    1
    17    16    18   ar
    18    18    19   ar
    19    13    19   ar
    20    19    20    1
    21    10    21    1
    22    21    22    1
    23     7    22    1
    24     5    23   ar
    25    23    24   ar
    26     2    24   ar
    27     1    25    1
    28     1    26    1
    29     1    27    1
    30     3    28    1
    31     4    29    1
    32     6    30    1
    33     7    31    1
    34     8    32    1
    35     8    33    1
    36     9    34    1
    37     9    35    1
    38    14    36    1
    39    15    37    1
    40    18    38    1
    41    21    39    1
    42    21    40    1
    43    22    41    1
    44    22    42    1
    45    24    43    1
