REMARK  7 active torsions:
REMARK  status: ('A' for Active; 'I' for Inactive)
REMARK    1  A    between atoms: O_2  and  C_3 
REMARK    2  A    between atoms: C_7  and  C_8 
REMARK    3  A    between atoms: C_8  and  C_9 
REMARK    4  A    between atoms: C_8  and  C_16 
REMARK    5  A    between atoms: C_10  and  O_11 
REMARK    6  A    between atoms: C_21  and  O_22 
REMARK    7  A    between atoms: C_23  and  O_24 
ROOT
ATOM      1  C   UNL d   1       2.914   4.729  -0.990  0.00  0.00     0.100 C 
ENDROOT
BRANCH   1   2
ATOM      2  C   UNL d   1       3.286   3.249  -1.241  0.00  0.00    -0.009 A 
ATOM      3  C   UNL d   1       4.454   3.009  -2.004  0.00  0.00     0.011 A 
ATOM      4  C   UNL d   1       4.920   1.716  -2.195  0.00  0.00     0.003 A 
ATOM      5  C   UNL d   1       4.238   0.644  -1.612  0.00  0.00     0.039 A 
ATOM      6  C   UNL d   1       3.066   0.832  -0.857  0.00  0.00     0.102 A 
ATOM      7  C   UNL d   1       2.560   2.131  -0.729  0.00  0.00     0.108 A 
BRANCH   6   8
ATOM      8  O   UNL d   1       2.648  -0.278  -0.165  0.00  0.00    -0.353 OA
ATOM      9  C   UNL d   1       1.315  -0.741  -0.332  0.00  0.00     0.210 C 
ENDBRANCH   6   8
BRANCH   7  10
ATOM     10  O   UNL d   1       1.349   2.488  -0.234  0.00  0.00    -0.353 OA
ATOM     11  C   UNL d   1       0.655   1.775   0.756  0.00  0.00     0.210 C 
ENDBRANCH   7  10
ENDBRANCH   1   2
BRANCH   1  12
ATOM     12  C   UNL d   1       2.610   5.266  -2.333  0.00  0.00     0.033 A 
ATOM     13  C   UNL d   1       1.643   4.868  -3.271  0.00  0.00     0.190 A 
ATOM     14  N   UNL d   1       1.626   5.624  -4.361  0.00  0.00    -0.149 NA
ATOM     15  N   UNL d   1       2.597   6.529  -4.116  0.00  0.00    -0.280 N 
ATOM     16  C   UNL d   1       3.227   6.351  -2.915  0.00  0.00     0.035 A 
ATOM     17  H   UNL d   1       2.775   7.231  -4.822  0.00  0.00     0.189 HD
ATOM     18  C   UNL d   1       4.327   7.173  -2.365  0.00  0.00     0.070 C 
BRANCH  13  19
ATOM     19  O   UNL d   1       0.727   3.896  -3.170  0.00  0.00    -0.343 OA
ATOM     20  H   UNL d   1       0.759   3.546  -2.260  0.00  0.00     0.219 HD
ENDBRANCH  13  19
ENDBRANCH   1  12
BRANCH   1  21
ATOM     21  C   UNL d   1       1.808   4.934  -0.002  0.00  0.00     0.033 C 
ATOM     22  C   UNL d   1       1.818   4.529   1.368  0.00  0.00     0.062 C 
ATOM     23  C   UNL d   1       2.931   3.781   2.041  0.00  0.00     0.073 C 
ATOM     24  N   UNL d   1       0.598   4.652   1.927  0.00  0.00    -0.177 NA
ATOM     25  N   UNL d   1      -0.173   5.099   0.915  0.00  0.00    -0.256 N 
ATOM     26  C   UNL d   1       0.514   5.420  -0.218  0.00  0.00     0.166 C 
ATOM     27  H   UNL d   1      -1.183   5.148   1.052  0.00  0.00     0.191 HD
BRANCH  26  28
ATOM     28  O   UNL d   1      -0.017   5.982  -1.283  0.00  0.00    -0.345 OA
ATOM     29  H   UNL d   1      -0.994   5.933  -1.317  0.00  0.00     0.219 HD
ENDBRANCH  26  28
ENDBRANCH   1  21
TORSDOF 7
