REMARK  10 active torsions:
REMARK  status: ('A' for Active; 'I' for Inactive)
REMARK    1  A    between atoms: O_2  and  C_3 
REMARK    2  A    between atoms: C_6  and  C_7 
REMARK    3  A    between atoms: C_7  and  N_8 
REMARK       I    between atoms: N_8  and  C_9 
REMARK       I    between atoms: C_9  and  N_11 
REMARK    4  A    between atoms: N_11  and  C_12 
REMARK    5  A    between atoms: N_11  and  C_17 
REMARK    6  A    between atoms: C_12  and  C_13 
REMARK    7  A    between atoms: C_13  and  N_14 
REMARK    8  A    between atoms: C_22  and  O_23 
REMARK    9  A    between atoms: O_23  and  C_24 
REMARK   10  A    between atoms: C_32  and  O_33 
ROOT
ATOM      1  N   UNL d   1       5.420  -5.531   2.298  0.00  0.00    -0.338 N 
ATOM      2  C   UNL d   1       5.955  -6.714   2.848  0.00  0.00     0.324 C 
ATOM      3  O   UNL d   1       7.004  -6.647   3.453  0.00  0.00    -0.247 OA
ATOM      4  N   UNL d   1       5.229  -7.938   2.610  0.00  0.00    -0.277 N 
ATOM      5  H   UNL d   1       4.543  -5.472   1.899  0.00  0.00     0.164 HD
ENDROOT
BRANCH   4   6
ATOM      6  C   UNL d   1       3.960  -8.117   1.797  0.00  0.00     0.163 C 
BRANCH   6   7
ATOM      7  C   UNL d   1       3.286  -6.878   1.244  0.00  0.00     0.254 C 
BRANCH   7   8
ATOM      8  N   UNL d   1       1.979  -6.984   0.545  0.00  0.00    -0.077 N 
ATOM      9  C   UNL d   1       0.923  -7.513   1.456  0.00  0.00     0.269 C 
ATOM     10  C   UNL d   1       1.553  -5.624   0.054  0.00  0.00     0.269 C 
ATOM     11  H   UNL d   1       2.091  -7.576  -0.288  0.00  0.00     0.279 HD
ENDBRANCH   7   8
ENDBRANCH   6   7
ENDBRANCH   4   6
BRANCH   4  12
ATOM     12  C   UNL d   1       5.711  -9.233   3.092  0.00  0.00     0.178 C 
ATOM     13  N   UNL d   1       5.259 -10.337   2.526  0.00  0.00    -0.223 NA
ATOM     14  C   UNL d   1       5.790 -11.491   3.091  0.00  0.00     0.077 C 
ATOM     15  C   UNL d   1       5.671 -12.782   2.541  0.00  0.00     0.036 C 
ATOM     16  C   UNL d   1       6.466 -11.338   4.301  0.00  0.00     0.040 C 
ATOM     17  C   UNL d   1       6.102 -13.911   3.243  0.00  0.00     0.039 C 
ATOM     18  C   UNL d   1       6.675 -13.794   4.508  0.00  0.00     0.079 C 
ATOM     19  C   UNL d   1       6.846 -12.505   5.075  0.00  0.00     0.058 C 
ATOM     20  S   UNL d   1       6.730  -9.574   4.453  0.00  0.00    -0.050 SA
BRANCH  18  21
ATOM     21  O   UNL d   1       7.048 -15.018   5.005  0.00  0.00    -0.255 OA
BRANCH  21  22
ATOM     22  C   UNL d   1       7.729 -15.131   6.242  0.00  0.00     0.530 C 
ATOM     23  F   UNL d   1       8.820 -14.342   6.277  0.00  0.00    -0.144 F 
ATOM     24  F   UNL d   1       6.902 -14.812   7.258  0.00  0.00    -0.144 F 
ATOM     25  F   UNL d   1       8.131 -16.413   6.411  0.00  0.00    -0.144 F 
ENDBRANCH  21  22
ENDBRANCH  18  21
ENDBRANCH   4  12
BRANCH   1  26
ATOM     26  C   UNL d   1       5.887  -4.126   2.390  0.00  0.00     0.163 C 
BRANCH  26  27
ATOM     27  C   UNL d   1       4.938  -3.054   1.757  0.00  0.00    -0.038 A 
ATOM     28  C   UNL d   1       5.237  -1.694   1.829  0.00  0.00     0.012 A 
ATOM     29  C   UNL d   1       4.337  -0.695   1.344  0.00  0.00     0.040 A 
ATOM     30  C   UNL d   1       3.117  -0.987   0.695  0.00  0.00     0.101 A 
ATOM     31  C   UNL d   1       2.816  -2.338   0.573  0.00  0.00     0.102 A 
ATOM     32  C   UNL d   1       3.731  -3.310   1.097  0.00  0.00     0.048 A 
BRANCH  30  33
ATOM     33  O   UNL d   1       2.563   0.074   0.020  0.00  0.00    -0.353 OA
ATOM     34  C   UNL d   1       1.205   0.488   0.184  0.00  0.00     0.210 C 
ENDBRANCH  30  33
BRANCH  31  35
ATOM     35  O   UNL d   1       1.773  -2.974  -0.051  0.00  0.00    -0.353 OA
ATOM     36  C   UNL d   1       0.696  -2.202  -0.509  0.00  0.00     0.210 C 
ENDBRANCH  31  35
ENDBRANCH  26  27
ENDBRANCH   1  26
TORSDOF 10
