REMARK  9 active torsions:
REMARK  status: ('A' for Active; 'I' for Inactive)
REMARK    1  A    between atoms: O_2  and  C_3 
REMARK    2  A    between atoms: C_9  and  C_10 
REMARK       I    between atoms: C_10  and  N_12 
REMARK    3  A    between atoms: N_12  and  C_13 
REMARK    4  A    between atoms: C_13  and  N_15 
REMARK    5  A    between atoms: N_15  and  C_16 
REMARK    6  A    between atoms: C_19  and  C_20 
REMARK    7  A    between atoms: C_23  and  C_24 
REMARK    8  A    between atoms: C_24  and  O_25 
REMARK    9  A    between atoms: C_27  and  O_28 
ROOT
ATOM      1  N   UNL d   1       3.503   1.915   3.813  0.00  0.00    -0.333 N 
ATOM      2  H   UNL d   1       2.644   2.117   3.316  0.00  0.00     0.168 HD
ENDROOT
BRANCH   1   3
ATOM      3  C   UNL d   1       4.256   0.754   3.487  0.00  0.00     0.179 C 
ATOM      4  S   UNL d   1       5.348   0.034   4.567  0.00  0.00    -0.040 SA
BRANCH   3   5
ATOM      5  N   UNL d   1       3.988   0.209   2.210  0.00  0.00    -0.299 N 
ATOM      6  C   UNL d   1       4.634  -0.912   1.649  0.00  0.00     0.260 C 
ATOM      7  O   UNL d   1       5.609  -1.478   2.161  0.00  0.00    -0.267 OA
ATOM      8  H   UNL d   1       3.258   0.624   1.641  0.00  0.00     0.171 HD
BRANCH   6   9
ATOM      9  C   UNL d   1       4.207  -1.519   0.355  0.00  0.00     0.067 A 
ATOM     10  C   UNL d   1       4.937  -2.655  -0.083  0.00  0.00     0.039 A 
ATOM     11  C   UNL d   1       4.618  -3.304  -1.271  0.00  0.00     0.012 A 
ATOM     12  C   UNL d   1       3.565  -2.840  -2.045  0.00  0.00     0.022 A 
ATOM     13 BR   UNL d   1       5.622  -4.804  -1.837  0.00  0.00    -0.051 Br
ATOM     14  C   UNL d   1       2.834  -1.720  -1.625  0.00  0.00     0.039 A 
ATOM     15  C   UNL d   1       3.143  -1.061  -0.422  0.00  0.00     0.084 A 
BRANCH  15  16
ATOM     16  O   UNL d   1       2.504   0.086  -0.034  0.00  0.00    -0.355 OA
ATOM     17  C   UNL d   1       1.083  -0.018  -0.026  0.00  0.00     0.210 C 
ENDBRANCH  15  16
ENDBRANCH   6   9
ENDBRANCH   3   5
ENDBRANCH   1   3
BRANCH   1  18
ATOM     18  C   UNL d   1       3.759   2.739   4.970  0.00  0.00     0.036 A 
ATOM     19  C   UNL d   1       2.754   3.300   5.761  0.00  0.00     0.030 A 
ATOM     20  C   UNL d   1       3.092   4.127   6.866  0.00  0.00     0.019 A 
ATOM     21  C   UNL d   1       4.432   4.369   7.226  0.00  0.00     0.031 A 
ATOM     22  C   UNL d   1       5.439   3.832   6.401  0.00  0.00     0.083 A 
ATOM     23  C   UNL d   1       5.079   3.056   5.293  0.00  0.00     0.067 A 
BRANCH  21  24
ATOM     24  C   UNL d   1       4.778   5.306   8.302  0.00  0.00     0.088 A 
ATOM     25  C   UNL d   1       5.593   6.418   8.275  0.00  0.00     0.041 A 
ATOM     26  C   UNL d   1       5.578   6.976   9.560  0.00  0.00     0.038 A 
ATOM     27  C   UNL d   1       4.784   6.164  10.343  0.00  0.00     0.077 A 
ATOM     28  O   UNL d   1       4.270   5.137   9.573  0.00  0.00    -0.312 OA
BRANCH  27  29
ATOM     29  C   UNL d   1       4.430   6.255  11.788  0.00  0.00     0.229 C 
BRANCH  29  30
ATOM     30  O   UNL d   1       5.052   7.432  12.322  0.00  0.00    -0.394 OA
ATOM     31  H   UNL d   1       6.011   7.327  12.193  0.00  0.00     0.209 HD
ENDBRANCH  29  30
ENDBRANCH  27  29
ENDBRANCH  21  24
BRANCH  22  32
ATOM     32  O   UNL d   1       6.754   4.133   6.681  0.00  0.00    -0.355 OA
ATOM     33  C   UNL d   1       7.745   3.558   5.827  0.00  0.00     0.210 C 
ENDBRANCH  22  32
ENDBRANCH   1  18
TORSDOF 9
