REMARK  7 active torsions:
REMARK  status: ('A' for Active; 'I' for Inactive)
REMARK    1  A    between atoms: C_5  and  C_6 
REMARK       I    between atoms: C_6  and  N_8 
REMARK    2  A    between atoms: N_8  and  C_9 
REMARK    3  A    between atoms: C_9  and  C_10 
REMARK    4  A    between atoms: C_10  and  N_11 
REMARK       I    between atoms: N_11  and  C_12 
REMARK       I    between atoms: C_12  and  N_14 
REMARK    5  A    between atoms: N_14  and  O_15 
REMARK    6  A    between atoms: O_15  and  C_16 
REMARK    7  A    between atoms: C_16  and  C_17 
ROOT
ATOM      1  C   UNL d   1      -6.852  -1.424   0.156  0.00  0.00     0.144 C 
ENDROOT
BRANCH   1   2
ATOM      2  C   UNL d   1      -5.515  -2.189   0.140  0.00  0.00     0.142 C 
BRANCH   2   3
ATOM      3  N   UNL d   1      -4.338  -1.322   0.084  0.00  0.00    -0.355 N 
ATOM      4  C   UNL d   1      -3.052  -1.843   0.060  0.00  0.00     0.251 C 
ATOM      5  O   UNL d   1      -2.843  -3.055   0.084  0.00  0.00    -0.268 OA
ATOM      6  H   UNL d   1      -4.492  -0.326   0.074  0.00  0.00     0.162 HD
BRANCH   4   7
ATOM      7  C   UNL d   1      -1.889  -0.889   0.015  0.00  0.00     0.035 A 
ATOM      8  C   UNL d   1      -2.049   0.504  -0.003  0.00  0.00     0.018 A 
ATOM      9  C   UNL d   1      -0.936   1.357  -0.004  0.00  0.00     0.011 A 
ATOM     10  C   UNL d   1       0.361   0.839  -0.001  0.00  0.00    -0.023 A 
ATOM     11  C   UNL d   1       1.556   1.745   0.011  0.00  0.00     0.051 C 
ATOM     12  C   UNL d   1       0.519  -0.548  -0.003  0.00  0.00     0.123 A 
ATOM     13  C   UNL d   1      -0.583  -1.408   0.005  0.00  0.00     0.059 A 
ATOM     14  F   UNL d   1       1.754  -1.071  -0.006  0.00  0.00    -0.206 F 
ENDBRANCH   4   7
ENDBRANCH   2   3
ENDBRANCH   1   2
BRANCH   1  15
ATOM     15  N   UNL d   1      -8.037  -2.280   0.208  0.00  0.00    -0.340 N 
ATOM     16  C   UNL d   1      -9.307  -1.732   0.224  0.00  0.00     0.340 C 
ATOM     17  O   UNL d   1      -9.489  -0.518   0.197  0.00  0.00    -0.245 OA
ATOM     18  N   UNL d   1     -10.312  -2.673   0.267  0.00  0.00    -0.216 N 
ATOM     19  H   UNL d   1     -10.168  -3.670   0.294  0.00  0.00     0.199 HD
ATOM     20  H   UNL d   1      -7.926  -3.281   0.229  0.00  0.00     0.164 HD
BRANCH  18  21
ATOM     21  O   UNL d   1     -11.637  -2.161   0.269  0.00  0.00    -0.272 OA
BRANCH  21  22
ATOM     22  C   UNL d   1     -12.612  -3.213   0.310  0.00  0.00     0.240 C 
BRANCH  22  23
ATOM     23  C   UNL d   1     -14.029  -2.672   0.358  0.00  0.00    -0.032 A 
ATOM     24  C   UNL d   1     -14.298  -1.296   0.351  0.00  0.00     0.009 A 
ATOM     25  C   UNL d   1     -15.597  -0.820   0.546  0.00  0.00     0.001 A 
ATOM     26  C   UNL d   1     -16.660  -1.712   0.659  0.00  0.00     0.000 A 
ATOM     27  C   UNL d   1     -16.420  -3.083   0.617  0.00  0.00     0.001 A 
ATOM     28  C   UNL d   1     -15.112  -3.561   0.475  0.00  0.00     0.009 A 
ENDBRANCH  22  23
ENDBRANCH  21  22
ENDBRANCH  18  21
ENDBRANCH   1  15
TORSDOF 7
