REMARK  12 active torsions:
REMARK  status: ('A' for Active; 'I' for Inactive)
REMARK    1  A    between atoms: C_2  and  N_3 
REMARK    2  A    between atoms: N_3  and  C_4 
REMARK    3  A    between atoms: N_3  and  C_22 
REMARK    4  A    between atoms: C_4  and  C_5 
REMARK    5  A    between atoms: C_9  and  C_10 
REMARK    6  A    between atoms: C_10  and  O_12 
REMARK    7  A    between atoms: O_12  and  C_13 
REMARK    8  A    between atoms: C_22  and  C_23 
REMARK    9  A    between atoms: C_23  and  O_24 
REMARK   10  A    between atoms: C_23  and  C_25 
REMARK   11  A    between atoms: C_25  and  O_26 
REMARK   12  A    between atoms: O_26  and  C_27 
ROOT
ATOM      1  C   UNL d   1       0.864  -1.123  -2.292  0.00  0.00     0.134 C 
ATOM      2  N   UNL d   1       0.253  -0.016  -2.558  0.00  0.00    -0.225 NA
ATOM      3  C   UNL d   1      -1.085  -0.077  -2.363  0.00  0.00     0.116 C 
ATOM      4  S   UNL d   1      -1.978   1.339  -2.148  0.00  0.00    -0.063 SA
ATOM      5  C   UNL d   1      -3.454   0.466  -2.017  0.00  0.00     0.089 C 
ATOM      6  C   UNL d   1      -3.240  -0.912  -2.033  0.00  0.00    -0.020 C 
ATOM      7  C   UNL d   1      -4.273  -1.991  -1.987  0.00  0.00     0.051 C 
ATOM      8  C   UNL d   1      -1.835  -1.203  -2.129  0.00  0.00     0.075 C 
ATOM      9  C   UNL d   1      -1.127  -2.468  -2.054  0.00  0.00     0.260 C 
ATOM     10  O   UNL d   1      -1.645  -3.569  -1.985  0.00  0.00    -0.267 OA
ATOM     11  N   UNL d   1       0.244  -2.325  -2.030  0.00  0.00    -0.309 N 
ATOM     12  H   UNL d   1       0.748  -3.204  -2.021  0.00  0.00     0.170 HD
ENDROOT
BRANCH   1  13
ATOM     13  C   UNL d   1       2.354  -1.102  -2.139  0.00  0.00     0.313 C 
BRANCH  13  14
ATOM     14  N   UNL d   1       2.897  -1.112  -0.684  0.00  0.00    -0.062 N 
ATOM     15  H   UNL d   1       2.556  -1.963  -0.216  0.00  0.00     0.280 HD
BRANCH  14  16
ATOM     16  C   UNL d   1       2.475   0.087   0.165  0.00  0.00     0.231 C 
ATOM     17  C   UNL d   1       0.992   0.113   0.431  0.00  0.00     0.034 C 
ENDBRANCH  14  16
BRANCH  14  18
ATOM     18  C   UNL d   1       4.431  -1.177  -0.698  0.00  0.00     0.269 C 
BRANCH  18  19
ATOM     19  C   UNL d   1       4.955  -2.401  -1.481  0.00  0.00     0.168 C 
BRANCH  19  20
ATOM     20  O   UNL d   1       4.563  -2.364  -2.851  0.00  0.00    -0.392 OA
ATOM     21  H   UNL d   1       5.013  -1.627  -3.301  0.00  0.00     0.210 HD
ENDBRANCH  19  20
BRANCH  19  22
ATOM     22  C   UNL d   1       6.468  -2.427  -1.438  0.00  0.00     0.209 C 
BRANCH  22  23
ATOM     23  O   UNL d   1       6.935  -3.612  -2.084  0.00  0.00    -0.348 OA
BRANCH  23  24
ATOM     24  C   UNL d   1       8.301  -3.702  -2.169  0.00  0.00     0.074 C 
ATOM     25  C   UNL d   1       8.826  -3.993  -3.432  0.00  0.00     0.037 C 
ATOM     26  C   UNL d   1      10.207  -3.957  -3.636  0.00  0.00     0.003 C 
ATOM     27  C   UNL d   1      11.063  -3.912  -2.542  0.00  0.00     0.001 C 
ATOM     28  C   UNL d   1      10.539  -3.774  -1.263  0.00  0.00     0.009 C 
ATOM     29  C   UNL d   1       9.166  -3.575  -1.072  0.00  0.00    -0.029 C 
ATOM     30  C   UNL d   1       8.715  -3.204   0.304  0.00  0.00     0.051 C 
ENDBRANCH  23  24
ENDBRANCH  22  23
ENDBRANCH  19  22
ENDBRANCH  18  19
ENDBRANCH  14  18
ENDBRANCH  13  14
ENDBRANCH   1  13
BRANCH   5  31
ATOM     31  C   UNL d   1      -4.655   1.285  -1.934  0.00  0.00     0.301 C 
ATOM     32  O   UNL d   1      -4.671   2.499  -1.834  0.00  0.00    -0.259 OA
BRANCH  31  33
ATOM     33  O   UNL d   1      -5.771   0.505  -2.008  0.00  0.00    -0.312 OA
BRANCH  33  34
ATOM     34  C   UNL d   1      -7.036   1.187  -1.998  0.00  0.00     0.124 C 
ATOM     35  C   UNL d   1      -7.193   2.030  -3.259  0.00  0.00     0.040 C 
ATOM     36  C   UNL d   1      -8.145   0.135  -1.963  0.00  0.00     0.040 C 
ENDBRANCH  33  34
ENDBRANCH  31  33
ENDBRANCH   5  31
TORSDOF 12
