@<TRIPOS>MOLECULE
*****
 66 69 0 0 0
SMALL
GASTEIGER

@<TRIPOS>ATOM
      1 C           1.1592   -0.0214   -0.6174 C.3     1  UNL1        0.0790
      2 O           2.4883   -0.0997   -0.1014 O.3     1  UNL1       -0.4915
      3 C           2.9698    0.7043    0.9109 C.ar    1  UNL1        0.1615
      4 C           4.2056    1.3103    0.5785 C.ar    1  UNL1       -0.0155
      5 C           5.0384    1.9023    1.5497 C.ar    1  UNL1       -0.0444
      6 C           4.6250    1.9815    2.8788 C.ar    1  UNL1        0.0598
      7 C           5.4491    2.7094    3.8982 C.2     1  UNL1        0.3407
      8 O           6.5367    3.1947    3.5512 O.2     1  UNL1       -0.2483
      9 N           4.8933    2.8491    5.1477 N.am    1  UNL1        0.0006
     10 C           5.4432    3.6405    6.0274 C.2     1  UNL1        0.3842
     11 N           4.7754    3.8887    7.2004 N.pl3   1  UNL1       -0.2767
     12 C           3.7050    3.0604    7.7096 C.3     1  UNL1        0.0684
     13 C           3.4513    3.2810    9.1991 C.3     1  UNL1        0.0059
     14 C           2.1848    2.6847    9.7352 C.2     1  UNL1        0.0106
     15 C           1.8441    2.8184   11.0172 C.ar    1  UNL1        0.0510
     16 C           2.5021    3.4608   12.0975 C.ar    1  UNL1       -0.0482
     17 C           1.9955    3.3089   13.3254 C.ar    1  UNL1       -0.0608
     18 C           0.7284    2.6263   13.5388 C.ar    1  UNL1       -0.0555
     19 C           0.0169    2.0375   12.5538 C.ar    1  UNL1        0.0098
     20 C           0.5778    2.0972   11.1865 C.ar    1  UNL1        0.2086
     21 N           0.1579    1.6179   10.0768 N.2     1  UNL1       -0.2369
     22 C           1.1526    1.8822    8.9926 C.3     1  UNL1        0.1661
     23 N           6.6073    4.3581    5.8798 N.pl3   1  UNL1       -0.2448
     24 C           7.5286    4.8409    6.8431 C.ar    1  UNL1        0.1027
     25 C           8.2756    5.9909    6.5047 C.ar    1  UNL1       -0.0227
     26 C           9.2235    6.5348    7.3808 C.ar    1  UNL1       -0.0556
     27 C           9.3819    5.9974    8.6552 C.ar    1  UNL1       -0.0500
     28 C          10.2714    6.6375    9.6771 C.3     1  UNL1       -0.0397
     29 C           8.6652    4.8493    8.9945 C.ar    1  UNL1       -0.0527
     30 C           7.7710    4.2413    8.0962 C.ar    1  UNL1       -0.0118
     31 C           7.1686    2.9395    8.5375 C.3     1  UNL1       -0.0364
     32 C           3.3997    1.4071    3.2174 C.ar    1  UNL1       -0.0027
     33 C           2.5708    0.7668    2.2661 C.ar    1  UNL1        0.1623
     34 O           1.4771    0.2563    2.9287 O.3     1  UNL1       -0.4914
     35 C           0.5033   -0.3143    2.1056 C.3     1  UNL1        0.0790
     36 H           1.1123   -0.5276   -1.5858 H       1  UNL1        0.0660
     37 H           0.7820    1.0011   -0.6868 H       1  UNL1        0.0660
     38 H           0.4504   -0.6494   -0.0814 H       1  UNL1        0.0660
     39 H           4.5545    1.3068   -0.4551 H       1  UNL1        0.0655
     40 H           6.0178    2.2856    1.2634 H       1  UNL1        0.0627
     41 H           5.2142    4.5647    7.8170 H       1  UNL1        0.2577
     42 H           3.9346    1.9977    7.5628 H       1  UNL1        0.0658
     43 H           2.8008    3.3100    7.1540 H       1  UNL1        0.0658
     44 H           3.4375    4.3581    9.4138 H       1  UNL1        0.0343
     45 H           4.2818    2.8696    9.7934 H       1  UNL1        0.0343
     46 H           3.4127    4.0208   11.9156 H       1  UNL1        0.0626
     47 H           2.5349    3.7081   14.1805 H       1  UNL1        0.0618
     48 H           0.3634    2.6438   14.5647 H       1  UNL1        0.0620
     49 H          -0.9219    1.5413   12.7698 H       1  UNL1        0.0683
     50 H          -0.7391    1.1411    9.9905 H       1  UNL1        0.4459
     51 H           0.6712    2.4486    8.1915 H       1  UNL1        0.1077
     52 H           1.5343    0.9227    8.6267 H       1  UNL1        0.1077
     53 H           7.0757    4.1730    4.9863 H       1  UNL1        0.2646
     54 H           8.1113    6.4955    5.5524 H       1  UNL1        0.0652
     55 H           9.8253    7.3858    7.0668 H       1  UNL1        0.0621
     56 H          10.7662    7.5282    9.2794 H       1  UNL1        0.0278
     57 H          11.0395    5.9353   10.0153 H       1  UNL1        0.0278
     58 H           9.6674    6.9482   10.5373 H       1  UNL1        0.0278
     59 H           8.8250    4.4006    9.9735 H       1  UNL1        0.0624
     60 H           7.5969    2.5872    9.4782 H       1  UNL1        0.0279
     61 H           7.2968    2.1706    7.7724 H       1  UNL1        0.0279
     62 H           6.1229    3.0478    8.7833 H       1  UNL1        0.0279
     63 H           3.0718    1.4182    4.2542 H       1  UNL1        0.0663
     64 H          -0.3685   -0.6935    2.6389 H       1  UNL1        0.0660
     65 H           0.9596   -1.1877    1.6302 H       1  UNL1        0.0660
     66 H           0.1144    0.4818    1.4617 H       1  UNL1        0.0660
@<TRIPOS>UNITY_ATOM_ATTR
21 1
charge 1
@<TRIPOS>BOND
     1     1     2    1
     2     2     3    1
     3     3     4   ar
     4     4     5   ar
     5     5     6   ar
     6     6     7    1
     7     7     8    2
     8     7     9    1
     9     9    10    2
    10    10    11    1
    11    11    12    1
    12    12    13    1
    13    13    14    1
    14    14    15    2
    15    15    16   ar
    16    16    17   ar
    17    17    18   ar
    18    18    19   ar
    19    19    20   ar
    20    15    20   ar
    21    20    21    2
    22    21    22    1
    23    14    22    1
    24    10    23    1
    25    23    24    1
    26    24    25   ar
    27    25    26   ar
    28    26    27   ar
    29    27    28    1
    30    27    29   ar
    31    29    30   ar
    32    24    30   ar
    33    30    31    1
    34     6    32   ar
    35    32    33   ar
    36     3    33   ar
    37    33    34    1
    38    34    35    1
    39     1    36    1
    40     1    37    1
    41     1    38    1
    42     4    39    1
    43     5    40    1
    44    11    41    1
    45    12    42    1
    46    12    43    1
    47    13    44    1
    48    13    45    1
    49    16    46    1
    50    17    47    1
    51    18    48    1
    52    19    49    1
    53    21    50    1
    54    22    51    1
    55    22    52    1
    56    23    53    1
    57    25    54    1
    58    26    55    1
    59    28    56    1
    60    28    57    1
    61    28    58    1
    62    29    59    1
    63    31    60    1
    64    31    61    1
    65    31    62    1
    66    32    63    1
    67    35    64    1
    68    35    65    1
    69    35    66    1
