REMARK  4 active torsions:
REMARK  status: ('A' for Active; 'I' for Inactive)
REMARK       I    between atoms: C_2  and  N_3 
REMARK    1  A    between atoms: C_2  and  C_12 
REMARK    2  A    between atoms: N_3  and  O_4 
REMARK    3  A    between atoms: O_4  and  C_5 
REMARK    4  A    between atoms: C_5  and  C_6 
ROOT
ATOM      1  O   UNL d   1       2.320   0.880  -0.365  0.00  0.00    -0.266 OA
ATOM      2  C   UNL d   1       3.466   0.446  -0.640  0.00  0.00     0.273 C 
ATOM      3  N   UNL d   1       3.634  -0.852  -1.052  0.00  0.00    -0.231 N 
ATOM      4  H   UNL d   1       4.527  -1.252  -0.827  0.00  0.00     0.197 HD
ENDROOT
BRANCH   2   5
ATOM      5  C   UNL d   1       4.761   1.134  -0.049  0.00  0.00     0.043 C 
ATOM      6  C   UNL d   1       4.722   0.668   1.263  0.00  0.00     0.122 C 
ATOM      7  N   UNL d   1       4.937   1.875   1.871  0.00  0.00    -0.281 NA
ATOM      8  C   UNL d   1       6.241   2.098   1.529  0.00  0.00     0.020 A 
ATOM      9  H   UNL d   1       4.314   2.670   1.836  0.00  0.00     0.128 HD
ATOM     10  C   UNL d   1       7.216   2.549   2.425  0.00  0.00     0.024 A 
ATOM     11  C   UNL d   1       6.316   1.659   0.184  0.00  0.00    -0.002 A 
ATOM     12  C   UNL d   1       8.530   2.627   2.061  0.00  0.00     0.002 A 
ATOM     13  C   UNL d   1       8.806   2.253   0.756  0.00  0.00     0.001 A 
ATOM     14  C   UNL d   1       7.739   1.820  -0.222  0.00  0.00     0.014 A 
ENDBRANCH   2   5
BRANCH   3  15
ATOM     15  O   UNL d   1       2.599  -1.819  -1.305  0.00  0.00    -0.273 OA
BRANCH  15  16
ATOM     16  C   UNL d   1       3.284  -2.962  -1.889  0.00  0.00     0.240 C 
BRANCH  16  17
ATOM     17  C   UNL d   1       2.526  -4.134  -2.490  0.00  0.00    -0.032 A 
ATOM     18  C   UNL d   1       1.359  -3.992  -3.244  0.00  0.00     0.009 A 
ATOM     19  C   UNL d   1       0.705  -5.122  -3.760  0.00  0.00     0.001 A 
ATOM     20  C   UNL d   1       1.258  -6.396  -3.615  0.00  0.00     0.000 A 
ATOM     21  C   UNL d   1       2.458  -6.548  -2.931  0.00  0.00     0.001 A 
ATOM     22  C   UNL d   1       3.085  -5.428  -2.378  0.00  0.00     0.009 A 
ENDBRANCH  16  17
ENDBRANCH  15  16
ENDBRANCH   3  15
TORSDOF 4
