@<TRIPOS>MOLECULE
*****
 66 70 0 0 0
SMALL
GASTEIGER

@<TRIPOS>ATOM
      1 O           1.0618   -0.1069    0.0959 O.2     1  UNL1       -0.2749
      2 C           2.2853   -0.0918   -0.0389 C.2     1  UNL1        0.2231
      3 C           3.0138   -0.3855   -1.3570 C.3     1  UNL1        0.0734
      4 S           1.8017   -0.6497   -2.7063 S.3     1  UNL1       -0.1085
      5 C           2.8755   -1.1002   -4.0990 C.3     1  UNL1        0.1563
      6 N           4.0385   -0.2368   -4.1159 N.pl3   1  UNL1       -0.3156
      7 C           5.0372   -0.5565   -5.0369 C.ar    1  UNL1        0.0414
      8 C           6.0006    0.3705   -5.4379 C.ar    1  UNL1       -0.0400
      9 C           7.0944   -0.0222   -6.2307 C.ar    1  UNL1       -0.0600
     10 C           7.2619   -1.3518   -6.6103 C.ar    1  UNL1       -0.0609
     11 C           6.3031   -2.2787   -6.2444 C.ar    1  UNL1       -0.0478
     12 C           5.1987   -1.8688   -5.4857 C.ar    1  UNL1        0.0593
     13 C           4.1926   -2.8666   -5.1226 C.2     1  UNL1        0.2669
     14 O           4.2180   -3.9273   -5.7481 O.2     1  UNL1       -0.2683
     15 N           3.3114   -2.4975   -4.0986 N.am    1  UNL1       -0.1859
     16 N           2.3630   -3.4829   -3.6110 N.am    1  UNL1       -0.2292
     17 C           2.8072   -4.7863   -3.4231 C.2     1  UNL1        0.2296
     18 O           3.8925   -5.2438   -3.7692 O.2     1  UNL1       -0.2743
     19 C           1.8859   -5.6887   -2.6483 C.3     1  UNL1        0.0293
     20 C           2.4417   -7.1123   -2.8111 C.3     1  UNL1       -0.0165
     21 C           1.7449   -8.1636   -2.0377 C.2     1  UNL1        0.0081
     22 C           2.0094   -9.4686   -2.1264 C.ar    1  UNL1        0.0509
     23 C           2.9116  -10.2396   -2.9133 C.ar    1  UNL1       -0.0482
     24 C           2.9422  -11.5667   -2.7217 C.ar    1  UNL1       -0.0608
     25 C           2.0878  -12.2125   -1.7338 C.ar    1  UNL1       -0.0555
     26 C           1.2151  -11.5478   -0.9506 C.ar    1  UNL1        0.0098
     27 C           1.1356  -10.0879   -1.1196 C.ar    1  UNL1        0.2086
     28 N           0.4155   -9.2265   -0.5073 N.2     1  UNL1       -0.2369
     29 C           0.7030   -7.8734   -1.0101 C.3     1  UNL1        0.1660
     30 N           3.0376    0.1949    1.0680 N.am    1  UNL1       -0.3122
     31 C           4.4857    0.1831    1.1710 C.3     1  UNL1        0.0379
     32 C           5.0002    0.5371    2.5736 C.3     1  UNL1        0.0742
     33 C           5.3309    2.0124    2.7374 C.3     1  UNL1       -0.0231
     34 C           6.4547    1.9930    3.7423 C.3     1  UNL1       -0.0271
     35 C           7.1736    0.7010    3.4228 C.3     1  UNL1        0.0482
     36 O           6.2136   -0.1895    2.8394 O.3     1  UNL1       -0.3750
     37 H           3.6254   -1.2829   -1.2334 H       1  UNL1        0.0472
     38 H           3.6440    0.4773   -1.5934 H       1  UNL1        0.0472
     39 H           2.2686   -0.9372   -5.0038 H       1  UNL1        0.0847
     40 H           3.8679    0.7439   -3.9331 H       1  UNL1        0.1487
     41 H           5.9186    1.4142   -5.1486 H       1  UNL1        0.0636
     42 H           7.8339    0.7114   -6.5416 H       1  UNL1        0.0618
     43 H           8.1272   -1.6723   -7.1847 H       1  UNL1        0.0618
     44 H           6.4176   -3.3248   -6.5242 H       1  UNL1        0.0626
     45 H           1.6559   -3.1035   -2.9819 H       1  UNL1        0.1731
     46 H           0.8563   -5.6245   -3.0124 H       1  UNL1        0.0362
     47 H           1.9260   -5.3806   -1.5975 H       1  UNL1        0.0362
     48 H           3.4950   -7.1381   -2.4927 H       1  UNL1        0.0317
     49 H           2.4299   -7.3855   -3.8762 H       1  UNL1        0.0317
     50 H           3.5512   -9.7542   -3.6458 H       1  UNL1        0.0626
     51 H           3.6173  -12.1880   -3.3073 H       1  UNL1        0.0618
     52 H           2.1926  -13.2930   -1.6524 H       1  UNL1        0.0620
     53 H           0.6008  -12.0628   -0.2232 H       1  UNL1        0.0683
     54 H          -0.2475   -9.4627    0.2263 H       1  UNL1        0.4459
     55 H           1.0847   -7.2592   -0.1902 H       1  UNL1        0.1077
     56 H          -0.2045   -7.4518   -1.4500 H       1  UNL1        0.1077
     57 H           2.4794    0.3579    1.9003 H       1  UNL1        0.1488
     58 H           4.8724    0.8832    0.4228 H       1  UNL1        0.0487
     59 H           4.8289   -0.8140    0.8743 H       1  UNL1        0.0487
     60 H           4.2815    0.2244    3.3420 H       1  UNL1        0.0611
     61 H           4.4697    2.6003    3.0680 H       1  UNL1        0.0291
     62 H           5.6926    2.4457    1.7979 H       1  UNL1        0.0291
     63 H           6.0473    1.9548    4.7586 H       1  UNL1        0.0288
     64 H           7.1113    2.8653    3.6738 H       1  UNL1        0.0288
     65 H           7.6109    0.2398    4.3134 H       1  UNL1        0.0560
     66 H           7.9694    0.8551    2.6870 H       1  UNL1        0.0560
@<TRIPOS>UNITY_ATOM_ATTR
28 1
charge 1
@<TRIPOS>BOND
     1     1     2    2
     2     2     3    1
     3     3     4    1
     4     4     5    1
     5     5     6    1
     6     6     7    1
     7     7     8   ar
     8     8     9   ar
     9     9    10   ar
    10    10    11   ar
    11    11    12   ar
    12     7    12   ar
    13    12    13    1
    14    13    14    2
    15    13    15   am
    16     5    15    1
    17    15    16    1
    18    16    17   am
    19    17    18    2
    20    17    19    1
    21    19    20    1
    22    20    21    1
    23    21    22    2
    24    22    23   ar
    25    23    24   ar
    26    24    25   ar
    27    25    26   ar
    28    26    27   ar
    29    22    27   ar
    30    27    28    2
    31    28    29    1
    32    21    29    1
    33     2    30   am
    34    30    31    1
    35    31    32    1
    36    32    33    1
    37    33    34    1
    38    34    35    1
    39    35    36    1
    40    32    36    1
    41     3    37    1
    42     3    38    1
    43     5    39    1
    44     6    40    1
    45     8    41    1
    46     9    42    1
    47    10    43    1
    48    11    44    1
    49    16    45    1
    50    19    46    1
    51    19    47    1
    52    20    48    1
    53    20    49    1
    54    23    50    1
    55    24    51    1
    56    25    52    1
    57    26    53    1
    58    28    54    1
    59    29    55    1
    60    29    56    1
    61    30    57    1
    62    31    58    1
    63    31    59    1
    64    32    60    1
    65    33    61    1
    66    33    62    1
    67    34    63    1
    68    34    64    1
    69    35    65    1
    70    35    66    1
