@<TRIPOS>MOLECULE
*****
 61 63 0 0 0
SMALL
GASTEIGER

@<TRIPOS>ATOM
      1 C           0.9885    0.0228   -0.1109 C.3     1  UNL1       -0.0652
      2 C           2.4791    0.1124   -0.3459 C.3     1  UNL1       -0.0528
      3 C           2.8732   -0.7818   -1.5505 C.3     1  UNL1       -0.0189
      4 C           4.3779   -0.7258   -1.7613 C.3     1  UNL1        0.0897
      5 O           4.9962   -1.7565   -2.5088 O.3     1  UNL1       -0.4901
      6 C           6.3821   -1.8679   -2.4032 C.ar    1  UNL1        0.1412
      7 C           6.9631   -1.8962   -3.6943 C.ar    1  UNL1       -0.0181
      8 C           8.3043   -2.2248   -3.8974 C.ar    1  UNL1       -0.0582
      9 C           9.1196   -2.4557   -2.8038 C.ar    1  UNL1       -0.0598
     10 C           8.5767   -2.4030   -1.5172 C.ar    1  UNL1       -0.0373
     11 C           7.2071   -2.1243   -1.2590 C.ar    1  UNL1        0.0698
     12 N           6.8536   -2.3446    0.0925 N.pl3   1  UNL1       -0.3326
     13 C           5.5811   -1.9107    0.5909 C.3     1  UNL1        0.0862
     14 C           5.2661   -1.9436    2.0510 C.2     1  UNL1        0.2343
     15 O           6.1422   -2.0220    2.8854 O.2     1  UNL1       -0.2738
     16 N           3.8879   -1.7252    2.2938 N.am    1  UNL1       -0.2842
     17 C           3.4217   -1.4283    3.5793 C.ar    1  UNL1        0.0341
     18 C           2.1745   -1.8725    4.0130 C.ar    1  UNL1       -0.0404
     19 C           1.8083   -1.6564    5.3418 C.ar    1  UNL1       -0.0593
     20 C           2.6873   -1.0023    6.2119 C.ar    1  UNL1       -0.0495
     21 C           3.8959   -0.4720    5.7409 C.ar    1  UNL1        0.0388
     22 C           4.7705    0.3009    6.6594 C.2     1  UNL1        0.2483
     23 O           4.4146    0.3934    7.8280 O.2     1  UNL1       -0.2699
     24 N           5.8991    0.9263    6.1250 N.am    1  UNL1       -0.2815
     25 C           6.8572    1.5777    6.9199 C.ar    1  UNL1        0.0342
     26 C           7.5773    2.6667    6.4232 C.ar    1  UNL1       -0.0404
     27 C           8.5986    3.2330    7.1938 C.ar    1  UNL1       -0.0595
     28 C           8.8831    2.7239    8.4627 C.ar    1  UNL1       -0.0500
     29 C           8.1730    1.6226    8.9552 C.ar    1  UNL1        0.0566
     30 C           8.5233    0.9823   10.2672 C.3     1  UNL1        0.4175
     31 F           9.8174    0.5584   10.2937 F       1  UNL1       -0.1659
     32 F           8.3797    1.8291   11.3210 F       1  UNL1       -0.1659
     33 F           7.7720   -0.1163   10.5606 F       1  UNL1       -0.1659
     34 C           7.1563    1.0701    8.1786 C.ar    1  UNL1       -0.0288
     35 C           4.2395   -0.6806    4.4191 C.ar    1  UNL1       -0.0284
     36 H           0.6833    0.6352    0.7423 H       1  UNL1        0.0230
     37 H           0.6874   -1.0117    0.0890 H       1  UNL1        0.0230
     38 H           0.4693    0.3728   -1.0048 H       1  UNL1        0.0230
     39 H           2.9854   -0.1803    0.5790 H       1  UNL1        0.0264
     40 H           2.7956    1.1477   -0.5086 H       1  UNL1        0.0264
     41 H           2.3354   -0.5038   -2.4531 H       1  UNL1        0.0298
     42 H           2.5930   -1.8191   -1.3006 H       1  UNL1        0.0298
     43 H           4.5196   -1.0378   -0.7894 H       1  UNL1        0.0696
     44 H           4.8648    0.2528   -1.8041 H       1  UNL1        0.0696
     45 H           6.3439   -1.6910   -4.5659 H       1  UNL1        0.0655
     46 H           8.7004   -2.3292   -4.9048 H       1  UNL1        0.0619
     47 H          10.1694   -2.7030   -2.9433 H       1  UNL1        0.0618
     48 H           9.2400   -2.6433   -0.6865 H       1  UNL1        0.0637
     49 H           7.6008   -2.2209    0.7728 H       1  UNL1        0.1467
     50 H           4.8276   -2.5527    0.1207 H       1  UNL1        0.0557
     51 H           5.5739   -0.8174    0.4500 H       1  UNL1        0.0557
     52 H           3.1883   -1.9209    1.5852 H       1  UNL1        0.1549
     53 H           1.5200   -2.4538    3.3695 H       1  UNL1        0.0636
     54 H           0.8507   -2.0127    5.7145 H       1  UNL1        0.0618
     55 H           2.4220   -0.8981    7.2624 H       1  UNL1        0.0625
     56 H           6.0814    0.9384    5.1329 H       1  UNL1        0.1551
     57 H           7.3234    3.1213    5.4690 H       1  UNL1        0.0636
     58 H           9.1828    4.0646    6.8057 H       1  UNL1        0.0618
     59 H           9.6691    3.1755    9.0653 H       1  UNL1        0.0623
     60 H           6.6328    0.1892    8.5453 H       1  UNL1        0.0642
     61 H           5.1553   -0.2767    4.0113 H       1  UNL1        0.0644
@<TRIPOS>BOND
     1     1     2    1
     2     2     3    1
     3     3     4    1
     4     4     5    1
     5     5     6    1
     6     6     7   ar
     7     7     8   ar
     8     8     9   ar
     9     9    10   ar
    10    10    11   ar
    11     6    11   ar
    12    11    12    1
    13    12    13    1
    14    13    14    1
    15    14    15    2
    16    14    16   am
    17    16    17    1
    18    17    18   ar
    19    18    19   ar
    20    19    20   ar
    21    20    21   ar
    22    21    22    1
    23    22    23    2
    24    22    24   am
    25    24    25    1
    26    25    26   ar
    27    26    27   ar
    28    27    28   ar
    29    28    29   ar
    30    29    30    1
    31    30    31    1
    32    30    32    1
    33    30    33    1
    34    29    34   ar
    35    25    34   ar
    36    21    35   ar
    37    17    35   ar
    38     1    36    1
    39     1    37    1
    40     1    38    1
    41     2    39    1
    42     2    40    1
    43     3    41    1
    44     3    42    1
    45     4    43    1
    46     4    44    1
    47     7    45    1
    48     8    46    1
    49     9    47    1
    50    10    48    1
    51    12    49    1
    52    13    50    1
    53    13    51    1
    54    16    52    1
    55    18    53    1
    56    19    54    1
    57    20    55    1
    58    24    56    1
    59    26    57    1
    60    27    58    1
    61    28    59    1
    62    34    60    1
    63    35    61    1
