@<TRIPOS>MOLECULE
*****
 52 56 0 0 0
SMALL
GASTEIGER

@<TRIPOS>ATOM
      1 C           0.8842    0.0246    0.0030 C.3     1  UNL1       -0.0427
      2 N           2.3878   -0.0811   -0.0835 N.4     1  UNL1        0.2369
      3 C           2.9219    0.1604   -1.4909 C.3     1  UNL1       -0.0277
      4 C           2.3000   -0.8420   -2.4638 C.3     1  UNL1        0.0144
      5 C           2.3735   -2.2422   -1.9352 C.ar    1  UNL1       -0.0130
      6 C           2.6426   -2.4991   -0.5963 C.ar    1  UNL1        0.0400
      7 S           2.6511   -4.1719   -0.2578 S.2     1  UNL1       -0.0724
      8 C           2.3346   -4.5601   -1.8875 C.ar    1  UNL1        0.0802
      9 C           2.1714   -3.4447   -2.6784 C.ar    1  UNL1        0.0680
     10 C           1.8605   -3.6659   -4.0784 C.2     1  UNL1        0.2198
     11 O           1.4153   -2.6261   -4.8147 O.2     1  UNL1       -0.4921
     12 N           1.9860   -4.7943   -4.6607 N.2     1  UNL1       -0.2228
     13 C           2.4260   -5.9369   -3.8508 C.3     1  UNL1        0.1433
     14 C           1.6857   -7.1633   -4.3566 C.ar    1  UNL1       -0.0053
     15 C           2.2807   -8.2113   -5.0840 C.ar    1  UNL1       -0.0515
     16 C           1.4850   -9.2267   -5.6638 C.ar    1  UNL1       -0.0188
     17 C           0.0982   -9.2277   -5.4626 C.ar    1  UNL1        0.1320
     18 O          -0.6727  -10.3191   -5.9633 O.3     1  UNL1       -0.4223
     19 C          -2.0381  -10.4177   -5.7022 C.2     1  UNL1        0.3444
     20 O          -2.7646   -9.6160   -5.1099 O.2     1  UNL1       -0.2445
     21 C          -2.6663  -11.6470   -6.1966 C.ar    1  UNL1        0.0594
     22 C          -3.9608  -11.5417   -6.7346 C.ar    1  UNL1       -0.0478
     23 C          -4.7156  -12.6872   -6.9728 C.ar    1  UNL1       -0.0610
     24 C          -4.1579  -13.9399   -6.7283 C.ar    1  UNL1       -0.0617
     25 C          -2.8690  -14.0457   -6.1960 C.ar    1  UNL1       -0.0610
     26 C          -2.1217  -12.8989   -5.9146 C.ar    1  UNL1       -0.0478
     27 C          -0.4747   -8.1777   -4.7526 C.ar    1  UNL1       -0.0188
     28 C           0.3005   -7.1704   -4.2052 C.ar    1  UNL1       -0.0515
     29 N           2.2266   -5.7972   -2.4076 N.pl3   1  UNL1       -0.3130
     30 C           2.8881   -1.4372    0.4396 C.3     1  UNL1        0.0005
     31 H           0.5868    0.9863   -0.4217 H       1  UNL1        0.0778
     32 H           0.5964   -0.0479    1.0524 H       1  UNL1        0.0778
     33 H           0.4264   -0.7939   -0.5597 H       1  UNL1        0.0778
     34 H           2.7802    0.6508    0.5226 H       1  UNL1        0.2034
     35 H           4.0112    0.0394   -1.4457 H       1  UNL1        0.0818
     36 H           2.6902    1.1915   -1.7734 H       1  UNL1        0.0818
     37 H           2.8047   -0.7714   -3.4305 H       1  UNL1        0.0366
     38 H           1.2435   -0.5882   -2.6222 H       1  UNL1        0.0366
     39 H           1.1929   -1.8414   -4.3094 H       1  UNL1        0.2937
     40 H           3.4981   -6.0707   -4.0365 H       1  UNL1        0.0805
     41 H           3.3606   -8.2371   -5.2254 H       1  UNL1        0.0623
     42 H           1.9579   -9.9893   -6.2802 H       1  UNL1        0.0654
     43 H          -4.3975  -10.5622   -6.9261 H       1  UNL1        0.0626
     44 H          -5.7430  -12.6024   -7.3200 H       1  UNL1        0.0618
     45 H          -4.7357  -14.8367   -6.9408 H       1  UNL1        0.0618
     46 H          -2.4627  -15.0277   -5.9673 H       1  UNL1        0.0618
     47 H          -1.1531  -12.9871   -5.4320 H       1  UNL1        0.0626
     48 H          -1.5364   -8.0652   -4.6029 H       1  UNL1        0.0654
     49 H          -0.1982   -6.3584   -3.6831 H       1  UNL1        0.0623
     50 H           2.1418   -6.6525   -1.8668 H       1  UNL1        0.1489
     51 H           3.9606   -1.3051    0.6304 H       1  UNL1        0.0872
     52 H           2.3809   -1.6166    1.3930 H       1  UNL1        0.0872
@<TRIPOS>UNITY_ATOM_ATTR
2 1
charge 1
@<TRIPOS>BOND
     1     1     2    1
     2     2     3    1
     3     3     4    1
     4     4     5    1
     5     5     6   ar
     6     6     7   ar
     7     7     8   ar
     8     8     9   ar
     9     5     9   ar
    10     9    10    1
    11    10    11    1
    12    10    12    2
    13    12    13    1
    14    13    14    1
    15    14    15   ar
    16    15    16   ar
    17    16    17   ar
    18    17    18    1
    19    18    19    1
    20    19    20    2
    21    19    21    1
    22    21    22   ar
    23    22    23   ar
    24    23    24   ar
    25    24    25   ar
    26    25    26   ar
    27    21    26   ar
    28    17    27   ar
    29    27    28   ar
    30    14    28   ar
    31    13    29    1
    32     8    29    1
    33     6    30    1
    34     2    30    1
    35     1    31    1
    36     1    32    1
    37     1    33    1
    38     2    34    1
    39     3    35    1
    40     3    36    1
    41     4    37    1
    42     4    38    1
    43    11    39    1
    44    13    40    1
    45    15    41    1
    46    16    42    1
    47    22    43    1
    48    23    44    1
    49    24    45    1
    50    25    46    1
    51    26    47    1
    52    27    48    1
    53    28    49    1
    54    29    50    1
    55    30    51    1
    56    30    52    1
