@<TRIPOS>MOLECULE
*****
 51 52 0 0 0
SMALL
GASTEIGER

@<TRIPOS>ATOM
      1 C           1.1318   -0.2224    0.2035 C.2     1  UNL1       -0.0995
      2 C           2.4657   -0.4237    0.3031 C.2     1  UNL1       -0.0542
      3 C           3.2873   -0.5317   -0.9566 C.3     1  UNL1        0.1077
      4 O           4.6807   -0.2079   -0.9094 O.3     1  UNL1       -0.4843
      5 C           5.4006   -0.1221   -2.1017 C.ar    1  UNL1        0.1624
      6 C           6.5916   -0.8826   -2.0737 C.ar    1  UNL1       -0.0156
      7 C           7.5858   -0.7897   -3.0880 C.ar    1  UNL1       -0.0459
      8 C           7.4015    0.0173   -4.2202 C.ar    1  UNL1        0.0418
      9 C           8.4169    0.0144   -5.3615 C.2     1  UNL1        0.2603
     10 O           9.4198   -0.6785   -5.2873 O.2     1  UNL1       -0.2687
     11 N           8.1459    0.7949   -6.4989 N.am    1  UNL1       -0.2292
     12 N           9.0371    0.7788   -7.6293 N.am    1  UNL1       -0.2180
     13 C           8.7269    1.5665   -8.7343 C.2     1  UNL1        0.3160
     14 O           7.7248    2.2632   -8.7917 O.2     1  UNL1       -0.2513
     15 N           9.6456    1.5055   -9.7738 N.am    1  UNL1       -0.2982
     16 C           9.4513    2.2936  -10.9976 C.3     1  UNL1        0.0147
     17 C          10.5622    2.1100  -12.0387 C.3     1  UNL1       -0.0191
     18 C          10.3271    2.9334  -13.3141 C.3     1  UNL1        0.0296
     19 N          11.4040    2.7291  -14.3094 N.ar    1  UNL1       -0.2957
     20 C          11.8257    1.5028  -14.8189 C.ar    1  UNL1        0.0732
     21 C          12.8333    1.7597  -15.7038 C.ar    1  UNL1        0.1870
     22 N          12.9788    3.1252  -15.7326 N.ar    1  UNL1       -0.2011
     23 C          12.1117    3.7103  -14.8986 C.ar    1  UNL1        0.2463
     24 C           6.2383    0.7815   -4.2441 C.ar    1  UNL1       -0.0041
     25 C           5.2500    0.7440   -3.2145 C.ar    1  UNL1        0.1622
     26 O           4.3101    1.6958   -3.5446 O.3     1  UNL1       -0.4914
     27 C           3.1467    1.7180   -2.7785 C.3     1  UNL1        0.0790
     28 H           0.5093    0.0257    1.0569 H       1  UNL1        0.0533
     29 H           0.6229   -0.2269   -0.7640 H       1  UNL1        0.0533
     30 H           2.9597   -0.2616    1.2532 H       1  UNL1        0.0600
     31 H           2.8199    0.3314   -1.3361 H       1  UNL1        0.0742
     32 H           3.0424   -1.3615   -1.6243 H       1  UNL1        0.0742
     33 H           6.7696   -1.5614   -1.2373 H       1  UNL1        0.0655
     34 H           8.5120   -1.3514   -2.9643 H       1  UNL1        0.0626
     35 H           7.3182    1.3681   -6.6203 H       1  UNL1        0.1732
     36 H           9.8524    0.1824   -7.5429 H       1  UNL1        0.1744
     37 H          10.4571    0.9142   -9.6718 H       1  UNL1        0.1503
     38 H           9.3787    3.3503  -10.7151 H       1  UNL1        0.0463
     39 H           8.4869    2.0062  -11.4338 H       1  UNL1        0.0463
     40 H          10.6334    1.0485  -12.3009 H       1  UNL1        0.0297
     41 H          11.5329    2.3888  -11.6123 H       1  UNL1        0.0297
     42 H          10.2809    4.0041  -13.0808 H       1  UNL1        0.0494
     43 H           9.3832    2.6577  -13.7993 H       1  UNL1        0.0494
     44 H          11.3603    0.5959  -14.4733 H       1  UNL1        0.0871
     45 H          13.4662    1.1458  -16.3210 H       1  UNL1        0.1392
     46 H          13.6495    3.6302  -16.3088 H       1  UNL1        0.4538
     47 H          12.0104    4.7773  -14.7342 H       1  UNL1        0.1600
     48 H           6.0553    1.4775   -5.0580 H       1  UNL1        0.0663
     49 H           2.4111    2.4688   -3.0602 H       1  UNL1        0.0660
     50 H           3.4401    1.9701   -1.7509 H       1  UNL1        0.0660
     51 H           2.6346    0.7672   -2.9790 H       1  UNL1        0.0660
@<TRIPOS>UNITY_ATOM_ATTR
22 1
charge 1
@<TRIPOS>BOND
     1     1     2    2
     2     2     3    1
     3     3     4    1
     4     4     5    1
     5     5     6   ar
     6     6     7   ar
     7     7     8   ar
     8     8     9    1
     9     9    10    2
    10     9    11   am
    11    11    12    1
    12    12    13   am
    13    13    14    2
    14    13    15   am
    15    15    16    1
    16    16    17    1
    17    17    18    1
    18    18    19    1
    19    19    20   ar
    20    20    21   ar
    21    21    22   ar
    22    22    23   ar
    23    19    23   ar
    24     8    24   ar
    25    24    25   ar
    26     5    25   ar
    27    25    26    1
    28    26    27    1
    29     1    28    1
    30     1    29    1
    31     2    30    1
    32     3    31    1
    33     3    32    1
    34     6    33    1
    35     7    34    1
    36    11    35    1
    37    12    36    1
    38    15    37    1
    39    16    38    1
    40    16    39    1
    41    17    40    1
    42    17    41    1
    43    18    42    1
    44    18    43    1
    45    20    44    1
    46    21    45    1
    47    22    46    1
    48    23    47    1
    49    24    48    1
    50    27    49    1
    51    27    50    1
    52    27    51    1
