REMARK  5 active torsions:
REMARK  status: ('A' for Active; 'I' for Inactive)
REMARK    1  A    between atoms: CA_2  and  N_5 
REMARK    2  A    between atoms: CA_2  and  C_3 
REMARK    3  A    between atoms: C_3  and  O_4 
REMARK       I    between atoms: N_5  and  C_6 
REMARK    4  A    between atoms: C_6  and  C_8 
REMARK       I    between atoms: C_8  and  N_10 
REMARK    5  A    between atoms: N_10  and  C_11 
ROOT
ATOM      1  C   UNK d   0       5.008  -2.081   2.300  0.00  0.00     0.314 C 
ATOM      2  O   UNK d   0       4.092  -2.592   2.939  0.00  0.00    -0.262 OA
ATOM      3  N   UNK d   0       6.378  -2.225   2.534  0.00  0.00    -0.318 N 
ATOM      4  H   UNK d   0       6.990  -1.548   2.090  0.00  0.00     0.169 HD
ENDROOT
BRANCH   3   5
ATOM      5  C   UNK d   0       6.863  -3.040   3.593  0.00  0.00     0.046 A 
ATOM      6  C   UNK d   0       6.286  -4.308   3.742  0.00  0.00     0.030 A 
ATOM      7  C   UNK d   0       6.590  -5.114   4.831  0.00  0.00     0.003 A 
ATOM      8  C   UNK d   0       7.488  -4.665   5.790  0.00  0.00     0.012 A 
ATOM      9  C   UNK d   0       8.148  -3.438   5.635  0.00  0.00    -0.024 A 
ATOM     10  C   UNK d   0       9.075  -3.034   6.612  0.00  0.00     0.012 A 
ATOM     11  C   UNK d   0       7.865  -2.607   4.512  0.00  0.00     0.001 A 
ATOM     12  C   UNK d   0       9.746  -1.820   6.500  0.00  0.00     0.001 A 
ATOM     13  C   UNK d   0       9.493  -0.996   5.410  0.00  0.00     0.001 A 
ATOM     14  C   UNK d   0       8.562  -1.378   4.433  0.00  0.00     0.014 A 
ENDBRANCH   3   5
BRANCH   1  15
ATOM     15  C   UNK d   0       4.628  -1.111   1.158  0.00  0.00     0.310 C 
ATOM     16  N   ALA d   1       3.266  -0.926   0.989  0.00  0.00    -0.347 N 
ATOM     17  H   ALA d   1       2.661  -1.580   1.492  0.00  0.00     0.163 HD
ATOM     18  O   UNK d   0       5.514  -0.568   0.505  0.00  0.00    -0.262 OA
BRANCH  16  19
ATOM     19  CA  ALA d   1       2.661  -0.054  -0.027  0.00  0.00     0.104 C 
ATOM     20  CB  ALA d   1       3.113   1.394   0.163  0.00  0.00     0.034 C 
BRANCH  19  21
ATOM     21  C   ALA d   1       1.111  -0.083   0.025  0.00  0.00     0.189 C 
BRANCH  21  22
ATOM     22  O   ALA d   1       0.667  -0.788   1.183  0.00  0.00    -0.399 OA
ATOM     23  H   ALA d   1       1.140  -0.384   1.934  0.00  0.00     0.209 HD
ENDBRANCH  21  22
ENDBRANCH  19  21
ENDBRANCH  16  19
ENDBRANCH   1  15
TORSDOF 5
