@<TRIPOS>MOLECULE
*****
 49 52 0 0 0
SMALL
GASTEIGER

@<TRIPOS>ATOM
      1 O           1.1794   -0.1003   -0.2014 O.2     1  UNL1       -0.2686
      2 C           2.3866   -0.0003   -0.1389 C.2     1  UNL1        0.2606
      3 N           3.0206    0.7055    0.9186 N.am    1  UNL1       -0.3060
      4 C           2.3576    1.4859    1.9567 C.3     1  UNL1        0.0372
      5 C           3.3180    2.2209    2.8987 C.ar    1  UNL1       -0.0286
      6 C           4.1775    1.5937    3.7992 C.ar    1  UNL1       -0.0570
      7 C           4.8612    2.3512    4.7707 C.ar    1  UNL1       -0.0597
      8 C           4.7629    3.7557    4.8077 C.ar    1  UNL1       -0.0405
      9 C           3.9467    4.4157    3.8874 C.ar    1  UNL1        0.0337
     10 N           3.7885    5.8378    3.9430 N.am    1  UNL1       -0.2853
     11 C           2.9414    6.5528    3.0973 C.2     1  UNL1        0.2203
     12 O           2.3193    6.0505    2.1481 O.2     1  UNL1       -0.2752
     13 C           2.6569    8.0175    3.3237 C.3     1  UNL1        0.0359
     14 C           3.5462    9.1294    3.9060 C.3     1  UNL1       -0.0419
     15 C           2.8803   10.0883    2.8723 C.3     1  UNL1       -0.0517
     16 C           2.6936    8.8517    1.9916 C.3     1  UNL1       -0.0419
     17 C           3.2492    3.6214    2.9574 C.ar    1  UNL1       -0.0358
     18 C           3.3521   -0.6333   -1.1044 C.ar    1  UNL1        0.1029
     19 C           4.6930   -0.7131   -0.8424 C.ar    1  UNL1       -0.0239
     20 C           5.2512   -1.7103   -1.6361 C.ar    1  UNL1        0.0071
     21 C           6.4260   -2.4287   -1.4210 C.ar    1  UNL1       -0.0521
     22 C           7.0397   -3.1057   -2.4433 C.ar    1  UNL1       -0.0547
     23 C           6.4722   -3.0494   -3.7000 C.ar    1  UNL1        0.0178
     24 C           5.2132   -2.3974   -3.9658 C.ar    1  UNL1        0.2967
     25 N           5.0000   -2.2207   -5.4369 N.pl3   1  UNL1        0.0818
     26 O           5.7666   -2.8290   -6.2135 O.2     1  UNL1        0.0415
     27 O           4.1420   -1.4188   -5.8151 O.co2   1  UNL1       -0.5760
     28 C           4.5091   -1.8140   -2.8143 C.ar    1  UNL1        0.1251
     29 N           3.2210   -1.3554   -2.3491 N.ar    1  UNL1       -0.3453
     30 H           4.0156    0.8181    0.9198 H       1  UNL1        0.1494
     31 H           1.7081    0.8419    2.5576 H       1  UNL1        0.0512
     32 H           1.7072    2.2120    1.4539 H       1  UNL1        0.0512
     33 H           4.2999    0.5142    3.7784 H       1  UNL1        0.0621
     34 H           5.4540    1.8358    5.5264 H       1  UNL1        0.0618
     35 H           5.3255    4.2979    5.5651 H       1  UNL1        0.0636
     36 H           4.2646    6.3329    4.6879 H       1  UNL1        0.1548
     37 H           1.6707    8.0623    3.8154 H       1  UNL1        0.0394
     38 H           4.6247    9.0185    3.7632 H       1  UNL1        0.0272
     39 H           3.3398    9.3874    4.9487 H       1  UNL1        0.0272
     40 H           3.5135   10.8706    2.4492 H       1  UNL1        0.0266
     41 H           1.9265   10.5319    3.1851 H       1  UNL1        0.0266
     42 H           3.5610    8.6458    1.3486 H       1  UNL1        0.0272
     43 H           1.7929    8.8035    1.3733 H       1  UNL1        0.0272
     44 H           2.5783    4.0670    2.2385 H       1  UNL1        0.0639
     45 H           5.2097   -0.2756   -0.0069 H       1  UNL1        0.0646
     46 H           6.8350   -2.4331   -0.4194 H       1  UNL1        0.0624
     47 H           7.9890   -3.5981   -2.2620 H       1  UNL1        0.0620
     48 H           7.0630   -3.5169   -4.4944 H       1  UNL1        0.0686
     49 H           2.3231   -1.7047   -2.6761 H       1  UNL1        0.1662
@<TRIPOS>UNITY_ATOM_ATTR
25 1
charge 1
27 1
charge -1
@<TRIPOS>BOND
     1     1     2    2
     2     2     3   am
     3     3     4    1
     4     4     5    1
     5     5     6   ar
     6     6     7   ar
     7     7     8   ar
     8     8     9   ar
     9     9    10    1
    10    10    11   am
    11    11    12    2
    12    11    13    1
    13    13    14    1
    14    14    15    1
    15    15    16    1
    16    13    16    1
    17     9    17   ar
    18     5    17   ar
    19     2    18    1
    20    18    19   ar
    21    19    20   ar
    22    20    21   ar
    23    21    22   ar
    24    22    23   ar
    25    23    24   ar
    26    24    25    1
    27    25    26    2
    28    25    27    1
    29    24    28   ar
    30    20    28   ar
    31    28    29   ar
    32    18    29   ar
    33     3    30    1
    34     4    31    1
    35     4    32    1
    36     6    33    1
    37     7    34    1
    38     8    35    1
    39    10    36    1
    40    13    37    1
    41    14    38    1
    42    14    39    1
    43    15    40    1
    44    15    41    1
    45    16    42    1
    46    16    43    1
    47    17    44    1
    48    19    45    1
    49    21    46    1
    50    22    47    1
    51    23    48    1
    52    29    49    1
