REMARK  5 active torsions:
REMARK  status: ('A' for Active; 'I' for Inactive)
REMARK    1  A    between atoms: C_2  and  C_3 
REMARK       I    between atoms: C_2  and  N_11 
REMARK    2  A    between atoms: C_4  and  C_5 
REMARK    3  A    between atoms: N_11  and  C_12 
REMARK    4  A    between atoms: C_12  and  C_13 
REMARK    5  A    between atoms: C_13  and  O_14 
ROOT
ATOM      1  O   UNL d   1       1.046   0.080  -0.054  0.00  0.00    -0.269 OA
ATOM      2  C   UNL d   1       2.274   0.039  -0.087  0.00  0.00     0.241 C 
ATOM      3  N   UNL d   1       3.011   0.930   0.641  0.00  0.00    -0.356 N 
ATOM      4  H   UNL d   1       2.443   1.597   1.153  0.00  0.00     0.162 HD
ENDROOT
BRANCH   2   5
ATOM      5  C   UNL d   1       3.019  -0.956  -0.898  0.00  0.00     0.075 C 
ATOM      6  C   UNL d   1       2.376  -1.863  -1.648  0.00  0.00     0.017 C 
BRANCH   6   7
ATOM      7  C   UNL d   1       3.087  -2.848  -2.475  0.00  0.00    -0.036 A 
ATOM      8  C   UNL d   1       2.647  -3.087  -3.782  0.00  0.00     0.011 A 
ATOM      9  C   UNL d   1       3.249  -4.076  -4.565  0.00  0.00     0.001 A 
ATOM     10  C   UNL d   1       4.338  -4.791  -4.072  0.00  0.00     0.000 A 
ATOM     11  C   UNL d   1       4.791  -4.557  -2.776  0.00  0.00     0.001 A 
ATOM     12  C   UNL d   1       4.159  -3.602  -1.975  0.00  0.00     0.011 A 
ENDBRANCH   6   7
ENDBRANCH   2   5
BRANCH   3  13
ATOM     13  C   UNL d   1       4.456   1.029   0.702  0.00  0.00     0.148 C 
BRANCH  13  14
ATOM     14  C   UNL d   1       4.966   2.144   1.607  0.00  0.00     0.183 C 
BRANCH  14  15
ATOM     15  O   UNL d   1       6.390   2.164   1.607  0.00  0.00    -0.399 OA
ATOM     16  H   UNL d   1       6.703   1.312   1.959  0.00  0.00     0.209 HD
ENDBRANCH  14  15
ENDBRANCH  13  14
ENDBRANCH   3  13
TORSDOF 5
