REMARK  9 active torsions:
REMARK  status: ('A' for Active; 'I' for Inactive)
REMARK       I    between atoms: C_2  and  N_3 
REMARK       I    between atoms: C_2  and  N_23 
REMARK    1  A    between atoms: N_3  and  C_4 
REMARK    2  A    between atoms: C_4  and  C_5 
REMARK    3  A    between atoms: C_5  and  C_6 
REMARK    4  A    between atoms: C_6  and  C_7 
REMARK    5  A    between atoms: C_7  and  C_8 
REMARK    6  A    between atoms: C_8  and  C_9 
REMARK    7  A    between atoms: C_9  and  N_10 
REMARK       I    between atoms: N_10  and  C_11 
REMARK       I    between atoms: C_11  and  N_13 
REMARK    8  A    between atoms: N_13  and  C_14 
REMARK    9  A    between atoms: N_23  and  C_24 
ROOT
ATOM      1  C   UNL d   1       2.459  -3.474   3.734  0.00  0.00     0.002 C 
ENDROOT
BRANCH   1   2
ATOM      2  C   UNL d   1       3.199  -2.567   2.746  0.00  0.00     0.020 C 
BRANCH   2   3
ATOM      3  C   UNL d   1       2.222  -1.771   1.878  0.00  0.00     0.124 C 
BRANCH   3   4
ATOM      4  N   UNL d   1       2.917  -0.919   0.936  0.00  0.00    -0.343 N 
ATOM      5  C   UNL d   1       2.278  -0.141   0.016  0.00  0.00     0.322 C 
ATOM      6  O   UNL d   1       1.050  -0.066  -0.041  0.00  0.00    -0.247 OA
ATOM      7  N   UNL d   1       3.042   0.632  -0.812  0.00  0.00    -0.287 N 
ATOM      8  H   UNL d   1       2.536   1.388  -1.253  0.00  0.00     0.172 HD
ATOM      9  H   UNL d   1       3.926  -0.918   0.947  0.00  0.00     0.164 HD
BRANCH   7  10
ATOM     10  C   UNL d   1       4.409   0.724  -0.847  0.00  0.00     0.175 C 
ATOM     11  N   UNL d   1       5.068   1.842  -1.027  0.00  0.00    -0.223 NA
ATOM     12  C   UNL d   1       6.434   1.588  -0.941  0.00  0.00     0.076 A 
ATOM     13  C   UNL d   1       7.473   2.543  -0.947  0.00  0.00     0.033 A 
ATOM     14  C   UNL d   1       6.779   0.238  -0.840  0.00  0.00     0.037 A 
ATOM     15  C   UNL d   1       8.808   2.123  -0.870  0.00  0.00     0.002 A 
ATOM     16  C   UNL d   1       9.121   0.770  -0.793  0.00  0.00     0.002 A 
ATOM     17  C   UNL d   1       8.113  -0.195  -0.778  0.00  0.00     0.021 A 
ATOM     18  S   UNL d   1       5.346  -0.703  -0.803  0.00  0.00    -0.050 SA
ENDBRANCH   7  10
ENDBRANCH   3   4
ENDBRANCH   2   3
ENDBRANCH   1   2
BRANCH   1  19
ATOM     19  C   UNL d   1       3.428  -4.278   4.611  0.00  0.00     0.002 C 
BRANCH  19  20
ATOM     20  C   UNL d   1       2.678  -5.186   5.603  0.00  0.00     0.020 C 
BRANCH  20  21
ATOM     21  C   UNL d   1       3.642  -5.990   6.486  0.00  0.00     0.124 C 
BRANCH  21  22
ATOM     22  N   UNL d   1       2.991  -6.856   7.472  0.00  0.00    -0.343 N 
ATOM     23  C   UNL d   1       3.764  -7.626   8.334  0.00  0.00     0.322 C 
ATOM     24  O   UNL d   1       4.993  -7.606   8.256  0.00  0.00    -0.247 OA
ATOM     25  N   UNL d   1       3.032  -8.385   9.227  0.00  0.00    -0.287 N 
ATOM     26  H   UNL d   1       2.086  -8.629   8.980  0.00  0.00     0.172 HD
ATOM     27  H   UNL d   1       1.982  -6.900   7.501  0.00  0.00     0.164 HD
BRANCH  25  28
ATOM     28  C   UNL d   1       3.628  -9.289  10.101  0.00  0.00     0.175 A 
ATOM     29  N   UNL d   1       3.099 -10.452  10.413  0.00  0.00    -0.223 NA
ATOM     30  C   UNL d   1       3.907 -11.111  11.347  0.00  0.00     0.076 A 
ATOM     31  C   UNL d   1       3.720 -12.418  11.859  0.00  0.00     0.033 A 
ATOM     32  C   UNL d   1       4.991 -10.369  11.823  0.00  0.00     0.037 A 
ATOM     33  C   UNL d   1       4.586 -12.931  12.838  0.00  0.00     0.002 A 
ATOM     34  C   UNL d   1       5.636 -12.159  13.318  0.00  0.00     0.002 A 
ATOM     35  C   UNL d   1       5.857 -10.870  12.819  0.00  0.00     0.021 A 
ATOM     36  S   UNL d   1       5.024  -8.855  10.992  0.00  0.00    -0.050 SA
ENDBRANCH  25  28
ENDBRANCH  21  22
ENDBRANCH  20  21
ENDBRANCH  19  20
ENDBRANCH   1  19
TORSDOF 9
