@<TRIPOS>MOLECULE
*****
 51 55 0 0 0
SMALL
GASTEIGER

@<TRIPOS>ATOM
      1 C           2.4935   -0.0443    0.0157 C.3     1  UNL1       -0.0388
      2 C           0.9865    0.0140    0.0505 C.ar    1  UNL1       -0.0334
      3 C           0.2687   -1.2000    0.0280 C.ar    1  UNL1        0.0192
      4 C          -1.1309   -1.1877    0.0214 C.ar    1  UNL1        0.2734
      5 N          -1.8683   -2.4619    0.0077 N.pl3   1  UNL1        0.0796
      6 O          -1.2157   -3.5100    0.0131 O.2     1  UNL1        0.0414
      7 O          -3.1112   -2.4051   -0.0037 O.co2   1  UNL1       -0.5760
      8 C          -1.8217    0.0290    0.0278 C.ar    1  UNL1        0.0163
      9 C          -1.1092    1.2408    0.0649 C.ar    1  UNL1       -0.0444
     10 C           0.2958    1.2556    0.0819 C.ar    1  UNL1        0.0206
     11 C           1.0349    2.5170   -0.0614 C.ar    1  UNL1        0.1356
     12 C           1.9032    2.9178   -1.0562 C.ar    1  UNL1       -0.0155
     13 C           2.4297    4.1574   -0.6750 C.ar    1  UNL1       -0.0163
     14 C           1.8382    4.4932    0.5236 C.ar    1  UNL1        0.1480
     15 C           2.0367    5.7431    1.3487 C.3     1  UNL1        0.1759
     16 N           3.4457    5.7185    1.8278 N.2     1  UNL1       -0.2196
     17 C           4.0370    6.8520    1.9097 C.2     1  UNL1        0.2199
     18 O           5.3192    6.9023    2.3204 O.2     1  UNL1       -0.4921
     19 C           3.4521    8.1192    1.5691 C.ar    1  UNL1        0.0680
     20 C           2.2657    8.1058    0.8843 C.ar    1  UNL1        0.0803
     21 S           1.7459    9.6736    0.4608 S.2     1  UNL1       -0.0724
     22 C           3.0785   10.3924    1.2543 C.ar    1  UNL1        0.0400
     23 C           3.9224    9.4410    1.8086 C.ar    1  UNL1       -0.0130
     24 C           5.1831    9.8141    2.5314 C.3     1  UNL1        0.0144
     25 C           5.1664   11.2960    2.9213 C.3     1  UNL1       -0.0277
     26 N           4.7721   12.1534    1.7183 N.4     1  UNL1        0.2369
     27 C           5.7039   11.9715    0.5461 C.3     1  UNL1       -0.0427
     28 C           3.3123   11.8735    1.3282 C.3     1  UNL1        0.0005
     29 N           1.6597    6.9429    0.5865 N.pl3   1  UNL1       -0.3106
     30 O           0.9605    3.4940    0.9104 O.2     1  UNL1       -0.4559
     31 H           2.8648   -1.0729    0.0483 H       1  UNL1        0.0278
     32 H           2.9088    0.4896    0.8758 H       1  UNL1        0.0278
     33 H           2.8740    0.3942   -0.9112 H       1  UNL1        0.0278
     34 H           0.8101   -2.1455    0.0041 H       1  UNL1        0.0688
     35 H          -2.9103    0.0511   -0.0119 H       1  UNL1        0.0685
     36 H          -1.6647    2.1761    0.0337 H       1  UNL1        0.0627
     37 H           2.1479    2.3447   -1.9375 H       1  UNL1        0.0655
     38 H           3.1594    4.7615   -1.1914 H       1  UNL1        0.0653
     39 H           1.3924    5.6897    2.2365 H       1  UNL1        0.0837
     40 H           5.6111    5.9928    2.4992 H       1  UNL1        0.2937
     41 H           6.0406    9.6115    1.8767 H       1  UNL1        0.0366
     42 H           5.3112    9.2037    3.4290 H       1  UNL1        0.0366
     43 H           6.1432   11.6382    3.2761 H       1  UNL1        0.0818
     44 H           4.4205   11.4903    3.7026 H       1  UNL1        0.0818
     45 H           4.8339   13.1374    2.0085 H       1  UNL1        0.2034
     46 H           5.6020   10.9571    0.1513 H       1  UNL1        0.0778
     47 H           6.7252   12.1427    0.8946 H       1  UNL1        0.0778
     48 H           5.4282   12.6935   -0.2239 H       1  UNL1        0.0778
     49 H           3.1277   12.4007    0.3867 H       1  UNL1        0.0872
     50 H           2.7008   12.3333    2.1146 H       1  UNL1        0.0872
     51 H           0.8924    6.8443   -0.0701 H       1  UNL1        0.1490
@<TRIPOS>UNITY_ATOM_ATTR
5 1
charge 1
7 1
charge -1
26 1
charge 1
@<TRIPOS>BOND
     1     1     2    1
     2     2     3   ar
     3     3     4   ar
     4     4     5    1
     5     5     6    2
     6     5     7    1
     7     4     8   ar
     8     8     9   ar
     9     9    10   ar
    10     2    10   ar
    11    10    11    1
    12    11    12   ar
    13    12    13   ar
    14    13    14   ar
    15    14    15    1
    16    15    16    1
    17    16    17    2
    18    17    18    1
    19    17    19    1
    20    19    20   ar
    21    20    21   ar
    22    21    22   ar
    23    22    23   ar
    24    19    23   ar
    25    23    24    1
    26    24    25    1
    27    25    26    1
    28    26    27    1
    29    26    28    1
    30    22    28    1
    31    20    29    1
    32    15    29    1
    33    14    30   ar
    34    11    30   ar
    35     1    31    1
    36     1    32    1
    37     1    33    1
    38     3    34    1
    39     8    35    1
    40     9    36    1
    41    12    37    1
    42    13    38    1
    43    15    39    1
    44    18    40    1
    45    24    41    1
    46    24    42    1
    47    25    43    1
    48    25    44    1
    49    26    45    1
    50    27    46    1
    51    27    47    1
    52    27    48    1
    53    28    49    1
    54    28    50    1
    55    29    51    1
