@<TRIPOS>MOLECULE
*****
 65 67 0 0 0
SMALL
GASTEIGER

@<TRIPOS>ATOM
      1 C           4.8258    2.5463   -2.8279 C.3     1  UNL1       -0.0605
      2 C           4.3193    2.4163   -1.4130 C.3     1  UNL1       -0.0153
      3 C           4.9527    1.2346   -0.6963 C.3     1  UNL1       -0.0317
      4 N           4.6524    1.2856    0.7979 N.4     1  UNL1        0.2405
      5 C           3.2079    1.2804    1.0685 C.3     1  UNL1        0.0011
      6 C           2.6868    0.9891    2.4377 C.ar    1  UNL1        0.0813
      7 C           3.3230    0.4247    3.5968 C.ar    1  UNL1        0.0723
      8 C           4.7605    0.0440    3.8274 C.3     1  UNL1       -0.0200
      9 N           2.4281    0.1796    4.5610 N.ar    1  UNL1       -0.1680
     10 N           1.2056    0.4415    4.0135 N.ar    1  UNL1       -0.1995
     11 C          -0.0100    0.0820    4.6586 C.ar    1  UNL1        0.0691
     12 C          -0.3175    0.6522    5.8898 C.ar    1  UNL1       -0.0361
     13 C          -1.5475    0.3719    6.4983 C.ar    1  UNL1       -0.0598
     14 C          -2.4762   -0.4700    5.8802 C.ar    1  UNL1       -0.0616
     15 C          -2.1761   -1.0414    4.6515 C.ar    1  UNL1       -0.0598
     16 C          -0.9530   -0.7596    4.0347 C.ar    1  UNL1       -0.0361
     17 C           1.3363    0.9709    2.7450 C.ar    1  UNL1        0.2324
     18 O           0.2086    1.2239    2.0405 O.3     1  UNL1       -0.4338
     19 C           0.2023    1.4564    0.6969 C.ar    1  UNL1        0.1717
     20 C          -0.3442    2.7074    0.3403 C.ar    1  UNL1       -0.0156
     21 C          -0.4084    3.1096   -0.9913 C.ar    1  UNL1       -0.0581
     22 C           0.1503    2.3039   -1.9740 C.ar    1  UNL1       -0.0581
     23 C           0.6739    1.0552   -1.6282 C.ar    1  UNL1       -0.0163
     24 C           0.6454    0.5757   -0.3074 C.ar    1  UNL1        0.1622
     25 O           1.1664   -0.6922   -0.2267 O.3     1  UNL1       -0.4914
     26 C           1.3146   -1.3957    0.9957 C.3     1  UNL1        0.0790
     27 C           5.2207    2.4264    1.5713 C.3     1  UNL1       -0.0050
     28 C           6.7261    2.3663    1.5823 C.3     1  UNL1        0.0946
     29 O           7.2374    2.5431    0.2669 O.3     1  UNL1       -0.3865
     30 C           7.2050    3.4803    2.4850 C.3     1  UNL1       -0.0247
     31 C           8.7118    3.4740    2.5061 C.3     1  UNL1       -0.0627
     32 H           4.3130    3.3772   -3.3202 H       1  UNL1        0.0232
     33 H           4.6342    1.6303   -3.3923 H       1  UNL1        0.0232
     34 H           5.9003    2.7504   -2.8304 H       1  UNL1        0.0232
     35 H           3.2350    2.2856   -1.4458 H       1  UNL1        0.0314
     36 H           4.5120    3.3576   -0.8927 H       1  UNL1        0.0314
     37 H           6.0309    1.1634   -0.8360 H       1  UNL1        0.0814
     38 H           4.5636    0.2802   -1.0750 H       1  UNL1        0.0814
     39 H           5.0228    0.3890    1.1291 H       1  UNL1        0.2038
     40 H           2.8042    2.2373    0.7192 H       1  UNL1        0.0869
     41 H           2.8992    0.4972    0.3997 H       1  UNL1        0.0869
     42 H           5.3921    0.1909    2.9544 H       1  UNL1        0.0293
     43 H           4.8803   -1.0165    4.0674 H       1  UNL1        0.0293
     44 H           5.2081    0.6514    4.6197 H       1  UNL1        0.0293
     45 H           0.3576    1.3662    6.3549 H       1  UNL1        0.0639
     46 H          -1.7926    0.8182    7.4579 H       1  UNL1        0.0618
     47 H          -3.4340   -0.6738    6.3553 H       1  UNL1        0.0618
     48 H          -2.8942   -1.7068    4.1724 H       1  UNL1        0.0618
     49 H          -0.7701   -1.2399    3.0864 H       1  UNL1        0.0639
     50 H          -0.7308    3.3747    1.1103 H       1  UNL1        0.0655
     51 H          -0.8965    4.0445   -1.2630 H       1  UNL1        0.0619
     52 H           0.1551    2.6325   -3.0108 H       1  UNL1        0.0619
     53 H           1.1148    0.4410   -2.4131 H       1  UNL1        0.0655
     54 H           1.7215   -2.3909    0.8161 H       1  UNL1        0.0660
     55 H           0.3852   -1.4553    1.5427 H       1  UNL1        0.0660
     56 H           2.1030   -0.9880    1.6070 H       1  UNL1        0.0660
     57 H           4.8488    2.3714    2.5977 H       1  UNL1        0.0840
     58 H           4.8282    3.3522    1.1450 H       1  UNL1        0.0840
     59 H           7.0674    1.3899    1.9495 H       1  UNL1        0.0647
     60 H           6.9448    3.4048   -0.0804 H       1  UNL1        0.2100
     61 H           6.7995    3.3512    3.4968 H       1  UNL1        0.0289
     62 H           6.8390    4.4404    2.1012 H       1  UNL1        0.0289
     63 H           9.0741    2.5220    2.9065 H       1  UNL1        0.0231
     64 H           9.0796    4.2933    3.1217 H       1  UNL1        0.0231
     65 H           9.1094    3.5904    1.4931 H       1  UNL1        0.0231
@<TRIPOS>UNITY_ATOM_ATTR
4 1
charge 1
@<TRIPOS>BOND
     1     1     2    1
     2     2     3    1
     3     5     6    1
     4     6     7   ar
     5     7     8    1
     6     7     9   ar
     7     9    10   ar
     8    10    11    1
     9    11    12   ar
    10    12    13   ar
    11    13    14   ar
    12    14    15   ar
    13    15    16   ar
    14    11    16   ar
    15    10    17   ar
    16     6    17   ar
    17    17    18    1
    18    18    19    1
    19    19    20   ar
    20    20    21   ar
    21    21    22   ar
    22    22    23   ar
    23    23    24   ar
    24    19    24   ar
    25    24    25    1
    26    25    26    1
    27     4    27    1
    28    27    28    1
    29    28    29    1
    30    28    30    1
    31    30    31    1
    32     4     5    1
    33     4     3    1
    34     1    32    1
    35     1    33    1
    36     1    34    1
    37     2    35    1
    38     2    36    1
    39     3    37    1
    40     3    38    1
    41     4    39    1
    42     5    40    1
    43     5    41    1
    44     8    42    1
    45     8    43    1
    46     8    44    1
    47    12    45    1
    48    13    46    1
    49    14    47    1
    50    15    48    1
    51    16    49    1
    52    20    50    1
    53    21    51    1
    54    22    52    1
    55    23    53    1
    56    26    54    1
    57    26    55    1
    58    26    56    1
    59    27    57    1
    60    27    58    1
    61    28    59    1
    62    29    60    1
    63    30    61    1
    64    30    62    1
    65    31    63    1
    66    31    64    1
    67    31    65    1
