REMARK  10 active torsions:
REMARK  status: ('A' for Active; 'I' for Inactive)
REMARK    1  A    between atoms: C_3  and  N_4 
REMARK       I    between atoms: N_4  and  C_5 
REMARK    2  A    between atoms: C_5  and  C_7 
REMARK    3  A    between atoms: C_7  and  C_8 
REMARK    4  A    between atoms: C_8  and  N_9 
REMARK       I    between atoms: N_9  and  C_10 
REMARK       I    between atoms: C_10  and  N_12 
REMARK    5  A    between atoms: N_12  and  N_13 
REMARK       I    between atoms: N_13  and  C_14 
REMARK    6  A    between atoms: C_14  and  C_16 
REMARK    7  A    between atoms: C_16  and  O_18 
REMARK    8  A    between atoms: O_18  and  C_19 
REMARK    9  A    between atoms: C_22  and  O_23 
REMARK   10  A    between atoms: O_23  and  C_24 
ROOT
ATOM      1  C   UNL d   1       1.024   0.096   0.012  0.00  0.00     0.014 C 
ATOM      2  C   UNL d   1       2.328   0.096   0.012  0.00  0.00    -0.098 C 
ATOM      3  C   UNL d   1       3.848   0.096   0.012  0.00  0.00     0.216 C 
ENDROOT
BRANCH   3   4
ATOM      4  N   UNL d   1       4.409  -0.891  -0.934  0.00  0.00    -0.351 N 
ATOM      5  C   UNL d   1       5.783  -1.046  -1.084  0.00  0.00     0.219 C 
ATOM      6  O   UNL d   1       6.571  -0.365  -0.430  0.00  0.00    -0.274 OA
ATOM      7  H   UNL d   1       3.765  -1.453  -1.474  0.00  0.00     0.163 HD
BRANCH   5   8
ATOM      8  C   UNL d   1       6.274  -2.107  -2.101  0.00  0.00     0.122 C 
BRANCH   8   9
ATOM      9  C   UNL d   1       7.828  -2.182  -2.172  0.00  0.00     0.134 C 
BRANCH   9  10
ATOM     10  N   UNL d   1       8.408  -3.170  -3.117  0.00  0.00    -0.341 N 
ATOM     11  C   UNL d   1       9.782  -3.321  -3.269  0.00  0.00     0.334 C 
ATOM     12  O   UNL d   1      10.608  -2.661  -2.634  0.00  0.00    -0.246 OA
ATOM     13  N   UNL d   1      10.176  -4.279  -4.199  0.00  0.00    -0.249 N 
ATOM     14  H   UNL d   1       9.537  -4.853  -4.742  0.00  0.00     0.192 HD
ATOM     15  H   UNL d   1       7.790  -3.742  -3.672  0.00  0.00     0.164 HD
BRANCH  13  16
ATOM     16  N   UNL d   1      11.582  -4.491  -4.456  0.00  0.00    -0.264 N 
ATOM     17  C   UNL d   1      12.000  -5.470  -5.370  0.00  0.00     0.265 C 
ATOM     18  O   UNL d   1      11.171  -6.125  -6.007  0.00  0.00    -0.269 OA
ATOM     19  H   UNL d   1      12.213  -3.930  -3.886  0.00  0.00     0.190 HD
BRANCH  17  20
ATOM     20  C   UNL d   1      13.566  -5.674  -5.525  0.00  0.00     0.218 C 
ATOM     21  C   UNL d   1      14.111  -5.992  -4.132  0.00  0.00     0.050 C 
BRANCH  20  22
ATOM     22  O   UNL d   1      13.856  -6.684  -6.536  0.00  0.00    -0.337 OA
BRANCH  22  23
ATOM     23  C   UNL d   1      15.146  -7.049  -6.842  0.00  0.00     0.070 A 
ATOM     24  C   UNL d   1      15.487  -7.289  -8.179  0.00  0.00     0.039 A 
ATOM     25  C   UNL d   1      16.759  -7.813  -8.523  0.00  0.00     0.039 A 
ATOM     26  C   UNL d   1      17.737  -8.017  -7.546  0.00  0.00     0.068 A 
ATOM     27  C   UNL d   1      17.387  -7.804  -6.224  0.00  0.00     0.039 A 
ATOM     28  C   UNL d   1      16.097  -7.392  -5.889  0.00  0.00     0.039 A 
BRANCH  26  29
ATOM     29  O   UNL d   1      18.977  -8.441  -7.950  0.00  0.00    -0.352 OA
BRANCH  29  30
ATOM     30  C   UNL d   1      19.971  -8.511  -6.915  0.00  0.00     0.171 C 
ATOM     31  C   UNL d   1      21.308  -8.883  -7.524  0.00  0.00     0.034 C 
ENDBRANCH  29  30
ENDBRANCH  26  29
ENDBRANCH  22  23
ENDBRANCH  20  22
ENDBRANCH  17  20
ENDBRANCH  13  16
ENDBRANCH   9  10
ENDBRANCH   8   9
ENDBRANCH   5   8
ENDBRANCH   3   4
TORSDOF 10
