REMARK  4 active torsions:
REMARK  status: ('A' for Active; 'I' for Inactive)
REMARK       I    between atoms: C_2  and  N_3 
REMARK    1  A    between atoms: C_2  and  C_13 
REMARK    2  A    between atoms: N_3  and  N_4 
REMARK    3  A    between atoms: N_4  and  C_5 
REMARK       I    between atoms: C_13  and  N_15 
REMARK    4  A    between atoms: N_15  and  C_16 
ROOT
ATOM      1  O   UNL d   1       1.131   0.082   0.149  0.00  0.00    -0.261 OA
ATOM      2  C   UNL d   1       2.364   0.099   0.099  0.00  0.00     0.328 C 
ATOM      3  N   UNL d   1       3.115   1.020   0.828  0.00  0.00    -0.261 N 
ATOM      4  H   UNL d   1       4.107   0.898   0.974  0.00  0.00     0.190 HD
ENDROOT
BRANCH   2   5
ATOM      5  C   UNL d   1       3.107  -0.927  -0.798  0.00  0.00     0.315 C 
ATOM      6  O   UNL d   1       2.411  -1.733  -1.419  0.00  0.00    -0.262 OA
ATOM      7  N   UNL d   1       4.508  -0.953  -0.803  0.00  0.00    -0.316 N 
ATOM      8  H   UNL d   1       5.037  -0.508  -0.070  0.00  0.00     0.169 HD
BRANCH   7   9
ATOM      9  C   UNL d   1       5.232  -1.787  -1.708  0.00  0.00     0.074 A 
ATOM     10  C   UNL d   1       6.419  -2.419  -1.308  0.00  0.00     0.033 A 
ATOM     11  C   UNL d   1       7.126  -3.234  -2.212  0.00  0.00     0.002 A 
ATOM     12  C   UNL d   1       6.680  -3.393  -3.526  0.00  0.00     0.003 A 
ATOM     13  C   UNL d   1       5.521  -2.745  -3.937  0.00  0.00     0.044 A 
ATOM     14  C   UNL d   1       4.810  -1.957  -3.036  0.00  0.00     0.143 A 
ATOM     15  F   UNL d   1       3.766  -1.265  -3.513  0.00  0.00    -0.204 F 
ENDBRANCH   7   9
ENDBRANCH   2   5
BRANCH   3  16
ATOM     16  N   UNL d   1       2.438   1.666   1.884  0.00  0.00    -0.296 N 
ATOM     17  H   UNL d   1       1.415   1.730   1.794  0.00  0.00     0.187 HD
BRANCH  16  18
ATOM     18  C   UNL d   1       3.075   2.722   2.570  0.00  0.00     0.070 A 
ATOM     19  C   UNL d   1       4.172   3.413   2.035  0.00  0.00     0.034 A 
ATOM     20  C   UNL d   1       4.831   4.408   2.770  0.00  0.00     0.026 A 
ATOM     21  C   UNL d   1       4.411   4.718   4.060  0.00  0.00     0.035 A 
ATOM     22 CL   UNL d   1       5.228   5.943   4.950  0.00  0.00    -0.084 Cl
ATOM     23  C   UNL d   1       3.333   4.048   4.625  0.00  0.00     0.050 A 
ATOM     24  C   UNL d   1       2.666   3.067   3.881  0.00  0.00     0.063 A 
ATOM     25 CL   UNL d   1       1.347   2.245   4.644  0.00  0.00    -0.082 Cl
ENDBRANCH  16  18
ENDBRANCH   3  16
TORSDOF 4
