@<TRIPOS>MOLECULE
*****
 66 68 0 0 0
SMALL
GASTEIGER

@<TRIPOS>ATOM
      1 C           2.7330    1.0260   -0.0068 C.3     1  UNL1       -0.0397
      2 C           1.4633    0.2581   -0.0488 C.ar    1  UNL1       -0.0501
      3 C           1.2943   -1.0977   -0.2529 C.ar    1  UNL1       -0.0571
      4 C          -0.0117   -1.6409   -0.4551 C.ar    1  UNL1       -0.0397
      5 C          -1.1828   -0.9411   -0.0942 C.ar    1  UNL1        0.0407
      6 N          -2.5741   -1.5572   -0.0652 N.am    1  UNL1       -0.2506
      7 C          -3.8894   -0.7518    0.1605 C.2     1  UNL1        0.2617
      8 O          -4.7441   -1.1677    0.8953 O.2     1  UNL1       -0.2689
      9 C          -4.1584    0.6200   -0.4568 C.ar    1  UNL1        0.1156
     10 S          -5.1233    1.7262    0.5300 S.2     1  UNL1        0.0190
     11 N          -4.4118    3.1337   -0.0179 N.ar    1  UNL1       -0.2031
     12 C          -3.6287    2.8424   -1.0671 C.ar    1  UNL1        0.1554
     13 C          -2.6280    3.8383   -1.5522 C.2     1  UNL1        0.2624
     14 N          -2.7386    5.1318   -1.1102 N.am    1  UNL1       -0.3240
     15 O          -1.6645    3.5291   -2.2448 O.2     1  UNL1       -0.2687
     16 C          -3.5601    1.3997   -1.4296 C.ar    1  UNL1        0.0765
     17 N          -2.6278    0.8991   -2.2919 N.pl3   1  UNL1       -0.3551
     18 C          -2.5545   -3.1741    0.1124 C.3     1  UNL1        0.1323
     19 C          -1.8133   -3.7653    1.4321 C.2     1  UNL1        0.2385
     20 O          -2.3587   -4.5531    2.2093 O.2     1  UNL1       -0.2734
     21 N          -0.4624   -3.5239    1.6123 N.am    1  UNL1       -0.3135
     22 C           0.2878   -3.9754    2.7513 C.3     1  UNL1        0.0119
     23 C           1.7294   -3.4389    2.7126 C.3     1  UNL1       -0.0350
     24 C           2.5227   -3.9296    3.9267 C.3     1  UNL1       -0.0453
     25 C           2.5703   -5.4566    3.9478 C.3     1  UNL1       -0.0626
     26 C           3.9438   -3.3708    3.9209 C.3     1  UNL1       -0.0626
     27 C          -3.8988   -3.9362   -0.1139 C.ar    1  UNL1       -0.0177
     28 C          -4.1259   -5.3157   -0.0063 C.ar    1  UNL1       -0.0536
     29 C          -5.4527   -5.8116   -0.0196 C.ar    1  UNL1       -0.0261
     30 C          -6.5357   -4.9339   -0.0211 C.ar    1  UNL1        0.1234
     31 F          -7.7973   -5.3795   -0.0061 F       1  UNL1       -0.2055
     32 C          -6.3151   -3.5999   -0.1959 C.ar    1  UNL1       -0.0261
     33 C          -5.0197   -3.2196   -0.4843 C.ar    1  UNL1       -0.0536
     34 C          -0.8910    0.3762    0.2888 C.ar    1  UNL1       -0.0287
     35 C          -1.8335    1.3597    0.7865 C.3     1  UNL1       -0.0379
     36 C           0.3391    0.9979    0.1135 C.ar    1  UNL1       -0.0542
     37 H           3.5954    0.3667    0.0022 H       1  UNL1        0.0278
     38 H           2.7481    1.6555    0.8947 H       1  UNL1        0.0278
     39 H           2.7674    1.6894   -0.8792 H       1  UNL1        0.0278
     40 H           2.1717   -1.7406   -0.2546 H       1  UNL1        0.0621
     41 H          -0.0275   -2.6865   -0.7634 H       1  UNL1        0.0636
     42 H          -3.4409    5.4151   -0.4421 H       1  UNL1        0.1453
     43 H          -2.1080    5.8125   -1.5121 H       1  UNL1        0.1453
     44 H          -1.8278    1.5233   -2.4713 H       1  UNL1        0.1424
     45 H          -2.2478   -0.0214   -2.0822 H       1  UNL1        0.1424
     46 H          -1.9615   -3.5151   -0.7508 H       1  UNL1        0.0651
     47 H          -0.0005   -2.7623    1.1801 H       1  UNL1        0.1487
     48 H           0.2589   -5.0649    2.7135 H       1  UNL1        0.0462
     49 H          -0.2221   -3.6248    3.6527 H       1  UNL1        0.0462
     50 H           1.7230   -2.3388    2.6962 H       1  UNL1        0.0283
     51 H           2.2308   -3.7440    1.7828 H       1  UNL1        0.0283
     52 H           2.0179   -3.5728    4.8335 H       1  UNL1        0.0296
     53 H           3.0520   -5.8380    3.0407 H       1  UNL1        0.0232
     54 H           1.5704   -5.8944    4.0045 H       1  UNL1        0.0232
     55 H           3.1160   -5.8198    4.8205 H       1  UNL1        0.0232
     56 H           4.4957   -3.7016    3.0346 H       1  UNL1        0.0232
     57 H           4.4889   -3.7148    4.8066 H       1  UNL1        0.0232
     58 H           3.9410   -2.2761    3.9320 H       1  UNL1        0.0232
     59 H          -3.3044   -6.0277    0.0668 H       1  UNL1        0.0622
     60 H          -5.6581   -6.8754   -0.0208 H       1  UNL1        0.0646
     61 H          -7.1057   -2.8586   -0.2140 H       1  UNL1        0.0646
     62 H          -4.8946   -2.2861   -0.9937 H       1  UNL1        0.0622
     63 H          -2.6681    0.7483    0.9456 H       1  UNL1        0.0278
     64 H          -1.8112    2.0906   -0.0086 H       1  UNL1        0.0278
     65 H          -1.8288    1.8752    1.7318 H       1  UNL1        0.0278
     66 H           0.3939    2.0873    0.1618 H       1  UNL1        0.0623
@<TRIPOS>BOND
     1     1     2    1
     2     2     3   ar
     3     3     4   ar
     4     4     5   ar
     5     5     6    1
     6     6     7   am
     7     7     8    2
     8     7     9    1
     9     9    10   ar
    10    10    11   ar
    11    11    12   ar
    12    12    13    1
    13    13    14   am
    14    13    15    2
    15    12    16   ar
    16     9    16   ar
    17    16    17    1
    18     6    18    1
    19    18    19    1
    20    19    20    2
    21    19    21   am
    22    21    22    1
    23    22    23    1
    24    23    24    1
    25    24    25    1
    26    24    26    1
    27    18    27    1
    28    27    28   ar
    29    28    29   ar
    30    29    30   ar
    31    30    31    1
    32    30    32   ar
    33    32    33   ar
    34    27    33   ar
    35     5    34   ar
    36    34    35    1
    37    34    36   ar
    38     2    36   ar
    39     1    37    1
    40     1    38    1
    41     1    39    1
    42     3    40    1
    43     4    41    1
    44    14    42    1
    45    14    43    1
    46    17    44    1
    47    17    45    1
    48    18    46    1
    49    21    47    1
    50    22    48    1
    51    22    49    1
    52    23    50    1
    53    23    51    1
    54    24    52    1
    55    25    53    1
    56    25    54    1
    57    25    55    1
    58    26    56    1
    59    26    57    1
    60    26    58    1
    61    28    59    1
    62    29    60    1
    63    32    61    1
    64    33    62    1
    65    35    63    1
    66    35    64    1
    67    35    65    1
    68    36    66    1
