@<TRIPOS>MOLECULE
*****
 50 53 0 0 0
SMALL
GASTEIGER

@<TRIPOS>ATOM
      1 C           1.3623    0.0512    0.0836 C.3     1  UNL1       -0.0200
      2 C           2.8672    0.1029    0.0848 C.ar    1  UNL1        0.0682
      3 N           3.5622   -1.0791    0.0841 N.ar    1  UNL1       -0.1751
      4 N           4.8705   -0.7070    0.0839 N.ar    1  UNL1       -0.2598
      5 C           6.0127   -1.5884    0.0841 C.3     1  UNL1        0.0314
      6 C           5.0029    0.6246    0.0842 C.ar    1  UNL1        0.1067
      7 S           6.3091    1.6197    0.0832 S.2     1  UNL1       -0.0644
      8 C           5.2460    2.9933    0.0742 C.ar    1  UNL1        0.0765
      9 C           5.8784    4.3196    0.0519 C.2     1  UNL1        0.2510
     10 O           5.2704    5.3762    0.0764 O.2     1  UNL1       -0.2696
     11 N           7.2772    4.2988    0.0002 N.am    1  UNL1       -0.3065
     12 C           8.0626    5.5081    0.0205 C.3     1  UNL1        0.0448
     13 C           9.5763    5.3649   -0.0029 C.ar    1  UNL1        0.0573
     14 C          10.1995    4.1002    0.0193 C.ar    1  UNL1       -0.0438
     15 C          11.5823    3.9771    0.0591 C.ar    1  UNL1        0.0025
     16 C          12.3429    5.1280    0.0613 C.ar    1  UNL1        0.1711
     17 N          11.7428    6.3256    0.0184 N.ar    1  UNL1       -0.1979
     18 C          10.4063    6.5183   -0.0093 C.ar    1  UNL1        0.2765
     19 N          10.0246    7.8301    0.1732 N.pl3   1  UNL1       -0.2777
     20 C           9.7264    8.7250   -0.9696 C.3     1  UNL1        0.0173
     21 C           9.9973   10.1718   -0.5037 C.3     1  UNL1       -0.0370
     22 C           9.2089   10.5284    0.7642 C.3     1  UNL1       -0.0502
     23 C           9.3906    9.4687    1.8483 C.3     1  UNL1       -0.0370
     24 C           9.1038    8.0852    1.2944 C.3     1  UNL1        0.0173
     25 C           3.8857    2.5903    0.0858 C.ar    1  UNL1       -0.0315
     26 C           3.7927    1.1790    0.0854 C.ar    1  UNL1        0.0306
     27 H           0.9827   -0.9832    0.0836 H       1  UNL1        0.0293
     28 H           0.9345    0.5314   -0.8035 H       1  UNL1        0.0293
     29 H           0.9333    0.5321    0.9696 H       1  UNL1        0.0293
     30 H           5.7304   -2.6362    0.0850 H       1  UNL1        0.0473
     31 H           6.6139   -1.3470    0.9704 H       1  UNL1        0.0473
     32 H           6.6138   -1.3482   -0.8025 H       1  UNL1        0.0473
     33 H           7.7043    3.3878    0.0669 H       1  UNL1        0.1494
     34 H           7.7659    6.0041    0.9453 H       1  UNL1        0.0514
     35 H           7.7539    6.1144   -0.8368 H       1  UNL1        0.0514
     36 H           9.6305    3.1748    0.0282 H       1  UNL1        0.0625
     37 H          12.0465    2.9929    0.1009 H       1  UNL1        0.0677
     38 H          13.4274    5.1086    0.1206 H       1  UNL1        0.1376
     39 H          12.3063    7.1711    0.0746 H       1  UNL1        0.4542
     40 H           8.6728    8.6349   -1.2705 H       1  UNL1        0.0465
     41 H          10.3426    8.5021   -1.8478 H       1  UNL1        0.0465
     42 H           9.7536   10.8893   -1.2959 H       1  UNL1        0.0280
     43 H          11.0678   10.2799   -0.2884 H       1  UNL1        0.0280
     44 H           8.1435   10.6215    0.5182 H       1  UNL1        0.0266
     45 H           9.5333   11.5006    1.1518 H       1  UNL1        0.0266
     46 H           8.7197    9.6679    2.6901 H       1  UNL1        0.0280
     47 H          10.4197    9.4991    2.2239 H       1  UNL1        0.0280
     48 H           8.0622    8.0549    0.9494 H       1  UNL1        0.0465
     49 H           9.2373    7.3458    2.0911 H       1  UNL1        0.0465
     50 H           3.0689    3.3018    0.0868 H       1  UNL1        0.0637
@<TRIPOS>UNITY_ATOM_ATTR
17 1
charge 1
@<TRIPOS>BOND
     1     1     2    1
     2     2     3   ar
     3     3     4   ar
     4     4     5    1
     5     4     6   ar
     6     6     7   ar
     7     7     8   ar
     8     8     9    1
     9     9    10    2
    10     9    11   am
    11    11    12    1
    12    12    13    1
    13    13    14   ar
    14    14    15   ar
    15    15    16   ar
    16    16    17   ar
    17    17    18   ar
    18    13    18   ar
    19    18    19    1
    20    19    20    1
    21    20    21    1
    22    21    22    1
    23    22    23    1
    24    23    24    1
    25    19    24    1
    26     8    25   ar
    27    25    26   ar
    28     2    26   ar
    29     6    26   ar
    30     1    27    1
    31     1    28    1
    32     1    29    1
    33     5    30    1
    34     5    31    1
    35     5    32    1
    36    11    33    1
    37    12    34    1
    38    12    35    1
    39    14    36    1
    40    15    37    1
    41    16    38    1
    42    17    39    1
    43    20    40    1
    44    20    41    1
    45    21    42    1
    46    21    43    1
    47    22    44    1
    48    22    45    1
    49    23    46    1
    50    23    47    1
    51    24    48    1
    52    24    49    1
    53    25    50    1
