@<TRIPOS>MOLECULE
*****
 31 31 0 0 0
SMALL
GASTEIGER

@<TRIPOS>ATOM
      1 C           1.1321    0.0002    0.0952 C.3     1  UNL1       -0.0465
      2 C           2.6353    0.0237    0.1199 C.2     1  UNL1       -0.0871
      3 C           3.3560    0.8017    0.9499 C.2     1  UNL1       -0.0658
      4 C           4.8159    0.8373    0.9881 C.2     1  UNL1       -0.0571
      5 C           5.5467    1.6145    1.8182 C.2     1  UNL1        0.0016
      6 C           7.0544    1.5978    1.8017 C.2     1  UNL1        0.2530
      7 O           7.6861    0.8804    1.0271 O.2     1  UNL1       -0.2693
      8 N           7.6830    2.4408    2.7119 N.am    1  UNL1       -0.2306
      9 N           9.1191    2.4846    2.7467 N.am    1  UNL1       -0.2297
     10 C           9.8031    3.2894    3.6632 C.2     1  UNL1        0.2670
     11 O           9.1715    3.9761    4.4774 O.2     1  UNL1       -0.2681
     12 C          11.2754    3.2759    3.5806 C.ar    1  UNL1        0.0782
     13 S          12.2137    3.2990    5.0285 S.2     1  UNL1       -0.0918
     14 C          13.6998    3.3162    4.1775 C.ar    1  UNL1       -0.0233
     15 C          13.4992    3.3387    2.8181 C.ar    1  UNL1       -0.0511
     16 C          12.1057    3.3197    2.4626 C.ar    1  UNL1       -0.0312
     17 C          11.6329    3.4043    1.0547 C.3     1  UNL1       -0.0385
     18 H           0.7705   -0.7081   -0.6604 H       1  UNL1        0.0272
     19 H           0.7243    0.9834   -0.1610 H       1  UNL1        0.0272
     20 H           0.7244   -0.3189    1.0598 H       1  UNL1        0.0272
     21 H           3.1261   -0.6410   -0.5888 H       1  UNL1        0.0569
     22 H           2.8195    1.4491    1.6409 H       1  UNL1        0.0614
     23 H           5.3248    0.1774    0.2845 H       1  UNL1        0.0619
     24 H           5.0613    2.2763    2.5246 H       1  UNL1        0.0670
     25 H           7.2007    3.0543    3.3656 H       1  UNL1        0.1731
     26 H           9.5954    1.8237    2.1375 H       1  UNL1        0.1731
     27 H          14.6518    3.3284    4.6974 H       1  UNL1        0.0694
     28 H          14.3165    3.3851    2.1045 H       1  UNL1        0.0626
     29 H          12.4716    3.4655    0.3557 H       1  UNL1        0.0278
     30 H          11.0095    4.2944    0.9259 H       1  UNL1        0.0278
     31 H          11.0536    2.5152    0.7991 H       1  UNL1        0.0278
@<TRIPOS>BOND
     1     1     2    1
     2     2     3    2
     3     3     4    1
     4     4     5    2
     5     5     6    1
     6     6     7    2
     7     6     8   am
     8     8     9    1
     9     9    10   am
    10    10    11    2
    11    10    12    1
    12    12    13   ar
    13    13    14   ar
    14    14    15   ar
    15    15    16   ar
    16    12    16   ar
    17    16    17    1
    18     1    18    1
    19     1    19    1
    20     1    20    1
    21     2    21    1
    22     3    22    1
    23     4    23    1
    24     5    24    1
    25     8    25    1
    26     9    26    1
    27    14    27    1
    28    15    28    1
    29    17    29    1
    30    17    30    1
    31    17    31    1
