@<TRIPOS>MOLECULE
*****
 46 48 0 0 0
SMALL
GASTEIGER

@<TRIPOS>ATOM
      1 C           1.0298    0.0206    0.0283 C.3     1  UNL1       -0.0384
      2 C           2.5463    0.0370    0.0282 C.ar    1  UNL1       -0.0259
      3 C           3.3073   -1.0932    0.0261 C.ar    1  UNL1        0.0494
      4 C           2.6167   -2.4619    0.0290 C.3     1  UNL1        0.0561
      5 C           3.4480   -3.7329    0.0433 C.2     1  UNL1        0.2177
      6 O           4.6684   -3.7926    0.0409 O.2     1  UNL1       -0.2755
      7 N           2.8007   -4.9392    0.0731 N.am    1  UNL1       -0.3122
      8 C           3.7151   -6.0597    0.0488 C.3     1  UNL1        0.0418
      9 C           3.0658   -7.4239    0.0321 C.3     1  UNL1        0.0956
     10 O           2.2383   -7.5053   -1.1328 O.3     1  UNL1       -0.3856
     11 C           4.0887   -8.5406    0.0196 C.ar    1  UNL1       -0.0177
     12 C           5.4783   -8.3052    0.0272 C.ar    1  UNL1       -0.0561
     13 C           6.3873   -9.3572    0.0339 C.ar    1  UNL1       -0.0614
     14 C           5.9222  -10.6652    0.0365 C.ar    1  UNL1       -0.0617
     15 C           4.5509  -10.9198    0.0317 C.ar    1  UNL1       -0.0614
     16 C           3.6383   -9.8652    0.0228 C.ar    1  UNL1       -0.0561
     17 C           4.8122   -0.9589    0.0185 C.ar    1  UNL1        0.3412
     18 O           5.6519   -1.8424   -0.0078 O.2     1  UNL1       -0.2449
     19 O           5.3537    0.2966    0.0376 O.2     1  UNL1       -0.4217
     20 C           4.5784    1.4350    0.0307 C.ar    1  UNL1        0.1463
     21 C           5.3324    2.6056    0.0282 C.ar    1  UNL1        0.0231
     22 C           4.6599    3.8031    0.0272 C.ar    1  UNL1        0.1239
     23 O           5.3312    4.9861    0.0268 O.3     1  UNL1       -0.5065
     24 C           3.2704    3.8209    0.0279 C.ar    1  UNL1        0.0221
     25 C           2.5449    2.6200    0.0279 C.ar    1  UNL1        0.1312
     26 O           1.1787    2.6860    0.0287 O.3     1  UNL1       -0.5059
     27 C           3.1911    1.3772    0.0283 C.ar    1  UNL1        0.0624
     28 H           0.5825   -0.9750    0.0276 H       1  UNL1        0.0278
     29 H           0.6405    0.5169   -0.8688 H       1  UNL1        0.0278
     30 H           0.6401    0.5167    0.9252 H       1  UNL1        0.0278
     31 H           1.9641   -2.5308   -0.8552 H       1  UNL1        0.0409
     32 H           1.9617   -2.5227    0.9122 H       1  UNL1        0.0409
     33 H           1.8032   -5.0721   -0.0292 H       1  UNL1        0.1488
     34 H           4.3706   -5.9608    0.9275 H       1  UNL1        0.0491
     35 H           4.3425   -5.9386   -0.8510 H       1  UNL1        0.0491
     36 H           2.4249   -7.5151    0.9152 H       1  UNL1        0.0659
     37 H           2.8412   -7.4513   -1.8969 H       1  UNL1        0.2103
     38 H           5.8983   -7.3008    0.0330 H       1  UNL1        0.0621
     39 H           7.4531   -9.1438    0.0397 H       1  UNL1        0.0618
     40 H           6.6324  -11.4858    0.0432 H       1  UNL1        0.0618
     41 H           4.1904  -11.9439    0.0353 H       1  UNL1        0.0618
     42 H           2.5698  -10.0741    0.0181 H       1  UNL1        0.0621
     43 H           6.4170    2.5369    0.0277 H       1  UNL1        0.0691
     44 H           6.2872    4.8021    0.0268 H       1  UNL1        0.2921
     45 H           2.7637    4.7782    0.0286 H       1  UNL1        0.0691
     46 H           0.8844    3.6093    0.0299 H       1  UNL1        0.2922
@<TRIPOS>BOND
     1     1     2    1
     2     2     3   ar
     3     3     4    1
     4     4     5    1
     5     5     6    2
     6     5     7   am
     7     7     8    1
     8     8     9    1
     9     9    10    1
    10     9    11    1
    11    11    12   ar
    12    12    13   ar
    13    13    14   ar
    14    14    15   ar
    15    15    16   ar
    16    11    16   ar
    17     3    17   ar
    18    17    18    2
    19    17    19   ar
    20    19    20   ar
    21    20    21   ar
    22    21    22   ar
    23    22    23    1
    24    22    24   ar
    25    24    25   ar
    26    25    26    1
    27    25    27   ar
    28     2    27   ar
    29    20    27   ar
    30     1    28    1
    31     1    29    1
    32     1    30    1
    33     4    31    1
    34     4    32    1
    35     7    33    1
    36     8    34    1
    37     8    35    1
    38     9    36    1
    39    10    37    1
    40    12    38    1
    41    13    39    1
    42    14    40    1
    43    15    41    1
    44    16    42    1
    45    21    43    1
    46    23    44    1
    47    24    45    1
    48    26    46    1
