REMARK  10 active torsions:
REMARK  status: ('A' for Active; 'I' for Inactive)
REMARK    1  A    between atoms: N_2  and  C_4 
REMARK    2  A    between atoms: C_4  and  C_5 
REMARK    3  A    between atoms: C_6  and  C_7 
REMARK       I    between atoms: C_7  and  N_9 
REMARK    4  A    between atoms: N_9  and  N_10 
REMARK    5  A    between atoms: C_11  and  C_12 
REMARK    6  A    between atoms: C_16  and  O_17 
REMARK    7  A    between atoms: O_17  and  C_18 
REMARK    8  A    between atoms: C_18  and  C_19 
REMARK    9  A    between atoms: N_30  and  C_31 
REMARK   10  A    between atoms: C_35  and  N_36 
ROOT
ATOM      1  C   UNL d   1       5.166  -2.531   1.936  0.00  0.00     0.293 C 
ATOM      2  O   UNL d   1       6.183  -2.787   2.592  0.00  0.00    -0.264 OA
ATOM      3  N   UNL d   1       3.877  -2.795   2.460  0.00  0.00    -0.242 N 
ATOM      4  H   UNL d   1       3.037  -2.661   1.932  0.00  0.00     0.192 HD
ENDROOT
BRANCH   1   5
ATOM      5  C   UNL d   1       5.309  -1.899   0.569  0.00  0.00     0.170 A 
ATOM      6  C   UNL d   1       4.407  -1.413  -0.389  0.00  0.00     0.096 A 
ATOM      7  N   UNL d   1       5.195  -0.964  -1.477  0.00  0.00    -0.215 N 
ATOM      8  N   UNL d   1       6.490  -1.167  -1.166  0.00  0.00     0.012 NA
ATOM      9  N   UNL d   1       6.574  -1.661   0.061  0.00  0.00    -0.152 NA
BRANCH   6  10
ATOM     10  C   UNL d   1       2.933  -1.400  -0.442  0.00  0.00     0.295 C 
BRANCH  10  11
ATOM     11  N   UNL d   1       2.321  -0.150   0.130  0.00  0.00    -0.073 N 
ATOM     12  C   UNL d   1       0.823  -0.114   0.058  0.00  0.00     0.269 C 
ATOM     13  C   UNL d   1       2.825   0.249   1.487  0.00  0.00     0.269 C 
ATOM     14  H   UNL d   1       2.589   0.601  -0.534  0.00  0.00     0.279 HD
ENDBRANCH  10  11
ENDBRANCH   6  10
BRANCH   7  15
ATOM     15  C   UNL d   1       4.784  -0.231  -2.637  0.00  0.00     0.219 A 
ATOM     16  N   UNL d   1       5.257  -0.509  -3.853  0.00  0.00    -0.082 NA
ATOM     17  O   UNL d   1       4.574   0.384  -4.698  0.00  0.00    -0.103 OA
ATOM     18  N   UNL d   1       3.721   1.217  -3.966  0.00  0.00    -0.089 NA
ATOM     19  C   UNL d   1       3.896   0.855  -2.701  0.00  0.00     0.180 A 
BRANCH  19  20
ATOM     20  N   UNL d   1       3.368   1.508  -1.625  0.00  0.00    -0.282 NA
ATOM     21  H   UNL d   1       2.932   2.393  -1.917  0.00  0.00     0.126 HD
ATOM     22  H   UNL d   1       4.091   1.757  -0.939  0.00  0.00     0.126 HD
ENDBRANCH  19  20
ENDBRANCH   7  15
ENDBRANCH   1   5
BRANCH   3  23
ATOM     23  N   UNL d   1       3.707  -3.357   3.737  0.00  0.00    -0.183 NA
ATOM     24  C   UNL d   1       2.496  -3.675   4.112  0.00  0.00     0.150 C 
BRANCH  24  25
ATOM     25  C   UNL d   1       2.149  -4.261   5.449  0.00  0.00    -0.014 A 
ATOM     26  C   UNL d   1       1.028  -5.088   5.624  0.00  0.00     0.013 A 
ATOM     27  C   UNL d   1       0.614  -5.458   6.915  0.00  0.00     0.004 A 
ATOM     28  C   UNL d   1       1.342  -5.043   8.030  0.00  0.00     0.037 A 
ATOM     29  C   UNL d   1       2.472  -4.240   7.858  0.00  0.00     0.070 A 
ATOM     30  C   UNL d   1       2.874  -3.862   6.568  0.00  0.00     0.049 A 
BRANCH  29  31
ATOM     31  O   UNL d   1       3.093  -3.843   9.012  0.00  0.00    -0.346 OA
BRANCH  31  32
ATOM     32  C   UNL d   1       4.207  -2.959   8.833  0.00  0.00     0.219 C 
BRANCH  32  33
ATOM     33  C   UNL d   1       4.682  -2.494  10.175  0.00  0.00     0.026 A 
ATOM     34  C   UNL d   1       5.075  -3.445  11.121  0.00  0.00     0.126 A 
ATOM     35  F   UNL d   1       5.195  -4.733  10.766  0.00  0.00    -0.205 F 
ATOM     36  C   UNL d   1       5.355  -3.089  12.436  0.00  0.00     0.043 A 
ATOM     37  C   UNL d   1       5.343  -1.746  12.801  0.00  0.00     0.005 A 
ATOM     38  C   UNL d   1       5.035  -0.773  11.851  0.00  0.00     0.024 A 
ATOM     39  C   UNL d   1       4.707  -1.143  10.545  0.00  0.00     0.045 A 
ATOM     40 CL   UNL d   1       4.360   0.134   9.428  0.00  0.00    -0.084 Cl
ENDBRANCH  32  33
ENDBRANCH  31  32
ENDBRANCH  29  31
ENDBRANCH  24  25
ENDBRANCH   3  23
TORSDOF 10
