@<TRIPOS>MOLECULE
*****
 49 51 0 0 0
SMALL
GASTEIGER

@<TRIPOS>ATOM
      1 N           2.2045    0.0897   -0.0222 N.pl3   1  UNL1       -0.3386
      2 C           0.8609    0.0470   -0.0134 C.ar    1  UNL1        0.1925
      3 N           0.1011    1.1367    0.0715 N.ar    1  UNL1       -0.0334
      4 O          -1.2057    0.6762    0.0604 O.2     1  UNL1       -0.2401
      5 N          -1.2408   -0.7097   -0.0288 N.ar    1  UNL1       -0.0422
      6 C           0.0399   -1.1007   -0.1532 C.ar    1  UNL1        0.2095
      7 C           0.4047   -2.4874   -0.4907 C.2     1  UNL1        0.2694
      8 O          -0.4845   -3.3201   -0.7730 O.2     1  UNL1       -0.2683
      9 N           1.7658   -2.8306   -0.5125 N.am    1  UNL1       -0.3048
     10 C           2.4195   -4.1372   -0.6778 C.3     1  UNL1        0.0520
     11 C           3.9723   -4.1875   -0.4784 C.3     1  UNL1       -0.0174
     12 N           4.5178   -5.5573   -0.4224 N.4     1  UNL1        0.2315
     13 C           5.8734   -5.9454   -0.1927 C.3     1  UNL1       -0.0041
     14 C           5.9028   -7.4604   -0.0841 C.ar    1  UNL1        0.0396
     15 C           7.2480   -7.9086   -0.1338 C.ar    1  UNL1       -0.0360
     16 C           7.5659   -9.2536   -0.1369 C.ar    1  UNL1        0.0185
     17 BR          9.3830   -9.7581   -0.1936 Br      1  UNL1       -0.0503
     18 C           6.5482  -10.1913   -0.1097 C.ar    1  UNL1       -0.0443
     19 C           5.2030   -9.7750   -0.0362 C.ar    1  UNL1       -0.0184
     20 C           4.8291   -8.4111    0.0324 C.ar    1  UNL1        0.1292
     21 O           3.4445   -8.2990    0.2097 O.3     1  UNL1       -0.4869
     22 C           2.6799   -7.1011    0.4722 C.3     1  UNL1        0.1160
     23 C           1.2115   -6.9386    0.7449 C.ar    1  UNL1        0.0080
     24 C           0.4819   -8.0119    0.3140 C.ar    1  UNL1       -0.0526
     25 C          -0.8844   -7.8857    0.2688 C.ar    1  UNL1       -0.0429
     26 C          -1.5012   -6.6422    0.4187 C.ar    1  UNL1        0.0424
     27 CL         -3.2049   -6.5151    0.3637 Cl      1  UNL1       -0.0835
     28 C          -0.7847   -5.5350    0.8074 C.ar    1  UNL1       -0.0247
     29 C           0.5371   -5.7314    1.1504 C.ar    1  UNL1        0.0487
     30 CL          1.1921   -4.4843    2.2201 Cl      1  UNL1       -0.0831
     31 H           2.6592    0.9944    0.0272 H       1  UNL1        0.1439
     32 H           2.8471   -0.6658    0.0892 H       1  UNL1        0.1439
     33 H           2.3123   -2.1915    0.0181 H       1  UNL1        0.1493
     34 H           1.9444   -4.7611   -1.4459 H       1  UNL1        0.0515
     35 H           2.1977   -4.6455    0.2193 H       1  UNL1        0.0515
     36 H           4.1953   -3.7957    0.5233 H       1  UNL1        0.0829
     37 H           4.4905   -3.6782   -1.2712 H       1  UNL1        0.0829
     38 H           4.2230   -6.1634   -1.2047 H       1  UNL1        0.2017
     39 H           4.2717   -5.9249    0.4850 H       1  UNL1        0.2017
     40 H           6.2005   -5.5000    0.7556 H       1  UNL1        0.0868
     41 H           6.4281   -5.5612   -1.0479 H       1  UNL1        0.0868
     42 H           8.0611   -7.1795   -0.1767 H       1  UNL1        0.0634
     43 H           6.7932  -11.2520   -0.1279 H       1  UNL1        0.0630
     44 H           4.4395  -10.5564   -0.0194 H       1  UNL1        0.0654
     45 H           2.6554   -6.6515   -0.5268 H       1  UNL1        0.0748
     46 H           3.0968   -6.6049    1.3412 H       1  UNL1        0.0748
     47 H           0.9986   -8.9406    0.0942 H       1  UNL1        0.0622
     48 H          -1.4616   -8.7901    0.1652 H       1  UNL1        0.0632
     49 H          -1.2892   -4.5776    0.9382 H       1  UNL1        0.0647
@<TRIPOS>UNITY_ATOM_ATTR
12 1
charge 1
@<TRIPOS>BOND
     1     1     2    1
     2     2     3   ar
     3     3     4   ar
     4     4     5   ar
     5     5     6   ar
     6     2     6   ar
     7     6     7    1
     8     7     8    2
     9     7     9   am
    10     9    10    1
    11    10    11    1
    12    11    12    1
    13    12    13    1
    14    13    14    1
    15    14    15   ar
    16    15    16   ar
    17    16    17    1
    18    16    18   ar
    19    18    19   ar
    20    19    20   ar
    21    14    20   ar
    22    20    21    1
    23    21    22    1
    24    22    23    1
    25    23    24   ar
    26    24    25   ar
    27    25    26   ar
    28    26    27    1
    29    26    28   ar
    30    28    29   ar
    31    23    29   ar
    32    29    30    1
    33     1    31    1
    34     1    32    1
    35     9    33    1
    36    10    34    1
    37    10    35    1
    38    11    36    1
    39    11    37    1
    40    12    38    1
    41    12    39    1
    42    13    40    1
    43    13    41    1
    44    15    42    1
    45    18    43    1
    46    19    44    1
    47    22    45    1
    48    22    46    1
    49    24    47    1
    50    25    48    1
    51    28    49    1
