REMARK  5 active torsions:
REMARK  status: ('A' for Active; 'I' for Inactive)
REMARK       I    between atoms: C_2  and  N_3 
REMARK    1  A    between atoms: C_15  and  C_2 
REMARK    2  A    between atoms: N_3  and  N_4 
REMARK    3  A    between atoms: C_5  and  C_6 
REMARK    4  A    between atoms: C_15  and  C_17 
REMARK    5  A    between atoms: C_15  and  O_16 
ROOT
ATOM      1  O   UNL d   1       3.353  -3.626   0.149  0.00  0.00    -0.268 OA
ATOM      2  C   UNL d   1       2.654  -2.609   0.054  0.00  0.00     0.271 C 
ATOM      3  N   UNL d   1       1.382  -2.687  -0.498  0.00  0.00    -0.245 N 
ATOM      4  H   UNL d   1       0.783  -1.866  -0.554  0.00  0.00     0.192 HD
ENDROOT
BRANCH   3   5
ATOM      5  N   UNL d   1       1.000  -3.914  -0.994  0.00  0.00    -0.182 NA
ATOM      6  C   UNL d   1      -0.135  -4.008  -1.595  0.00  0.00     0.168 C 
BRANCH   6   7
ATOM      7  C   UNL d   1      -0.506  -5.238  -2.255  0.00  0.00     0.052 A 
ATOM      8  C   UNL d   1      -1.082  -5.344  -3.505  0.00  0.00     0.044 A 
ATOM      9  C   UNL d   1      -1.150  -6.714  -3.860  0.00  0.00    -0.007 A 
ATOM     10  C   UNL d   1      -1.556  -7.388  -5.027  0.00  0.00     0.014 A 
ATOM     11  C   UNL d   1      -0.670  -7.448  -2.776  0.00  0.00     0.043 A 
ATOM     12  C   UNL d   1      -1.460  -8.780  -5.088  0.00  0.00     0.001 A 
ATOM     13  C   UNL d   1      -0.992  -9.500  -3.991  0.00  0.00     0.002 A 
ATOM     14  C   UNL d   1      -0.602  -8.852  -2.808  0.00  0.00     0.030 A 
ATOM     15  N   UNL d   1      -0.299  -6.530  -1.806  0.00  0.00    -0.354 N 
ATOM     16  H   UNL d   1       0.094  -6.774  -0.906  0.00  0.00     0.166 HD
ENDBRANCH   6   7
ENDBRANCH   3   5
BRANCH   2  17
ATOM     17  C   UNL d   1       3.087  -1.209   0.592  0.00  0.00     0.244 C 
BRANCH  17  18
ATOM     18  C   UNL d   1       4.592  -0.900   0.504  0.00  0.00    -0.021 A 
ATOM     19  C   UNL d   1       5.562  -1.919   0.534  0.00  0.00     0.010 A 
ATOM     20  C   UNL d   1       6.929  -1.652   0.576  0.00  0.00     0.001 A 
ATOM     21  C   UNL d   1       7.376  -0.343   0.543  0.00  0.00     0.000 A 
ATOM     22  C   UNL d   1       6.448   0.696   0.521  0.00  0.00     0.001 A 
ATOM     23  C   UNL d   1       5.070   0.424   0.521  0.00  0.00     0.010 A 
ENDBRANCH  17  18
BRANCH  17  24
ATOM     24  O   UNL d   1       2.315  -0.175  -0.036  0.00  0.00    -0.381 OA
ATOM     25  H   UNL d   1       2.729  -0.018  -0.903  0.00  0.00     0.211 HD
ENDBRANCH  17  24
ENDBRANCH   2  17
TORSDOF 5
