REMARK  5 active torsions:
REMARK  status: ('A' for Active; 'I' for Inactive)
REMARK       I    between atoms: C_2  and  N_3 
REMARK       I    between atoms: C_2  and  N_11 
REMARK    1  A    between atoms: N_3  and  C_4 
REMARK    2  A    between atoms: N_11  and  C_12 
REMARK    3  A    between atoms: C_14  and  N_15 
REMARK       I    between atoms: N_15  and  C_16 
REMARK    4  A    between atoms: C_16  and  C_18 
REMARK    5  A    between atoms: C_26  and  N_27 
ROOT
ATOM      1  C   UNL d   1       4.396   1.095  -0.405  0.00  0.00     0.065 C 
ATOM      2  C   UNL d   1       5.146   2.237   0.017  0.00  0.00     0.061 C 
ATOM      3  C   UNL d   1       6.546   2.303  -0.166  0.00  0.00     0.037 C 
ATOM      4  C   UNL d   1       7.177   1.177  -0.676  0.00  0.00     0.032 C 
ATOM      5  C   UNL d   1       6.456   0.094  -1.143  0.00  0.00     0.034 C 
ATOM      6  C   UNL d   1       5.066   0.026  -1.041  0.00  0.00     0.057 C 
ENDROOT
BRANCH   1   7
ATOM      7  N   UNL d   1       2.984   1.110  -0.191  0.00  0.00    -0.306 N 
ATOM      8  C   UNL d   1       2.103   0.073   0.049  0.00  0.00     0.325 C 
ATOM      9  O   UNL d   1       0.900   0.224  -0.197  0.00  0.00    -0.247 OA
ATOM     10  N   UNL d   1       2.629  -1.033   0.648  0.00  0.00    -0.309 N 
ATOM     11  H   UNL d   1       3.594  -0.918   0.921  0.00  0.00     0.170 HD
ATOM     12  H   UNL d   1       2.510   1.967  -0.448  0.00  0.00     0.170 HD
BRANCH  10  13
ATOM     13  C   UNL d   1       2.026  -2.294   0.855  0.00  0.00     0.037 C 
ATOM     14  C   UNL d   1       1.012  -2.795   0.030  0.00  0.00     0.029 C 
ATOM     15  C   UNL d   1       0.452  -4.053   0.278  0.00  0.00     0.004 C 
ATOM     16  C   UNL d   1       0.886  -4.804   1.368  0.00  0.00     0.024 C 
ATOM     17  C   UNL d   1       1.957  -4.346   2.131  0.00  0.00     0.036 C 
ATOM     18 CL   UNL d   1       2.493  -5.264   3.485  0.00  0.00    -0.084 Cl
ATOM     19  C   UNL d   1       2.570  -3.127   1.839  0.00  0.00     0.053 C 
ENDBRANCH  10  13
ENDBRANCH   1   7
BRANCH   6  20
ATOM     20  N   UNL d   1       4.494  -1.126  -1.573  0.00  0.00    -0.379 N 
ATOM     21  C   UNL d   1       4.697  -2.324  -0.765  0.00  0.00     0.123 C 
ATOM     22  C   UNL d   1       5.566  -3.365  -1.406  0.00  0.00     0.020 C 
ATOM     23  C   UNL d   1       4.803  -4.116  -2.488  0.00  0.00     0.002 C 
ATOM     24  C   UNL d   1       4.207  -3.223  -3.581  0.00  0.00     0.002 C 
ATOM     25  C   UNL d   1       3.013  -2.382  -3.131  0.00  0.00     0.020 C 
ATOM     26  C   UNL d   1       3.413  -1.027  -2.554  0.00  0.00     0.123 C 
ENDBRANCH   6  20
BRANCH   3  27
ATOM     27  N   UNL d   1       7.304   3.485   0.108  0.00  0.00    -0.323 N 
ATOM     28  C   UNL d   1       8.646   3.654  -0.259  0.00  0.00     0.256 C 
ATOM     29  O   UNL d   1       9.379   2.823  -0.795  0.00  0.00    -0.267 OA
ATOM     30  H   UNL d   1       6.796   4.297   0.439  0.00  0.00     0.169 HD
BRANCH  28  31
ATOM     31  C   UNL d   1       9.302   4.953   0.002  0.00  0.00     0.032 A 
ATOM     32  C   UNL d   1      10.279   5.401  -0.908  0.00  0.00     0.017 A 
ATOM     33  C   UNL d   1      11.095   6.485  -0.589  0.00  0.00     0.001 A 
ATOM     34  C   UNL d   1      10.896   7.162   0.612  0.00  0.00     0.000 A 
ATOM     35  C   UNL d   1       9.918   6.726   1.511  0.00  0.00     0.001 A 
ATOM     36  C   UNL d   1       9.126   5.614   1.215  0.00  0.00     0.017 A 
ENDBRANCH  28  31
ENDBRANCH   3  27
TORSDOF 5
