@<TRIPOS>MOLECULE
*****
 37 38 0 0 0
SMALL
GASTEIGER

@<TRIPOS>ATOM
      1 C           1.8690    1.4721   -0.0131 C.3     1  UNL1       -0.0393
      2 C           0.5873    0.6787    0.0073 C.ar    1  UNL1       -0.0441
      3 C          -0.6148    1.4040    0.0261 C.ar    1  UNL1       -0.0584
      4 C          -1.8310    0.7475    0.0228 C.ar    1  UNL1       -0.0580
      5 C          -1.8648   -0.6363   -0.0148 C.ar    1  UNL1       -0.0189
      6 C          -0.6948   -1.3979   -0.0331 C.ar    1  UNL1        0.1351
      7 O          -0.7692   -2.8266   -0.1120 O.3     1  UNL1       -0.4221
      8 C          -1.9860   -3.5315   -0.2138 C.2     1  UNL1        0.3445
      9 O          -3.1223   -3.1040   -0.1758 O.2     1  UNL1       -0.2445
     10 C          -1.8027   -4.9913   -0.2691 C.ar    1  UNL1        0.0612
     11 C          -2.6489   -5.8138   -0.9979 C.ar    1  UNL1       -0.0476
     12 C          -2.5929   -7.1950   -0.7875 C.ar    1  UNL1       -0.0592
     13 C          -1.6931   -7.7429    0.1516 C.ar    1  UNL1       -0.0404
     14 C          -0.8651   -6.8987    0.9088 C.ar    1  UNL1        0.0355
     15 N          -0.0333   -7.4021    1.9324 N.am    1  UNL1       -0.2696
     16 C           0.7819   -6.7920    2.8438 C.2     1  UNL1        0.3013
     17 N           0.9436   -5.4490    2.8650 N.am    1  UNL1       -0.3131
     18 O           1.4257   -7.4668    3.6452 O.2     1  UNL1       -0.2527
     19 C          -0.9156   -5.5445    0.6300 C.ar    1  UNL1       -0.0264
     20 C           0.5622   -0.7468   -0.0025 C.ar    1  UNL1       -0.0052
     21 C           1.8674   -1.4998    0.0188 C.3     1  UNL1       -0.0360
     22 H           1.6683    2.5510   -0.0255 H       1  UNL1        0.0278
     23 H           2.4463    1.2450   -0.9142 H       1  UNL1        0.0278
     24 H           2.4651    1.2635    0.8792 H       1  UNL1        0.0278
     25 H          -0.6160    2.4911    0.0406 H       1  UNL1        0.0620
     26 H          -2.7672    1.2961    0.0380 H       1  UNL1        0.0619
     27 H          -2.8520   -1.0707   -0.0365 H       1  UNL1        0.0654
     28 H          -3.3431   -5.3765   -1.7110 H       1  UNL1        0.0626
     29 H          -3.2775   -7.8394   -1.3367 H       1  UNL1        0.0618
     30 H          -1.6660   -8.8267    0.2623 H       1  UNL1        0.0636
     31 H          -0.0202   -8.4100    2.0548 H       1  UNL1        0.1564
     32 H           0.1927   -4.8033    2.6963 H       1  UNL1        0.1465
     33 H           1.5363   -5.1023    3.6071 H       1  UNL1        0.1465
     34 H          -0.2685   -4.8331    1.0867 H       1  UNL1        0.0644
     35 H           1.7276   -2.5831    0.0282 H       1  UNL1        0.0279
     36 H           2.4400   -1.2379    0.9174 H       1  UNL1        0.0279
     37 H           2.4689   -1.2491   -0.8625 H       1  UNL1        0.0279
@<TRIPOS>BOND
     1     1     2    1
     2     2     3   ar
     3     3     4   ar
     4     4     5   ar
     5     5     6   ar
     6     6     7    1
     7     7     8    1
     8     8     9    2
     9     8    10    1
    10    10    11   ar
    11    11    12   ar
    12    12    13   ar
    13    13    14   ar
    14    14    15    1
    15    15    16   am
    16    16    17   am
    17    16    18    2
    18    14    19   ar
    19    10    19   ar
    20     6    20   ar
    21     2    20   ar
    22    20    21    1
    23     1    22    1
    24     1    23    1
    25     1    24    1
    26     3    25    1
    27     4    26    1
    28     5    27    1
    29    11    28    1
    30    12    29    1
    31    13    30    1
    32    15    31    1
    33    17    32    1
    34    17    33    1
    35    19    34    1
    36    21    35    1
    37    21    36    1
    38    21    37    1
