REMARK  10 active torsions:
REMARK  status: ('A' for Active; 'I' for Inactive)
REMARK    1  A    between atoms: O_2  and  C_3 
REMARK    2  A    between atoms: C_3  and  C_5 
REMARK    3  A    between atoms: C_5  and  C_6 
REMARK    4  A    between atoms: C_5  and  N_12 
REMARK    5  A    between atoms: C_6  and  C_7 
REMARK       I    between atoms: N_12  and  C_13 
REMARK    6  A    between atoms: C_13  and  C_15 
REMARK    7  A    between atoms: C_15  and  O_16 
REMARK    8  A    between atoms: O_16  and  C_17 
REMARK    9  A    between atoms: C_19  and  O_20 
REMARK   10  A    between atoms: C_26  and  C_27 
ROOT
ATOM      1  C   UNL d   1       9.016   3.846  -4.077  0.00  0.00     0.074 A 
ATOM      2  C   UNL d   1       8.623   5.179  -4.160  0.00  0.00     0.074 A 
ATOM      3  C   UNL d   1       9.242   6.032  -5.073  0.00  0.00     0.085 A 
ATOM      4  C   UNL d   1      10.273   5.570  -5.901  0.00  0.00     0.077 A 
ATOM      5  C   UNL d   1      10.701   4.246  -5.788  0.00  0.00     0.088 A 
ATOM      6  C   UNL d   1      10.089   3.394  -4.857  0.00  0.00     0.074 A 
ATOM      7  O   UNL d   1      11.735   3.712  -6.510  0.00  0.00    -0.349 OA
ATOM      8  C   UNL d   1      11.985   4.372  -7.755  0.00  0.00     0.193 C 
ATOM      9  C   UNL d   1      12.112   5.887  -7.638  0.00  0.00     0.118 C 
ATOM     10  C   UNL d   1      10.944   6.464  -6.870  0.00  0.00     0.175 C 
ATOM     11  O   UNL d   1      10.588   7.630  -7.020  0.00  0.00    -0.291 OA
ENDROOT
BRANCH   1  12
ATOM     12  O   UNL d   1       8.444   2.959  -3.204  0.00  0.00    -0.342 OA
BRANCH  12  13
ATOM     13  C   UNL d   1       7.010   2.993  -3.139  0.00  0.00     0.278 C 
BRANCH  13  14
ATOM     14  C   UNL d   1       6.512   2.023  -2.052  0.00  0.00     0.242 C 
ATOM     15  N   UNL d   1       5.137   1.862  -1.938  0.00  0.00    -0.345 N 
ATOM     16  H   UNL d   1       4.498   2.418  -2.504  0.00  0.00     0.163 HD
ATOM     17  O   UNL d   1       7.273   1.399  -1.314  0.00  0.00    -0.271 OA
BRANCH  15  18
ATOM     18  C   UNL d   1       4.540   0.934  -0.943  0.00  0.00     0.190 C 
BRANCH  18  19
ATOM     19  C   UNL d   1       2.989   1.012  -0.996  0.00  0.00     0.281 C 
ATOM     20  O   UNL d   1       2.366   1.704  -1.795  0.00  0.00    -0.263 OA
BRANCH  19  21
ATOM     21  O   UNL d   1       2.405   0.231  -0.039  0.00  0.00    -0.325 OA
ATOM     22  C   UNL d   1       0.969   0.144  -0.059  0.00  0.00     0.213 C 
ENDBRANCH  19  21
ENDBRANCH  18  19
BRANCH  18  23
ATOM     23  C   UNL d   1       5.020  -0.497  -1.210  0.00  0.00     0.093 C 
BRANCH  23  24
ATOM     24  C   UNL d   1       4.680  -1.514  -0.191  0.00  0.00     0.028 A 
ATOM     25  C   UNL d   1       4.864  -2.873  -0.242  0.00  0.00     0.114 A 
ATOM     26  N   UNL d   1       4.411  -3.389   0.947  0.00  0.00    -0.360 N 
ATOM     27  C   UNL d   1       3.937  -2.420   1.730  0.00  0.00     0.180 A 
ATOM     28  H   UNL d   1       4.437  -4.372   1.206  0.00  0.00     0.166 HD
ATOM     29  N   UNL d   1       4.104  -1.283   1.053  0.00  0.00    -0.354 N 
ATOM     30  H   UNL d   1       3.742  -0.388   1.381  0.00  0.00     0.166 HD
ENDBRANCH  23  24
ENDBRANCH  18  23
ENDBRANCH  15  18
ENDBRANCH  13  14
ENDBRANCH  12  13
ENDBRANCH   1  12
BRANCH   3  31
ATOM     31  O   UNL d   1       8.826   7.330  -5.139  0.00  0.00    -0.360 OA
ATOM     32  H   UNL d   1       8.133   7.525  -4.493  0.00  0.00     0.217 HD
ENDBRANCH   3  31
BRANCH   9  33
ATOM     33  C   UNL d   1      12.198   6.515  -9.018  0.00  0.00    -0.042 A 
ATOM     34  C   UNL d   1      11.129   6.378  -9.925  0.00  0.00     0.011 A 
ATOM     35  C   UNL d   1      11.178   6.973 -11.180  0.00  0.00     0.040 A 
ATOM     36  C   UNL d   1      12.296   7.715 -11.542  0.00  0.00     0.102 A 
ATOM     37  C   UNL d   1      13.351   7.887 -10.639  0.00  0.00     0.102 A 
ATOM     38  O   UNL d   1      12.283   8.257 -12.800  0.00  0.00    -0.346 OA
ATOM     39  C   UNL d   1      13.308   7.285  -9.383  0.00  0.00     0.047 A 
ATOM     40  O   UNL d   1      14.470   8.625 -10.923  0.00  0.00    -0.346 OA
ATOM     41  C   UNL d   1      14.269   9.457 -12.069  0.00  0.00     0.202 C 
ATOM     42  C   UNL d   1      13.588   8.691 -13.190  0.00  0.00     0.202 C 
ENDBRANCH   9  33
TORSDOF 10
