@<TRIPOS>MOLECULE
*****
 48 49 0 0 0
SMALL
GASTEIGER

@<TRIPOS>ATOM
      1 O           5.5247   11.9477    9.7218 O.2     1  UNL1       -0.2513
      2 C           5.5491   12.8080    8.8360 C.2     1  UNL1        0.3159
      3 N           5.2714   12.5208    7.5253 N.am    1  UNL1       -0.2982
      4 C           4.9886   11.1608    7.0933 C.3     1  UNL1        0.0152
      5 C           4.7522   11.0374    5.5933 C.3     1  UNL1       -0.0138
      6 C           4.4958    9.5780    5.2153 C.3     1  UNL1        0.0492
      7 O           4.3740    9.5006    3.8071 O.3     1  UNL1       -0.3772
      8 C           4.0169    8.1956    3.3307 C.3     1  UNL1        0.0738
      9 C           3.6807    8.2664    1.8268 C.3     1  UNL1        0.0820
     10 C           3.2900    9.6777    1.4026 C.3     1  UNL1       -0.0224
     11 C           4.6058   10.2437    0.9168 C.3     1  UNL1       -0.0270
     12 C           5.2467    9.0432    0.2659 C.3     1  UNL1        0.0482
     13 O           4.8287    7.9010    1.0265 O.3     1  UNL1       -0.3743
     14 N           5.9196   14.1071    9.1347 N.am    1  UNL1       -0.2203
     15 N           5.5209   15.1999    8.3416 N.pl3   1  UNL1       -0.2633
     16 C           6.0017   16.4859    8.7199 C.ar    1  UNL1        0.0447
     17 C           5.3384   17.5924    8.1693 C.ar    1  UNL1       -0.0359
     18 C           5.7281   18.9097    8.4548 C.ar    1  UNL1       -0.0178
     19 C           6.7690   19.1643    9.3471 C.ar    1  UNL1        0.1301
     20 O           6.9952   20.4852    9.6212 O.3     1  UNL1       -0.4057
     21 C           7.9658   20.7924   10.6129 C.3     1  UNL1        0.5752
     22 F           7.6796   20.1931   11.7894 F       1  UNL1       -0.1328
     23 F           9.1980   20.4186   10.2061 F       1  UNL1       -0.1328
     24 F           7.9818   22.1284   10.8213 F       1  UNL1       -0.1328
     25 C           7.4602   18.0758    9.8803 C.ar    1  UNL1       -0.0178
     26 C           7.0844   16.7496    9.5674 C.ar    1  UNL1       -0.0359
     27 H           5.2779   13.2604    6.8466 H       1  UNL1        0.1503
     28 H           4.1118   10.7993    7.6436 H       1  UNL1        0.0463
     29 H           5.8393   10.5328    7.3842 H       1  UNL1        0.0463
     30 H           5.6125   11.4210    5.0297 H       1  UNL1        0.0302
     31 H           3.9024   11.6603    5.2818 H       1  UNL1        0.0302
     32 H           3.5724    9.2247    5.6878 H       1  UNL1        0.0560
     33 H           5.3324    8.9446    5.5219 H       1  UNL1        0.0560
     34 H           3.1204    7.8633    3.8667 H       1  UNL1        0.0585
     35 H           4.8416    7.5030    3.5292 H       1  UNL1        0.0585
     36 H           2.8997    7.5301    1.6040 H       1  UNL1        0.0619
     37 H           2.8402   10.2687    2.2072 H       1  UNL1        0.0292
     38 H           2.5580    9.6427    0.5903 H       1  UNL1        0.0292
     39 H           5.2313   10.5611    1.7597 H       1  UNL1        0.0288
     40 H           4.4919   11.0998    0.2499 H       1  UNL1        0.0288
     41 H           6.3392    9.0934    0.2624 H       1  UNL1        0.0560
     42 H           4.9017    8.9257   -0.7677 H       1  UNL1        0.0560
     43 H           5.9270   14.2892   10.1360 H       1  UNL1        0.1743
     44 H           5.6667   15.0632    7.3430 H       1  UNL1        0.1700
     45 H           4.4682   17.4287    7.5379 H       1  UNL1        0.0638
     46 H           5.1953   19.7329    7.9831 H       1  UNL1        0.0655
     47 H           8.3062   18.2169   10.5487 H       1  UNL1        0.0655
     48 H           7.6703   15.9455   10.0049 H       1  UNL1        0.0638
@<TRIPOS>BOND
     1     1     2    2
     2     2     3   am
     3     3     4    1
     4     4     5    1
     5     5     6    1
     6     6     7    1
     7     7     8    1
     8     9    10    1
     9    10    11    1
    10    11    12    1
    11    12    13    1
    12     9    13    1
    13     2    14   am
    14    14    15    1
    15    15    16    1
    16    16    17   ar
    17    17    18   ar
    18    18    19   ar
    19    19    20    1
    20    20    21    1
    21    21    22    1
    22    21    23    1
    23    21    24    1
    24    19    25   ar
    25    25    26   ar
    26    16    26   ar
    27     9     8    1
    28     3    27    1
    29     4    28    1
    30     4    29    1
    31     5    30    1
    32     5    31    1
    33     6    32    1
    34     6    33    1
    35     8    34    1
    36     8    35    1
    37     9    36    1
    38    10    37    1
    39    10    38    1
    40    11    39    1
    41    11    40    1
    42    12    41    1
    43    12    42    1
    44    14    43    1
    45    15    44    1
    46    17    45    1
    47    18    46    1
    48    25    47    1
    49    26    48    1
