@<TRIPOS>MOLECULE
*****
 66 69 0 0 0
SMALL
GASTEIGER

@<TRIPOS>ATOM
      1 C           0.8350   -0.4527   -0.3024 C.3     1  UNL1       -0.0613
      2 C           2.3400   -0.5487   -0.4696 C.3     1  UNL1       -0.0304
      3 C           2.7789    0.0306   -1.7805 C.ar    1  UNL1       -0.0444
      4 C           3.6895   -0.6362   -2.5662 C.ar    1  UNL1       -0.0584
      5 C           4.2243    0.0421   -3.6557 C.ar    1  UNL1       -0.0583
      6 C           3.9330    1.4164   -3.8917 C.ar    1  UNL1       -0.0232
      7 C           3.0642    2.1323   -3.0555 C.ar    1  UNL1        0.1000
      8 N           2.9180    3.5585   -3.0587 N.pl3   1  UNL1       -0.2450
      9 C           2.3276    4.3895   -2.0894 C.2     1  UNL1        0.3842
     10 N           1.9436    4.1902   -0.8529 N.am    1  UNL1        0.0006
     11 C           2.5907    3.2498   -0.0763 C.2     1  UNL1        0.3407
     12 O           3.7672    3.0238   -0.1559 O.2     1  UNL1       -0.2483
     13 C           1.7768    2.5522    0.9948 C.ar    1  UNL1        0.0598
     14 C           2.4199    1.5842    1.7762 C.ar    1  UNL1       -0.0444
     15 C           1.6833    0.6794    2.5541 C.ar    1  UNL1       -0.0155
     16 C           0.3266    0.8916    2.7803 C.ar    1  UNL1        0.1615
     17 O          -0.2310    0.0094    3.6726 O.3     1  UNL1       -0.4915
     18 C          -1.4515    0.4271    4.2751 C.3     1  UNL1        0.0790
     19 C          -0.3222    1.9104    2.0565 C.ar    1  UNL1        0.1623
     20 O          -1.6699    2.0525    2.2417 O.3     1  UNL1       -0.4914
     21 C          -2.2975    3.1390    1.5913 C.3     1  UNL1        0.0790
     22 C           0.3963    2.6878    1.1219 C.ar    1  UNL1       -0.0027
     23 N           2.1172    5.7117   -2.5099 N.pl3   1  UNL1       -0.2767
     24 C           1.6457    6.6839   -1.4953 C.3     1  UNL1        0.0684
     25 C           1.6212    8.1259   -1.9610 C.3     1  UNL1        0.0059
     26 C           0.9615    9.1334   -1.0494 C.2     1  UNL1        0.0106
     27 C           0.9220   10.4190   -1.4024 C.ar    1  UNL1        0.0510
     28 C           1.4287   11.0694   -2.5558 C.ar    1  UNL1       -0.0482
     29 C           1.3978   12.4038   -2.5947 C.ar    1  UNL1       -0.0608
     30 C           0.7373   13.1709   -1.5508 C.ar    1  UNL1       -0.0555
     31 C           0.1820   12.6207   -0.4489 C.ar    1  UNL1        0.0098
     32 C           0.2676   11.1486   -0.3114 C.ar    1  UNL1        0.2086
     33 N          -0.1238   10.3528    0.6113 N.2     1  UNL1       -0.2369
     34 C           0.3006    8.9467    0.2933 C.3     1  UNL1        0.1661
     35 C           2.3961    1.3428   -2.1302 C.ar    1  UNL1       -0.0200
     36 H           0.5080   -0.8075    0.6750 H       1  UNL1        0.0233
     37 H           0.3373   -1.0477   -1.0654 H       1  UNL1        0.0233
     38 H           0.4564    0.5644   -0.4237 H       1  UNL1        0.0233
     39 H           2.6853   -1.5654   -0.2598 H       1  UNL1        0.0311
     40 H           2.9189    0.0191    0.2501 H       1  UNL1        0.0311
     41 H           3.9502   -1.6663   -2.3311 H       1  UNL1        0.0620
     42 H           4.9049   -0.5050   -4.3029 H       1  UNL1        0.0619
     43 H           4.3994    1.8797   -4.7554 H       1  UNL1        0.0652
     44 H           3.3674    3.9957   -3.8515 H       1  UNL1        0.2646
     45 H           3.4838    1.4005    1.6279 H       1  UNL1        0.0627
     46 H           2.1461   -0.2526    2.8851 H       1  UNL1        0.0655
     47 H          -1.6463   -0.1825    5.1614 H       1  UNL1        0.0660
     48 H          -2.2831    0.2607    3.5839 H       1  UNL1        0.0660
     49 H          -1.3945    1.4702    4.6086 H       1  UNL1        0.0660
     50 H          -3.3004    3.2451    2.0083 H       1  UNL1        0.0660
     51 H          -2.3822    2.9230    0.5229 H       1  UNL1        0.0660
     52 H          -1.7610    4.0763    1.7733 H       1  UNL1        0.0660
     53 H          -0.1217    3.3473    0.4344 H       1  UNL1        0.0663
     54 H           2.7186    6.0826   -3.2393 H       1  UNL1        0.2577
     55 H           2.2600    6.6435   -0.5845 H       1  UNL1        0.0658
     56 H           0.6211    6.4042   -1.2347 H       1  UNL1        0.0658
     57 H           1.1064    8.1726   -2.9284 H       1  UNL1        0.0343
     58 H           2.6544    8.4612   -2.1380 H       1  UNL1        0.0343
     59 H           1.8640   10.4811   -3.3554 H       1  UNL1        0.0626
     60 H           1.8698   12.9215   -3.4253 H       1  UNL1        0.0618
     61 H           0.6926   14.2436   -1.7320 H       1  UNL1        0.0620
     62 H          -0.2976   13.2451    0.2961 H       1  UNL1        0.0683
     63 H          -0.6496   10.6736    1.4251 H       1  UNL1        0.4459
     64 H          -0.5889    8.3123    0.2512 H       1  UNL1        0.1077
     65 H           0.9889    8.6130    1.0770 H       1  UNL1        0.1077
     66 H           1.5744    1.7944   -1.6005 H       1  UNL1        0.0655
@<TRIPOS>UNITY_ATOM_ATTR
33 1
charge 1
@<TRIPOS>BOND
     1     1     2    1
     2     2     3    1
     3     3     4   ar
     4     4     5   ar
     5     5     6   ar
     6     6     7   ar
     7     7     8    1
     8     8     9    1
     9     9    10    2
    10    10    11    1
    11    11    12    2
    12    11    13    1
    13    13    14   ar
    14    14    15   ar
    15    15    16   ar
    16    16    17    1
    17    17    18    1
    18    16    19   ar
    19    19    20    1
    20    20    21    1
    21    19    22   ar
    22    13    22   ar
    23     9    23    1
    24    23    24    1
    25    24    25    1
    26    25    26    1
    27    26    27    2
    28    27    28   ar
    29    28    29   ar
    30    29    30   ar
    31    30    31   ar
    32    31    32   ar
    33    27    32   ar
    34    32    33    2
    35    33    34    1
    36    26    34    1
    37     7    35   ar
    38     3    35   ar
    39     1    36    1
    40     1    37    1
    41     1    38    1
    42     2    39    1
    43     2    40    1
    44     4    41    1
    45     5    42    1
    46     6    43    1
    47     8    44    1
    48    14    45    1
    49    15    46    1
    50    18    47    1
    51    18    48    1
    52    18    49    1
    53    21    50    1
    54    21    51    1
    55    21    52    1
    56    22    53    1
    57    23    54    1
    58    24    55    1
    59    24    56    1
    60    25    57    1
    61    25    58    1
    62    28    59    1
    63    29    60    1
    64    30    61    1
    65    31    62    1
    66    33    63    1
    67    34    64    1
    68    34    65    1
    69    35    66    1
