REMARK  9 active torsions:
REMARK  status: ('A' for Active; 'I' for Inactive)
REMARK    1  A    between atoms: O_2  and  C_3 
REMARK    2  A    between atoms: C_7  and  C_8 
REMARK    3  A    between atoms: C_8  and  N_9 
REMARK       I    between atoms: N_9  and  C_10 
REMARK    4  A    between atoms: C_10  and  C_12 
REMARK    5  A    between atoms: C_12  and  C_13 
REMARK    6  A    between atoms: C_13  and  C_14 
REMARK    7  A    between atoms: C_14  and  N_15 
REMARK       I    between atoms: N_15  and  C_16 
REMARK    8  A    between atoms: C_16  and  C_18 
REMARK    9  A    between atoms: C_24  and  O_25 
ROOT
ATOM      1  N   UNL d   1       1.059   4.893   0.083  0.00  0.00    -0.357 N 
ATOM      2  C   UNL d   1       0.290   6.024   0.061  0.00  0.00     0.217 C 
ATOM      3  O   UNL d   1       0.763   7.162   0.044  0.00  0.00    -0.274 OA
ATOM      4  H   UNL d   1       0.635   4.101  -0.379  0.00  0.00     0.162 HD
ENDROOT
BRANCH   2   5
ATOM      5  C   UNL d   1      -1.210   5.728   0.072  0.00  0.00     0.104 C 
BRANCH   5   6
ATOM      6  C   UNL d   1      -1.999   7.036   0.077  0.00  0.00     0.029 C 
BRANCH   6   7
ATOM      7  C   UNL d   1      -3.510   6.852   0.114  0.00  0.00     0.123 C 
BRANCH   7   8
ATOM      8  N   UNL d   1      -4.203   8.133   0.110  0.00  0.00    -0.357 N 
ATOM      9  C   UNL d   1      -5.582   8.195   0.201  0.00  0.00     0.251 C 
ATOM     10  O   UNL d   1      -6.293   7.203   0.288  0.00  0.00    -0.268 OA
ATOM     11  H   UNL d   1      -3.661   8.988   0.129  0.00  0.00     0.162 HD
BRANCH   9  12
ATOM     12  C   UNL d   1      -6.204   9.550   0.177  0.00  0.00     0.032 A 
ATOM     13  C   UNL d   1      -7.332   9.802   0.972  0.00  0.00     0.017 A 
ATOM     14  C   UNL d   1      -8.039  11.001   0.833  0.00  0.00     0.001 A 
ATOM     15  C   UNL d   1      -7.587  11.979  -0.052  0.00  0.00     0.000 A 
ATOM     16  C   UNL d   1      -6.453  11.741  -0.830  0.00  0.00     0.001 A 
ATOM     17  C   UNL d   1      -5.766  10.527  -0.724  0.00  0.00     0.017 A 
ENDBRANCH   9  12
ENDBRANCH   7   8
ENDBRANCH   6   7
ENDBRANCH   5   6
ENDBRANCH   2   5
BRANCH   1  18
ATOM     18  C   UNL d   1       2.511   4.898   0.008  0.00  0.00     0.164 C 
BRANCH  18  19
ATOM     19  C   UNL d   1       3.128   3.508   0.014  0.00  0.00    -0.004 A 
ATOM     20  C   UNL d   1       4.538   3.422  -0.007  0.00  0.00     0.012 A 
ATOM     21  C   UNL d   1       5.193   2.189  -0.017  0.00  0.00     0.003 A 
ATOM     22  C   UNL d   1       4.446   1.013   0.005  0.00  0.00     0.039 A 
ATOM     23  C   UNL d   1       3.044   1.055   0.001  0.00  0.00     0.101 A 
ATOM     24  C   UNL d   1       2.393   2.304  -0.018  0.00  0.00     0.106 A 
BRANCH  23  25
ATOM     25  O   UNL d   1       2.459  -0.187  -0.010  0.00  0.00    -0.353 OA
ATOM     26  C   UNL d   1       1.039  -0.231  -0.012  0.00  0.00     0.210 C 
ENDBRANCH  23  25
BRANCH  24  27
ATOM     27  O   UNL d   1       1.032   2.366  -0.222  0.00  0.00    -0.357 OA
ATOM     28  H   UNL d   1       0.598   2.608   0.618  0.00  0.00     0.217 HD
ENDBRANCH  24  27
ENDBRANCH  18  19
ENDBRANCH   1  18
TORSDOF 9
