@<TRIPOS>MOLECULE
*****
 46 47 0 0 0
SMALL
GASTEIGER

@<TRIPOS>ATOM
      1 C           1.0171    0.1079    0.0340 C.3     1  UNL1       -0.0510
      2 C           2.5350    0.0451   -0.0040 C.3     1  UNL1        0.0146
      3 N           3.1446    0.6926    1.1906 N.3     1  UNL1       -0.1901
      4 S           4.8512    0.4767    1.2564 S.O2    1  UNL1        0.0619
      5 O           5.0489   -0.8489    1.7789 O.2     1  UNL1       -0.1529
      6 O           5.4070    0.8000   -0.0474 O.2     1  UNL1       -0.1529
      7 C           5.3393    1.6896    2.5124 C.ar    1  UNL1        0.1473
      8 C           5.6655    1.1181    3.7634 C.ar    1  UNL1       -0.0196
      9 C           5.7381    1.8902    4.9479 C.ar    1  UNL1        0.0391
     10 C           5.6101    1.1775    6.2530 C.2     1  UNL1        0.2483
     11 O           5.3217   -0.0151    6.1808 O.2     1  UNL1       -0.2699
     12 N           5.6677    1.8893    7.4535 N.am    1  UNL1       -0.2811
     13 C           5.7029    1.2618    8.7321 C.ar    1  UNL1        0.0430
     14 C           4.9556    1.8084    9.7940 C.ar    1  UNL1        0.0370
     15 C           5.0924    1.2748   11.0930 C.ar    1  UNL1        0.2749
     16 N           4.4722    1.9401   12.2492 N.pl3   1  UNL1        0.0797
     17 O           3.7829    2.9465   12.0353 O.2     1  UNL1        0.0414
     18 O           4.7137    1.4820   13.3769 O.co2   1  UNL1       -0.5760
     19 C           5.9049    0.1646   11.3302 C.ar    1  UNL1        0.0160
     20 C           6.6524   -0.3603   10.2845 C.ar    1  UNL1       -0.0507
     21 C           6.5746    0.1826    8.9914 C.ar    1  UNL1       -0.0288
     22 C           7.4955   -0.3945    7.9524 C.3     1  UNL1       -0.0379
     23 C           5.7170    3.2700    4.8565 C.ar    1  UNL1       -0.0461
     24 C           5.4564    3.8516    3.6163 C.ar    1  UNL1       -0.0173
     25 C           5.2391    3.0899    2.4392 C.ar    1  UNL1        0.1464
     26 O           4.9273    3.9357    1.4091 O.3     1  UNL1       -0.4932
     27 C           4.9154    3.3900    0.1107 C.3     1  UNL1        0.0789
     28 H           0.6080   -0.4247   -0.8330 H       1  UNL1        0.0242
     29 H           0.6503    1.1387   -0.0057 H       1  UNL1        0.0242
     30 H           0.6161   -0.3634    0.9366 H       1  UNL1        0.0242
     31 H           2.8813    0.5549   -0.9086 H       1  UNL1        0.0438
     32 H           2.8399   -1.0047   -0.0381 H       1  UNL1        0.0438
     33 H           2.7488    0.3175    2.0574 H       1  UNL1        0.1480
     34 H           5.7797    0.0349    3.8428 H       1  UNL1        0.0646
     35 H           5.5121    2.8877    7.4515 H       1  UNL1        0.1551
     36 H           4.2444    2.6130    9.6143 H       1  UNL1        0.0704
     37 H           5.9928   -0.2846   12.3174 H       1  UNL1        0.0685
     38 H           7.3391   -1.1796   10.4873 H       1  UNL1        0.0623
     39 H           8.1987   -1.1101    8.3829 H       1  UNL1        0.0278
     40 H           8.0740    0.3997    7.4689 H       1  UNL1        0.0278
     41 H           6.9350   -0.9685    7.2185 H       1  UNL1        0.0278
     42 H           5.8404    3.9113    5.7211 H       1  UNL1        0.0626
     43 H           5.3566    4.9376    3.5765 H       1  UNL1        0.0655
     44 H           4.7522    4.1586   -0.6443 H       1  UNL1        0.0660
     45 H           4.0594    2.7233    0.0263 H       1  UNL1        0.0660
     46 H           5.8911    2.9456   -0.1015 H       1  UNL1        0.0660
@<TRIPOS>UNITY_ATOM_ATTR
16 1
charge 1
18 1
charge -1
@<TRIPOS>BOND
     1     1     2    1
     2     2     3    1
     3     3     4    1
     4     4     5    2
     5     4     6    2
     6     4     7    1
     7     7     8   ar
     8     8     9   ar
     9     9    10    1
    10    10    11    2
    11    10    12   am
    12    12    13    1
    13    13    14   ar
    14    14    15   ar
    15    15    16    1
    16    16    17    2
    17    16    18    1
    18    15    19   ar
    19    19    20   ar
    20    20    21   ar
    21    13    21   ar
    22    21    22    1
    23     9    23   ar
    24    23    24   ar
    25    24    25   ar
    26     7    25   ar
    27    25    26    1
    28    26    27    1
    29     1    28    1
    30     1    29    1
    31     1    30    1
    32     2    31    1
    33     2    32    1
    34     3    33    1
    35     8    34    1
    36    12    35    1
    37    14    36    1
    38    19    37    1
    39    20    38    1
    40    22    39    1
    41    22    40    1
    42    22    41    1
    43    23    42    1
    44    24    43    1
    45    27    44    1
    46    27    45    1
    47    27    46    1
