REMARK  16 active torsions:
REMARK  status: ('A' for Active; 'I' for Inactive)
REMARK    1  A    between atoms: C_2  and  C_3 
REMARK       I    between atoms: C_2  and  N_26 
REMARK    2  A    between atoms: C_3  and  C_4 
REMARK    3  A    between atoms: C_4  and  C_5 
REMARK    4  A    between atoms: C_5  and  C_6 
REMARK    5  A    between atoms: C_6  and  C_7 
REMARK    6  A    between atoms: C_7  and  C_8 
REMARK    7  A    between atoms: C_8  and  C_9 
REMARK    8  A    between atoms: C_9  and  C_10 
REMARK       I    between atoms: C_10  and  N_12 
REMARK    9  A    between atoms: N_12  and  C_13 
REMARK   10  A    between atoms: C_16  and  O_17 
REMARK   11  A    between atoms: O_17  and  C_18 
REMARK   12  A    between atoms: C_19  and  C_18 
REMARK   13  A    between atoms: N_26  and  C_27 
REMARK   14  A    between atoms: C_30  and  O_31 
REMARK   15  A    between atoms: O_31  and  C_32 
REMARK   16  A    between atoms: C_33  and  C_32 
ROOT
ATOM      1  C   UNL d   1      24.782  11.214  27.098  0.00  0.00     0.000 C 
ENDROOT
BRANCH   1   2
ATOM      2  C   UNL d   1      24.210  11.382  28.494  0.00  0.00     0.000 C 
BRANCH   2   3
ATOM      3  C   UNL d   1      25.319  11.767  29.469  0.00  0.00     0.009 C 
BRANCH   3   4
ATOM      4  C   UNL d   1      24.740  11.910  30.861  0.00  0.00     0.103 C 
BRANCH   4   5
ATOM      5  C   UNL d   1      25.776  12.236  31.923  0.00  0.00     0.222 C 
ATOM      6  O   UNL d   1      26.977  12.369  31.655  0.00  0.00    -0.273 OA
ATOM      7  N   UNL d   1      25.341  12.478  33.204  0.00  0.00    -0.327 N 
ATOM      8  H   UNL d   1      26.046  12.887  33.807  0.00  0.00     0.169 HD
BRANCH   7   9
ATOM      9  C   UNL d   1      24.058  12.263  33.733  0.00  0.00     0.034 A 
ATOM     10  C   UNL d   1      23.531  13.139  34.680  0.00  0.00     0.032 A 
ATOM     11  C   UNL d   1      22.251  12.900  35.210  0.00  0.00     0.039 A 
ATOM     12  C   UNL d   1      21.477  11.824  34.760  0.00  0.00     0.069 A 
ATOM     13  C   UNL d   1      22.032  10.934  33.852  0.00  0.00     0.039 A 
ATOM     14  C   UNL d   1      23.320  11.138  33.378  0.00  0.00     0.032 A 
BRANCH  12  15
ATOM     15  O   UNL d   1      20.204  11.725  35.254  0.00  0.00    -0.349 OA
BRANCH  15  16
ATOM     16  C   UNL d   1      19.407  10.647  34.729  0.00  0.00     0.207 C 
BRANCH  16  17
ATOM     17  C   UNL d   1      17.990  10.732  35.312  0.00  0.00     0.145 C 
ATOM     18  C   UNL d   1      16.980  11.295  34.319  0.00  0.00     0.036 C 
ATOM     19  C   UNL d   1      16.404  10.060  33.670  0.00  0.00     0.029 C 
ATOM     20  C   UNL d   1      16.441   9.046  34.788  0.00  0.00     0.168 C 
ATOM     21  O   UNL d   1      17.533   9.403  35.641  0.00  0.00    -0.384 OA
ENDBRANCH  16  17
ENDBRANCH  15  16
ENDBRANCH  12  15
ENDBRANCH   7   9
ENDBRANCH   4   5
ENDBRANCH   3   4
ENDBRANCH   2   3
ENDBRANCH   1   2
BRANCH   1  22
ATOM     22  C   UNL d   1      23.682  10.844  26.108  0.00  0.00     0.000 C 
BRANCH  22  23
ATOM     23  C   UNL d   1      24.267  10.689  24.715  0.00  0.00     0.009 C 
BRANCH  23  24
ATOM     24  C   UNL d   1      23.212  10.323  23.664  0.00  0.00     0.103 C 
BRANCH  24  25
ATOM     25  C   UNL d   1      23.888  10.192  22.311  0.00  0.00     0.222 C 
ATOM     26  O   UNL d   1      25.105  10.365  22.197  0.00  0.00    -0.273 OA
ATOM     27  N   UNL d   1      23.049   9.905  21.243  0.00  0.00    -0.327 N 
ATOM     28  H   UNL d   1      22.048  10.002  21.352  0.00  0.00     0.169 HD
BRANCH  27  29
ATOM     29  C   UNL d   1      23.564   9.692  19.941  0.00  0.00     0.034 A 
ATOM     30  C   UNL d   1      22.903  10.164  18.806  0.00  0.00     0.032 A 
ATOM     31  C   UNL d   1      23.443   9.916  17.528  0.00  0.00     0.039 A 
ATOM     32  C   UNL d   1      24.652   9.222  17.378  0.00  0.00     0.069 A 
ATOM     33  C   UNL d   1      25.283   8.727  18.513  0.00  0.00     0.039 A 
ATOM     34  C   UNL d   1      24.746   8.966  19.776  0.00  0.00     0.032 A 
BRANCH  32  35
ATOM     35  O   UNL d   1      25.133   9.091  16.101  0.00  0.00    -0.349 OA
BRANCH  35  36
ATOM     36  C   UNL d   1      26.434   8.496  15.966  0.00  0.00     0.207 C 
BRANCH  36  37
ATOM     37  C   UNL d   1      26.886   8.550  14.501  0.00  0.00     0.145 C 
ATOM     38  C   UNL d   1      27.098   9.972  14.004  0.00  0.00     0.036 C 
ATOM     39  C   UNL d   1      28.574  10.195  14.222  0.00  0.00     0.029 C 
ATOM     40  C   UNL d   1      29.160   8.822  13.991  0.00  0.00     0.168 C 
ATOM     41  O   UNL d   1      28.150   7.870  14.355  0.00  0.00    -0.384 OA
ENDBRANCH  36  37
ENDBRANCH  35  36
ENDBRANCH  32  35
ENDBRANCH  27  29
ENDBRANCH  24  25
ENDBRANCH  23  24
ENDBRANCH  22  23
ENDBRANCH   1  22
TORSDOF 16
