@<TRIPOS>MOLECULE
*****
 58 62 0 0 0
SMALL
GASTEIGER

@<TRIPOS>ATOM
      1 C          13.1054  -20.1285   -7.4364 C.3     1  UNL1       -0.0397
      2 C          13.2645  -20.4048   -5.9696 C.ar    1  UNL1       -0.0495
      3 C          14.0776  -21.5405   -5.5256 C.ar    1  UNL1       -0.0526
      4 C          14.2750  -21.8621   -4.2328 C.ar    1  UNL1        0.0101
      5 C          13.6279  -21.0131   -3.2055 C.ar    1  UNL1        0.2086
      6 C          12.8157  -19.8783   -3.6884 C.ar    1  UNL1        0.0512
      7 C          12.6575  -19.6051   -5.0726 C.ar    1  UNL1       -0.0452
      8 C          12.3522  -19.2856   -2.5808 C.2     1  UNL1        0.0091
      9 C          11.4746  -18.0692   -2.5507 C.3     1  UNL1       -0.0092
     10 C          11.1258  -17.6077   -1.1449 C.3     1  UNL1        0.0155
     11 N          10.3556  -16.3820   -1.0835 N.am    1  UNL1       -0.3148
     12 C          10.0238  -15.9318    0.1690 C.2     1  UNL1        0.2162
     13 O          10.4131  -16.5559    1.1619 O.2     1  UNL1       -0.2755
     14 C           9.0432  -14.7958    0.3635 C.3     1  UNL1        0.0379
     15 C           9.3382  -13.3010    0.0700 C.3     1  UNL1       -0.0290
     16 C           8.1114  -12.5214    0.5687 C.3     1  UNL1        0.0020
     17 N           6.9215  -12.9835   -0.1744 N.3     1  UNL1       -0.2757
     18 C           7.0860  -12.8688   -1.6953 C.3     1  UNL1        0.1289
     19 N           8.0971  -13.6469   -2.5664 N.pl3   1  UNL1       -0.3178
     20 C           7.4116  -14.6883   -3.2745 C.ar    1  UNL1        0.0612
     21 C           7.9930  -15.9046   -3.6630 C.ar    1  UNL1       -0.0368
     22 C           7.2001  -17.0518   -3.5138 C.ar    1  UNL1       -0.0418
     23 C           5.8353  -16.8950   -3.2905 C.ar    1  UNL1        0.0290
     24 N           5.2161  -15.7023   -3.2026 N.ar    1  UNL1       -0.2468
     25 C           6.0236  -14.6353   -3.1713 C.ar    1  UNL1        0.1206
     26 S           5.4708  -13.0894   -2.5210 S.3     1  UNL1       -0.0657
     27 C           6.5800  -14.3159    0.3649 C.3     1  UNL1        0.0020
     28 C           7.6495  -15.2921   -0.0583 C.3     1  UNL1       -0.0290
     29 C          12.8371  -20.0037   -1.3501 C.3     1  UNL1        0.1661
     30 N          13.6457  -21.0880   -1.9486 N.2     1  UNL1       -0.2369
     31 H          13.6449  -20.8447   -8.0621 H       1  UNL1        0.0278
     32 H          13.4807  -19.1264   -7.6744 H       1  UNL1        0.0278
     33 H          12.0461  -20.1712   -7.7155 H       1  UNL1        0.0278
     34 H          14.5396  -22.1456   -6.3066 H       1  UNL1        0.0622
     35 H          14.8848  -22.7121   -3.9474 H       1  UNL1        0.0683
     36 H          12.0525  -18.7604   -5.3859 H       1  UNL1        0.0628
     37 H          10.5490  -18.2852   -3.0982 H       1  UNL1        0.0327
     38 H          11.9820  -17.2508   -3.0741 H       1  UNL1        0.0327
     39 H          12.0447  -17.4312   -0.5712 H       1  UNL1        0.0465
     40 H          10.5719  -18.4004   -0.6195 H       1  UNL1        0.0465
     41 H           9.9377  -15.9642   -1.9062 H       1  UNL1        0.1487
     42 H           9.0117  -14.7613    1.4590 H       1  UNL1        0.0395
     43 H           9.5265  -13.0257   -0.9684 H       1  UNL1        0.0285
     44 H          10.2388  -12.9555    0.5863 H       1  UNL1        0.0285
     45 H           8.2098  -11.4328    0.5121 H       1  UNL1        0.0428
     46 H           7.9985  -12.7106    1.6557 H       1  UNL1        0.0428
     47 H           7.3166  -11.8055   -1.8308 H       1  UNL1        0.0794
     48 H           8.7000  -13.0840   -3.1626 H       1  UNL1        0.1484
     49 H           9.0385  -16.0335   -3.9264 H       1  UNL1        0.0637
     50 H           7.6225  -18.0545   -3.5083 H       1  UNL1        0.0633
     51 H           5.1782  -17.7478   -3.1494 H       1  UNL1        0.0830
     52 H           5.5724  -14.6359    0.0796 H       1  UNL1        0.0428
     53 H           6.5507  -14.3207    1.4717 H       1  UNL1        0.0428
     54 H           7.5884  -15.3949   -1.1209 H       1  UNL1        0.0285
     55 H           7.4426  -16.3107    0.2795 H       1  UNL1        0.0285
     56 H          12.0203  -20.4480   -0.7768 H       1  UNL1        0.1077
     57 H          13.4861  -19.3817   -0.7296 H       1  UNL1        0.1077
     58 H          14.1549  -21.8076   -1.4194 H       1  UNL1        0.4459
@<TRIPOS>UNITY_ATOM_ATTR
30 1
charge 1
@<TRIPOS>BOND
     1     1     2    1
     2     2     3   ar
     3     3     4   ar
     4     4     5   ar
     5     5     6   ar
     6     6     7   ar
     7     2     7   ar
     8     6     8    2
     9     8     9    1
    10     9    10    1
    11    10    11    1
    12    11    12   am
    13    12    13    2
    14    12    14    1
    15    14    15    1
    16    15    16    1
    17    16    17    1
    18    18    19    1
    19    19    20    1
    20    20    21   ar
    21    21    22   ar
    22    22    23   ar
    23    23    24   ar
    24    24    25   ar
    25    20    25   ar
    26    25    26    1
    27    18    26    1
    28    17    27    1
    29    27    28    1
    30    14    28    1
    31     8    29    1
    32    29    30    1
    33     5    30    2
    34    18    17    1
    35     1    31    1
    36     1    32    1
    37     1    33    1
    38     3    34    1
    39     4    35    1
    40     7    36    1
    41     9    37    1
    42     9    38    1
    43    10    39    1
    44    10    40    1
    45    11    41    1
    46    14    42    1
    47    15    43    1
    48    15    44    1
    49    16    45    1
    50    16    46    1
    51    18    47    1
    52    19    48    1
    53    21    49    1
    54    22    50    1
    55    23    51    1
    56    27    52    1
    57    27    53    1
    58    28    54    1
    59    28    55    1
    60    29    56    1
    61    29    57    1
    62    30    58    1
