REMARK  14 active torsions:
REMARK  status: ('A' for Active; 'I' for Inactive)
REMARK    1  A    between atoms: C_2  and  C_3 
REMARK    2  A    between atoms: C_3  and  C_4 
REMARK    3  A    between atoms: C_4  and  C_5 
REMARK    4  A    between atoms: C_5  and  C_6 
REMARK    5  A    between atoms: C_6  and  N_7 
REMARK       I    between atoms: N_7  and  C_8 
REMARK    6  A    between atoms: C_18  and  N_7 
REMARK    7  A    between atoms: C_8  and  C_10 
REMARK    8  A    between atoms: C_11  and  C_12 
REMARK    9  A    between atoms: C_18  and  C_28 
REMARK   10  A    between atoms: C_18  and  C_19 
REMARK       I    between atoms: C_19  and  N_21 
REMARK   11  A    between atoms: N_21  and  C_22 
REMARK   12  A    between atoms: C_29  and  O_30 
REMARK   13  A    between atoms: C_32  and  O_33 
REMARK   14  A    between atoms: C_35  and  O_36 
ROOT
ATOM      1  C   UNL d   1       8.632   0.179  -4.565  0.00  0.00     0.219 C 
ENDROOT
BRANCH   1   2
ATOM      2  C   UNL d   1       8.779   0.304  -6.088  0.00  0.00     0.040 C 
ATOM      3  C   UNL d   1       8.715  -0.805  -6.962  0.00  0.00     0.080 C 
ATOM      4  C   UNL d   1       9.014  -0.701  -8.313  0.00  0.00     0.073 C 
ATOM      5  C   UNL d   1       9.148   0.549  -8.873  0.00  0.00     0.071 C 
ATOM      6  C   UNL d   1       9.053   1.687  -8.083  0.00  0.00     0.073 C 
ATOM      7  C   UNL d   1       8.905   1.563  -6.696  0.00  0.00     0.080 C 
BRANCH   3   8
ATOM      8  O   UNL d   1       8.420  -2.093  -6.606  0.00  0.00    -0.360 OA
ATOM      9  H   UNL d   1       8.282  -2.194  -5.649  0.00  0.00     0.217 HD
ENDBRANCH   3   8
BRANCH   5  10
ATOM     10  O   UNL d   1       9.336   0.691 -10.215  0.00  0.00    -0.361 OA
ATOM     11  H   UNL d   1       9.355  -0.198 -10.611  0.00  0.00     0.217 HD
ENDBRANCH   5  10
BRANCH   7  12
ATOM     12  O   UNL d   1       8.849   2.695  -5.925  0.00  0.00    -0.360 OA
ATOM     13  H   UNL d   1       8.893   3.467  -6.519  0.00  0.00     0.217 HD
ENDBRANCH   7  12
ENDBRANCH   1   2
BRANCH   1  14
ATOM     14  C   UNL d   1       7.076   0.168  -4.266  0.00  0.00     0.245 C 
ATOM     15  O   UNL d   1       6.263  -0.128  -5.145  0.00  0.00    -0.271 OA
ATOM     16  N   UNL d   1       6.634   0.471  -2.978  0.00  0.00    -0.354 N 
ATOM     17  H   UNL d   1       7.295   0.636  -2.231  0.00  0.00     0.162 HD
BRANCH  16  18
ATOM     18  C   UNL d   1       5.199   0.444  -2.648  0.00  0.00     0.084 C 
ATOM     19  C   UNL d   1       4.939   0.738  -1.157  0.00  0.00     0.025 C 
ATOM     20  C   UNL d   1       3.442   0.833  -0.833  0.00  0.00     0.002 C 
ATOM     21  C   UNL d   1       2.735   1.848  -1.724  0.00  0.00     0.000 C 
ATOM     22  C   UNL d   1       2.959   1.517  -3.189  0.00  0.00     0.002 C 
ATOM     23  C   UNL d   1       4.441   1.459  -3.515  0.00  0.00     0.025 C 
ENDBRANCH  16  18
ENDBRANCH   1  14
BRANCH   1  24
ATOM     24  N   UNL d   1       9.340  -1.014  -3.977  0.00  0.00    -0.324 N 
ATOM     25  C   UNL d   1      10.187  -1.877  -4.684  0.00  0.00     0.299 C 
ATOM     26  O   UNL d   1      10.014  -3.092  -4.688  0.00  0.00    -0.258 OA
BRANCH  24  27
ATOM     27  C   UNL d   1       9.092  -1.349  -2.579  0.00  0.00     0.128 C 
BRANCH  27  28
ATOM     28  C   UNL d   1       9.681  -2.684  -2.177  0.00  0.00     0.020 C 
BRANCH  28  29
ATOM     29  C   UNL d   1       9.508  -2.991  -0.725  0.00  0.00     0.002 C 
BRANCH  29  30
ATOM     30  C   UNL d   1      10.138  -4.350  -0.471  0.00  0.00    -0.000 C 
BRANCH  30  31
ATOM     31  C   UNL d   1       9.984  -4.698   0.992  0.00  0.00    -0.005 C 
ATOM     32  C   UNL d   1      10.609  -6.044   1.276  0.00  0.00     0.005 C 
ENDBRANCH  30  31
ENDBRANCH  29  30
ENDBRANCH  28  29
ENDBRANCH  27  28
ENDBRANCH  24  27
BRANCH  25  33
ATOM     33  C   UNL d   1      11.178  -1.391  -5.593  0.00  0.00     0.000 C 
ATOM     34  C   UNL d   1      11.886  -1.111  -6.507  0.00  0.00    -0.057 C 
BRANCH  34  35
ATOM     35  C   UNL d   1      12.737  -0.735  -7.577  0.00  0.00     0.018 A 
ATOM     36  C   UNL d   1      12.573  -1.213  -8.879  0.00  0.00     0.020 A 
ATOM     37  C   UNL d   1      13.499  -0.848  -9.855  0.00  0.00     0.001 A 
ATOM     38  C   UNL d   1      14.573  -0.020  -9.517  0.00  0.00     0.000 A 
ATOM     39  C   UNL d   1      14.712   0.464  -8.217  0.00  0.00     0.001 A 
ATOM     40  C   UNL d   1      13.784   0.117  -7.250  0.00  0.00     0.020 A 
ENDBRANCH  34  35
ENDBRANCH  25  33
ENDBRANCH   1  24
TORSDOF 14
