REMARK  7 active torsions:
REMARK  status: ('A' for Active; 'I' for Inactive)
REMARK    1  A    between atoms: C_2  and  O_3 
REMARK    2  A    between atoms: O_3  and  C_4 
REMARK    3  A    between atoms: C_9  and  N_10 
REMARK    4  A    between atoms: C_11  and  N_12 
REMARK    5  A    between atoms: C_13  and  C_14 
REMARK       I    between atoms: C_14  and  N_16 
REMARK    6  A    between atoms: N_16  and  C_17 
REMARK    7  A    between atoms: C_17  and  C_18 
ROOT
ATOM      1  N   UNL d   1       4.325   1.281   1.229  0.00  0.00    -0.277 N 
ATOM      2  C   UNL d   1       4.884   2.497   0.754  0.00  0.00     0.126 C 
ATOM      3  C   UNL d   1       4.187   3.547   1.363  0.00  0.00     0.108 C 
ATOM      4  C   UNL d   1       3.567   2.883   2.453  0.00  0.00     0.123 C 
ATOM      5  N   UNL d   1       3.029   3.227   3.644  0.00  0.00    -0.242 NA
ATOM      6  C   UNL d   1       2.080   2.273   3.965  0.00  0.00     0.086 C 
ATOM      7  C   UNL d   1       2.267   1.045   4.724  0.00  0.00     0.034 C 
ATOM      8  C   UNL d   1       1.127   0.214   4.902  0.00  0.00     0.002 C 
ATOM      9  C   UNL d   1      -0.080   0.779   4.552  0.00  0.00     0.002 C 
ATOM     10  C   UNL d   1      -0.019   1.827   3.647  0.00  0.00     0.034 C 
ATOM     11  C   UNL d   1       1.257   2.016   3.098  0.00  0.00     0.088 C 
ATOM     12  N   UNL d   1       1.855   1.268   2.041  0.00  0.00    -0.226 NA
ATOM     13  C   UNL d   1       3.139   1.721   1.838  0.00  0.00     0.167 C 
ENDROOT
BRANCH   3  14
ATOM     14  C   UNL d   1       4.038   4.930   0.926  0.00  0.00     0.258 C 
ATOM     15  O   UNL d   1       4.727   5.407   0.017  0.00  0.00    -0.267 OA
ATOM     16  N   UNL d   1       2.989   5.634   1.506  0.00  0.00    -0.354 N 
ATOM     17  H   UNL d   1       2.458   5.166   2.230  0.00  0.00     0.162 HD
BRANCH  16  18
ATOM     18  C   UNL d   1       2.685   7.037   1.217  0.00  0.00     0.155 C 
BRANCH  18  19
ATOM     19  C   UNL d   1       1.506   7.611   2.038  0.00  0.00     0.139 C 
ATOM     20  C   UNL d   1       0.140   7.043   1.676  0.00  0.00     0.035 C 
ATOM     21  C   UNL d   1      -0.802   8.178   2.009  0.00  0.00     0.029 C 
ATOM     22  C   UNL d   1       0.026   9.400   1.685  0.00  0.00     0.168 C 
ATOM     23  O   UNL d   1       1.404   9.039   1.856  0.00  0.00    -0.384 OA
ENDBRANCH  18  19
ENDBRANCH  16  18
ENDBRANCH   3  14
BRANCH   2  24
ATOM     24  N   UNL d   1       5.811   2.526  -0.223  0.00  0.00    -0.384 N 
ATOM     25  H   UNL d   1       6.219   1.698  -0.653  0.00  0.00     0.157 HD
ATOM     26  H   UNL d   1       6.013   3.406  -0.710  0.00  0.00     0.157 HD
ENDBRANCH   2  24
BRANCH   1  27
ATOM     27  C   UNL d   1       4.878  -0.038   1.058  0.00  0.00     0.076 A 
ATOM     28  C   UNL d   1       6.266  -0.232   1.278  0.00  0.00     0.033 A 
ATOM     29  C   UNL d   1       6.857  -1.509   1.196  0.00  0.00     0.002 A 
ATOM     30  C   UNL d   1       6.084  -2.613   0.861  0.00  0.00     0.003 A 
ATOM     31  C   UNL d   1       4.723  -2.434   0.631  0.00  0.00     0.039 A 
ATOM     32  C   UNL d   1       4.117  -1.163   0.729  0.00  0.00     0.096 A 
BRANCH  32  33
ATOM     33  O   UNL d   1       2.779  -1.188   0.488  0.00  0.00    -0.349 OA
BRANCH  33  34
ATOM     34  C   UNL d   1       2.311  -0.280  -0.506  0.00  0.00     0.171 C 
ATOM     35  C   UNL d   1       0.806  -0.241  -0.346  0.00  0.00     0.034 C 
ENDBRANCH  33  34
ENDBRANCH  32  33
ENDBRANCH   1  27
TORSDOF 7
