@<TRIPOS>MOLECULE
*****
 30 31 0 0 0
SMALL
GASTEIGER

@<TRIPOS>ATOM
      1 O           1.0567   -0.1124    0.1279 O.2     1  UNL1       -0.2687
      2 C           2.2874   -0.1637    0.0949 C.2     1  UNL1        0.2601
      3 N           3.0319   -0.8504    1.0465 N.am    1  UNL1       -0.2301
      4 N           2.3478   -1.4980    2.1162 N.am    1  UNL1       -0.2300
      5 C           3.0654   -2.1049    3.1362 C.2     1  UNL1        0.2630
      6 O           4.2959   -2.0857    3.1975 O.2     1  UNL1       -0.2686
      7 C           2.2905   -2.7620    4.2278 C.ar    1  UNL1        0.0746
      8 C           2.6698   -2.5636    5.5667 C.ar    1  UNL1       -0.0284
      9 C           1.9424   -3.1689    6.5999 C.ar    1  UNL1        0.0419
     10 CL          2.3792   -2.8928    8.2426 Cl      1  UNL1       -0.0835
     11 C           0.8516   -3.9907    6.3167 C.ar    1  UNL1       -0.0406
     12 C           0.4954   -4.2199    4.9873 C.ar    1  UNL1       -0.0243
     13 C           1.2163   -3.6105    3.9541 C.ar    1  UNL1        0.1356
     14 F           0.8633   -3.8801    2.6905 F       1  UNL1       -0.2047
     15 C           3.0304    0.5812   -0.9708 C.ar    1  UNL1        0.0382
     16 C           4.1198    0.0337   -1.6605 C.ar    1  UNL1       -0.0496
     17 C           4.7924    0.7941   -2.6321 C.ar    1  UNL1       -0.0610
     18 C           4.3427    2.0721   -2.9686 C.ar    1  UNL1       -0.0617
     19 C           3.2391    2.6095   -2.3110 C.ar    1  UNL1       -0.0610
     20 C           2.5864    1.8677   -1.3183 C.ar    1  UNL1       -0.0496
     21 H           4.0461   -0.7942    1.1220 H       1  UNL1        0.1731
     22 H           1.3288   -1.4639    2.0803 H       1  UNL1        0.1731
     23 H           3.5218   -1.9309    5.8055 H       1  UNL1        0.0640
     24 H           0.2829   -4.4549    7.1211 H       1  UNL1        0.0633
     25 H          -0.3419   -4.8719    4.7520 H       1  UNL1        0.0647
     26 H           4.4347   -0.9912   -1.4861 H       1  UNL1        0.0625
     27 H           5.6691    0.3913   -3.1361 H       1  UNL1        0.0618
     28 H           4.8431    2.6429   -3.7496 H       1  UNL1        0.0618
     29 H           2.8891    3.6075   -2.5675 H       1  UNL1        0.0618
     30 H           1.7240    2.3000   -0.8154 H       1  UNL1        0.0625
@<TRIPOS>BOND
     1     1     2    2
     2     2     3   am
     3     3     4    1
     4     4     5   am
     5     5     6    2
     6     5     7    1
     7     7     8   ar
     8     8     9   ar
     9     9    10    1
    10     9    11   ar
    11    11    12   ar
    12    12    13   ar
    13     7    13   ar
    14    13    14    1
    15     2    15    1
    16    15    16   ar
    17    16    17   ar
    18    17    18   ar
    19    18    19   ar
    20    19    20   ar
    21    15    20   ar
    22     3    21    1
    23     4    22    1
    24     8    23    1
    25    11    24    1
    26    12    25    1
    27    16    26    1
    28    17    27    1
    29    18    28    1
    30    19    29    1
    31    20    30    1
