@<TRIPOS>MOLECULE
*****
 54 57 0 0 0
SMALL
GASTEIGER

@<TRIPOS>ATOM
      1 O           1.1005   -0.0875    0.2765 O.2     1  UNL1       -0.2738
      2 C           2.3182    0.0041    0.1246 C.2     1  UNL1        0.2347
      3 C           2.9901    1.0095   -0.7984 C.3     1  UNL1        0.1176
      4 N           2.0642    1.8515   -1.5386 N.ar    1  UNL1       -0.2608
      5 C           1.0875    1.4012   -2.3745 C.ar    1  UNL1        0.0473
      6 C           0.5097    2.5009   -2.9551 C.ar    1  UNL1        0.0715
      7 N          -0.5834    2.5136   -3.8145 N.am    1  UNL1       -0.2789
      8 C          -1.2568    1.3564   -4.1915 C.2     1  UNL1        0.2519
      9 O          -0.9283    0.2051   -3.9002 O.2     1  UNL1       -0.2697
     10 C          -2.4472    1.5225   -5.0619 C.ar    1  UNL1        0.0786
     11 C          -2.3743    2.3209   -6.2101 C.ar    1  UNL1       -0.0426
     12 C          -3.4597    2.3856   -7.1023 C.ar    1  UNL1       -0.0432
     13 C          -4.6392    1.6638   -6.8242 C.ar    1  UNL1       -0.0407
     14 C          -4.6955    0.8439   -5.6875 C.ar    1  UNL1       -0.0160
     15 C          -3.6108    0.7817   -4.8114 C.ar    1  UNL1        0.1292
     16 O          -3.7056    0.0153   -3.6827 O.3     1  UNL1       -0.5060
     17 C          -5.8328    1.7146   -7.7527 C.3     1  UNL1       -0.0273
     18 C          -5.7838    2.9123   -8.6994 C.3     1  UNL1       -0.0488
     19 C          -4.4188    2.9639   -9.3733 C.3     1  UNL1       -0.0488
     20 C          -3.3484    3.2658   -8.3263 C.3     1  UNL1       -0.0274
     21 C           1.2829    3.5790   -2.4612 C.ar    1  UNL1        0.0706
     22 N           2.2662    3.1846   -1.6386 N.ar    1  UNL1       -0.1773
     23 N           3.1080   -0.8799    0.8251 N.am    1  UNL1       -0.3109
     24 C           4.5583   -0.9388    0.8768 C.3     1  UNL1        0.0232
     25 C           5.0963   -2.1502    1.6427 C.3     1  UNL1       -0.0345
     26 C           6.5402   -2.2788    1.1609 C.3     1  UNL1       -0.0513
     27 C           6.5542   -1.7400   -0.2623 C.3     1  UNL1       -0.0513
     28 C           5.1806   -1.1479   -0.4992 C.3     1  UNL1       -0.0345
     29 H           3.5377    0.4853   -1.5834 H       1  UNL1        0.0605
     30 H           3.6624    1.6518   -0.2216 H       1  UNL1        0.0605
     31 H           0.8602    0.3463   -2.4380 H       1  UNL1        0.0845
     32 H          -0.9229    3.4186   -4.1126 H       1  UNL1        0.1552
     33 H          -1.4597    2.8605   -6.4430 H       1  UNL1        0.0629
     34 H          -5.5929    0.2619   -5.4933 H       1  UNL1        0.0657
     35 H          -4.5253   -0.5017   -3.6872 H       1  UNL1        0.2922
     36 H          -6.7598    1.7623   -7.1690 H       1  UNL1        0.0313
     37 H          -5.8572    0.7881   -8.3408 H       1  UNL1        0.0313
     38 H          -5.9542    3.8405   -8.1378 H       1  UNL1        0.0268
     39 H          -6.5808    2.8360   -9.4464 H       1  UNL1        0.0268
     40 H          -4.4033    3.7294  -10.1561 H       1  UNL1        0.0268
     41 H          -4.2091    2.0010   -9.8578 H       1  UNL1        0.0268
     42 H          -3.4453    4.3096   -8.0022 H       1  UNL1        0.0313
     43 H          -2.3598    3.1478   -8.7846 H       1  UNL1        0.0313
     44 H           1.1828    4.6361   -2.6662 H       1  UNL1        0.0867
     45 H           2.5669   -1.4804    1.4406 H       1  UNL1        0.1490
     46 H           4.9153   -0.0093    1.3366 H       1  UNL1        0.0498
     47 H           4.5399   -3.0588    1.3790 H       1  UNL1        0.0283
     48 H           5.0370   -2.0337    2.7298 H       1  UNL1        0.0283
     49 H           6.8951   -3.3129    1.1969 H       1  UNL1        0.0266
     50 H           7.2089   -1.6764    1.7868 H       1  UNL1        0.0266
     51 H           6.7604   -2.5201   -1.0012 H       1  UNL1        0.0266
     52 H           7.3215   -0.9661   -0.3775 H       1  UNL1        0.0266
     53 H           4.5647   -1.8365   -1.0920 H       1  UNL1        0.0283
     54 H           5.2919   -0.2185   -1.0572 H       1  UNL1        0.0283
@<TRIPOS>BOND
     1     1     2    2
     2     2     3    1
     3     3     4    1
     4     4     5   ar
     5     5     6   ar
     6     6     7    1
     7     7     8   am
     8     8     9    2
     9     8    10    1
    10    10    11   ar
    11    11    12   ar
    12    12    13   ar
    13    13    14   ar
    14    14    15   ar
    15    10    15   ar
    16    15    16    1
    17    13    17    1
    18    17    18    1
    19    18    19    1
    20    19    20    1
    21    12    20    1
    22     6    21   ar
    23    21    22   ar
    24     4    22   ar
    25     2    23   am
    26    23    24    1
    27    24    25    1
    28    25    26    1
    29    26    27    1
    30    27    28    1
    31    24    28    1
    32     3    29    1
    33     3    30    1
    34     5    31    1
    35     7    32    1
    36    11    33    1
    37    14    34    1
    38    16    35    1
    39    17    36    1
    40    17    37    1
    41    18    38    1
    42    18    39    1
    43    19    40    1
    44    19    41    1
    45    20    42    1
    46    20    43    1
    47    21    44    1
    48    23    45    1
    49    24    46    1
    50    25    47    1
    51    25    48    1
    52    26    49    1
    53    26    50    1
    54    27    51    1
    55    27    52    1
    56    28    53    1
    57    28    54    1
