@<TRIPOS>MOLECULE
*****
 61 65 0 0 0
SMALL
GASTEIGER

@<TRIPOS>ATOM
      1 O           1.0231   -0.1065   -0.2446 O.2     1  UNL1       -0.2717
      2 C           2.2428   -0.0891   -0.0966 C.2     1  UNL1        0.2548
      3 C           2.9081   -0.0410    1.2953 C.3     1  UNL1        0.1655
      4 O           1.9685   -0.0595    2.3641 O.3     1  UNL1       -0.4828
      5 C           2.5255    0.0006    3.6163 C.ar    1  UNL1        0.1212
      6 C           1.9100   -0.7733    4.6018 C.ar    1  UNL1       -0.0199
      7 C           2.2800   -0.6319    5.9413 C.ar    1  UNL1       -0.0583
      8 C           3.3144    0.2340    6.2909 C.ar    1  UNL1       -0.0615
      9 C           3.9576    0.9794    5.3048 C.ar    1  UNL1       -0.0583
     10 C           3.5591    0.8700    3.9699 C.ar    1  UNL1       -0.0199
     11 N           3.0493    0.0036   -1.2237 N.am    1  UNL1       -0.2827
     12 C           4.4558   -0.0691   -1.3162 C.ar    1  UNL1        0.0335
     13 C           5.1753    0.6842   -2.2557 C.ar    1  UNL1       -0.0398
     14 C           6.6088    0.6157   -2.3387 C.ar    1  UNL1       -0.0494
     15 C           7.3495   -0.1732   -1.4489 C.ar    1  UNL1        0.0174
     16 C           8.8396   -0.3350   -1.3029 C.ar    1  UNL1        0.1393
     17 N           9.2977   -1.4234   -0.7145 N.ar    1  UNL1       -0.2277
     18 C          10.6493   -1.3450   -0.6763 C.ar    1  UNL1        0.0896
     19 C          11.5342   -2.3587   -0.3167 C.ar    1  UNL1       -0.0325
     20 C          12.9070   -2.1090   -0.2069 C.ar    1  UNL1       -0.0383
     21 C          13.4374   -0.8337   -0.4436 C.ar    1  UNL1        0.0356
     22 N          14.8843   -0.7308   -0.3117 N.am    1  UNL1       -0.2826
     23 C          15.6543    0.4283   -0.4557 C.2     1  UNL1        0.2548
     24 O          15.1508    1.5249   -0.6293 O.2     1  UNL1       -0.2717
     25 C          17.2224    0.2709   -0.4036 C.3     1  UNL1        0.1655
     26 O          17.7761    1.5997   -0.4461 O.3     1  UNL1       -0.4828
     27 C          19.1203    1.7871   -0.5957 C.ar    1  UNL1        0.1212
     28 C          19.6429    2.9383    0.0110 C.ar    1  UNL1       -0.0199
     29 C          20.9811    3.3043   -0.1719 C.ar    1  UNL1       -0.0583
     30 C          21.8221    2.4922   -0.9262 C.ar    1  UNL1       -0.0615
     31 C          21.3082    1.3484   -1.5374 C.ar    1  UNL1       -0.0583
     32 C          19.9571    1.0037   -1.3851 C.ar    1  UNL1       -0.0199
     33 C          12.5265    0.2103   -0.8518 C.ar    1  UNL1       -0.0150
     34 C          11.1222   -0.1030   -1.0592 C.ar    1  UNL1        0.0682
     35 N           9.9584    0.4485   -1.6610 N.ar    1  UNL1       -0.3378
     36 C           6.5736   -0.9798   -0.5827 C.ar    1  UNL1       -0.0494
     37 C           5.1753   -0.9500   -0.5313 C.ar    1  UNL1       -0.0398
     38 H           3.5149    0.8707    1.3111 H       1  UNL1        0.0795
     39 H           3.5239   -0.9255    1.4323 H       1  UNL1        0.0795
     40 H           1.1291   -1.4786    4.3292 H       1  UNL1        0.0654
     41 H           1.7442   -1.1776    6.7135 H       1  UNL1        0.0619
     42 H           3.6117    0.3364    7.3313 H       1  UNL1        0.0618
     43 H           4.7458    1.6762    5.5779 H       1  UNL1        0.0619
     44 H           4.0434    1.5077    3.2394 H       1  UNL1        0.0654
     45 H           2.5156    0.1605   -2.0729 H       1  UNL1        0.1549
     46 H           4.6407    1.3801   -2.9033 H       1  UNL1        0.0636
     47 H           7.0973    1.1787   -3.1283 H       1  UNL1        0.0625
     48 H          11.1125   -3.3440   -0.1718 H       1  UNL1        0.0640
     49 H          13.5281   -2.9502    0.0895 H       1  UNL1        0.0637
     50 H          15.3755   -1.5987   -0.1190 H       1  UNL1        0.1549
     51 H          17.5520   -0.3322   -1.2567 H       1  UNL1        0.0795
     52 H          17.5426   -0.1970    0.5345 H       1  UNL1        0.0795
     53 H          19.0025    3.5637    0.6296 H       1  UNL1        0.0654
     54 H          21.3616    4.2266    0.2614 H       1  UNL1        0.0619
     55 H          22.8705    2.7554   -1.0475 H       1  UNL1        0.0618
     56 H          21.9573    0.7355   -2.1581 H       1  UNL1        0.0619
     57 H          19.5822    0.1451   -1.9279 H       1  UNL1        0.0654
     58 H          12.8902    1.2288   -0.9647 H       1  UNL1        0.0657
     59 H           9.9502    1.1217   -2.4159 H       1  UNL1        0.1674
     60 H           7.0635   -1.6894    0.0849 H       1  UNL1        0.0625
     61 H           4.6860   -1.6828    0.1000 H       1  UNL1        0.0636
@<TRIPOS>BOND
     1     1     2    2
     2     2     3    1
     3     3     4    1
     4     4     5    1
     5     5     6   ar
     6     6     7   ar
     7     7     8   ar
     8     8     9   ar
     9     9    10   ar
    10     5    10   ar
    11     2    11   am
    12    11    12    1
    13    12    13   ar
    14    13    14   ar
    15    14    15   ar
    16    15    16    1
    17    16    17   ar
    18    17    18   ar
    19    18    19   ar
    20    19    20   ar
    21    20    21   ar
    22    21    22    1
    23    22    23   am
    24    23    24    2
    25    23    25    1
    26    25    26    1
    27    26    27    1
    28    27    28   ar
    29    28    29   ar
    30    29    30   ar
    31    30    31   ar
    32    31    32   ar
    33    27    32   ar
    34    21    33   ar
    35    33    34   ar
    36    18    34   ar
    37    34    35   ar
    38    16    35   ar
    39    15    36   ar
    40    36    37   ar
    41    12    37   ar
    42     3    38    1
    43     3    39    1
    44     6    40    1
    45     7    41    1
    46     8    42    1
    47     9    43    1
    48    10    44    1
    49    11    45    1
    50    13    46    1
    51    14    47    1
    52    19    48    1
    53    20    49    1
    54    22    50    1
    55    25    51    1
    56    25    52    1
    57    28    53    1
    58    29    54    1
    59    30    55    1
    60    31    56    1
    61    32    57    1
    62    33    58    1
    63    35    59    1
    64    36    60    1
    65    37    61    1
