REMARK  5 active torsions:
REMARK  status: ('A' for Active; 'I' for Inactive)
REMARK    1  A    between atoms: C_2  and  N_4 
REMARK       I    between atoms: N_4  and  C_5 
REMARK    2  A    between atoms: C_5  and  C_7 
REMARK       I    between atoms: C_7  and  N_9 
REMARK    3  A    between atoms: N_9  and  N_10 
REMARK       I    between atoms: N_10  and  C_11 
REMARK    4  A    between atoms: C_11  and  C_13 
REMARK    5  A    between atoms: C_15  and  C_16 
ROOT
ATOM      1  N   UNL d   1       6.939   3.310   3.414  0.00  0.00    -0.262 N 
ATOM      2  C   UNL d   1       8.321   3.494   3.527  0.00  0.00     0.291 C 
ATOM      3  O   UNL d   1       9.118   2.889   2.800  0.00  0.00    -0.264 OA
ATOM      4  H   UNL d   1       6.271   3.872   3.937  0.00  0.00     0.190 HD
ENDROOT
BRANCH   1   5
ATOM      5  N   UNL d   1       6.394   2.395   2.463  0.00  0.00    -0.259 N 
ATOM      6  C   UNL d   1       5.013   2.241   2.334  0.00  0.00     0.327 C 
ATOM      7  O   UNL d   1       4.178   2.877   2.972  0.00  0.00    -0.261 OA
ATOM      8  H   UNL d   1       7.047   1.835   1.908  0.00  0.00     0.190 HD
BRANCH   6   9
ATOM      9  C   UNL d   1       4.566   1.168   1.291  0.00  0.00     0.311 C 
ATOM     10  N   UNL d   1       3.192   1.027   1.084  0.00  0.00    -0.349 N 
ATOM     11  H   UNL d   1       2.569   1.594   1.654  0.00  0.00     0.163 HD
ATOM     12  O   UNL d   1       5.429   0.520   0.712  0.00  0.00    -0.262 OA
BRANCH  10  13
ATOM     13  C   UNL d   1       2.625   0.075   0.115  0.00  0.00     0.076 C 
ATOM     14  C   UNL d   1       1.090   0.045   0.138  0.00  0.00     0.032 C 
ATOM     15  C   UNL d   1       3.075   0.399  -1.312  0.00  0.00     0.032 C 
ENDBRANCH  10  13
ENDBRANCH   6   9
ENDBRANCH   1   5
BRANCH   2  16
ATOM     16  C   UNL d   1       8.747   4.412   4.603  0.00  0.00     0.156 A 
ATOM     17  C   UNL d   1       8.147   4.553   5.881  0.00  0.00     0.080 A 
ATOM     18  C   UNL d   1       8.934   5.442   6.569  0.00  0.00     0.114 A 
ATOM     19  O   UNL d   1       9.943   5.855   5.751  0.00  0.00    -0.212 OA
ATOM     20  N   UNL d   1       9.839   5.199   4.522  0.00  0.00    -0.122 NA
BRANCH  18  21
ATOM     21  C   UNL d   1       8.946   5.880   7.955  0.00  0.00    -0.000 A 
ATOM     22  C   UNL d   1       8.920   7.231   8.321  0.00  0.00     0.014 A 
ATOM     23  C   UNL d   1       8.973   7.596   9.673  0.00  0.00     0.001 A 
ATOM     24  C   UNL d   1       8.981   6.619  10.669  0.00  0.00     0.000 A 
ATOM     25  C   UNL d   1       8.962   5.273  10.317  0.00  0.00     0.001 A 
ATOM     26  C   UNL d   1       8.948   4.909   8.970  0.00  0.00     0.014 A 
ENDBRANCH  18  21
ENDBRANCH   2  16
TORSDOF 5
