@<TRIPOS>MOLECULE
*****
 59 61 0 0 0
SMALL
GASTEIGER

@<TRIPOS>ATOM
      1 C           8.0868   -0.3222    6.1954 C.3     1  UNL1       -0.0494
      2 C           8.1708   -1.8198    6.2080 C.3     1  UNL1        0.0119
      3 N           7.7120   -2.4570    4.9590 N.pl3   1  UNL1       -0.2865
      4 C           7.7951   -3.7251    4.5534 C.2     1  UNL1        0.3012
      5 N           8.1915   -4.7181    5.3428 N.2     1  UNL1       -0.2226
      6 C           8.5907   -4.5002    6.7238 C.3     1  UNL1        0.1493
      7 C           8.9731   -5.6881    7.5535 C.3     1  UNL1        0.0318
      8 C           9.3344   -5.1987    8.9483 C.ar    1  UNL1       -0.0377
      9 C           8.8181   -5.8723   10.0506 C.ar    1  UNL1       -0.0547
     10 C           9.0880   -5.4182   11.3429 C.ar    1  UNL1       -0.0160
     11 C           9.9396   -4.3270   11.5700 C.ar    1  UNL1        0.1615
     12 O          10.1928   -4.0956   12.8995 O.3     1  UNL1       -0.4915
     13 C          11.1829   -3.1225   13.2224 C.3     1  UNL1        0.0790
     14 C          10.4457   -3.6174   10.4719 C.ar    1  UNL1        0.1617
     15 O          11.1943   -2.5013   10.7147 O.3     1  UNL1       -0.4914
     16 C          11.6914   -1.7326    9.6357 C.3     1  UNL1        0.0790
     17 C          10.1503   -4.0690    9.1788 C.ar    1  UNL1       -0.0129
     18 S           7.4153   -4.2589    2.9234 S.3     1  UNL1       -0.0271
     19 C           6.8860   -2.8709    1.8646 C.3     1  UNL1        0.1018
     20 C           7.4601   -1.5450    2.2868 C.3     1  UNL1        0.0457
     21 C           8.0566   -0.9042    1.1019 C.2     1  UNL1        0.2278
     22 O           8.5918    0.1816    1.1738 O.2     1  UNL1       -0.2748
     23 N           7.9251   -1.7684    0.0592 N.am    1  UNL1       -0.2067
     24 C           8.5077   -1.5032   -1.1850 C.ar    1  UNL1        0.0790
     25 C           7.7061   -1.4817   -2.3253 C.ar    1  UNL1       -0.0370
     26 C           8.2885   -1.2566   -3.5711 C.ar    1  UNL1       -0.0598
     27 C           9.6577   -0.9991   -3.6734 C.ar    1  UNL1       -0.0589
     28 C          10.4583   -0.9936   -2.5315 C.ar    1  UNL1       -0.0246
     29 C           9.8786   -1.2369   -1.2928 C.ar    1  UNL1        0.1451
     30 F          10.6632   -1.2788   -0.2037 F       1  UNL1       -0.2035
     31 C           7.3406   -2.9705    0.4111 C.2     1  UNL1        0.2403
     32 O           7.1954   -3.9572   -0.2967 O.2     1  UNL1       -0.2736
     33 H           8.3819    0.0320    7.1906 H       1  UNL1        0.0245
     34 H           7.0678    0.0062    5.9910 H       1  UNL1        0.0245
     35 H           8.7719    0.1048    5.4601 H       1  UNL1        0.0245
     36 H           7.5263   -2.1596    7.0159 H       1  UNL1        0.0460
     37 H           9.2250   -2.0517    6.3688 H       1  UNL1        0.0460
     38 H           7.2356   -1.7977    4.3798 H       1  UNL1        0.1520
     39 H           8.1812   -5.6441    4.9253 H       1  UNL1        0.4474
     40 H           7.7560   -4.0218    7.2409 H       1  UNL1        0.1029
     41 H           9.4750   -3.8714    6.6639 H       1  UNL1        0.1029
     42 H           9.8163   -6.2163    7.1055 H       1  UNL1        0.0375
     43 H           8.1079   -6.3571    7.5931 H       1  UNL1        0.0375
     44 H           8.2072   -6.7618    9.9158 H       1  UNL1        0.0621
     45 H           8.6346   -5.9332   12.1876 H       1  UNL1        0.0655
     46 H          11.3565   -3.1399   14.3011 H       1  UNL1        0.0660
     47 H          10.8186   -2.1198   12.9766 H       1  UNL1        0.0660
     48 H          12.1442   -3.3416   12.7406 H       1  UNL1        0.0660
     49 H          12.2570   -0.8955   10.0553 H       1  UNL1        0.0660
     50 H          10.8677   -1.3196    9.0454 H       1  UNL1        0.0660
     51 H          12.3733   -2.3241    9.0184 H       1  UNL1        0.0660
     52 H          10.5787   -3.5299    8.3429 H       1  UNL1        0.0658
     53 H           5.7884   -2.8608    1.8528 H       1  UNL1        0.0518
     54 H           8.3363   -1.6527    2.9259 H       1  UNL1        0.0374
     55 H           6.6846   -0.9041    2.7166 H       1  UNL1        0.0374
     56 H           6.6283   -1.5968   -2.2489 H       1  UNL1        0.0637
     57 H           7.6726   -1.2883   -4.4667 H       1  UNL1        0.0618
     58 H          10.0983   -0.8009   -4.6476 H       1  UNL1        0.0618
     59 H          11.5277   -0.8218   -2.6051 H       1  UNL1        0.0647
@<TRIPOS>UNITY_ATOM_ATTR
5 1
charge 1
@<TRIPOS>BOND
     1     1     2    1
     2     2     3    1
     3     3     4    1
     4     4     5    2
     5     5     6    1
     6     6     7    1
     7     7     8    1
     8     8     9   ar
     9     9    10   ar
    10    10    11   ar
    11    11    12    1
    12    12    13    1
    13    11    14   ar
    14    14    15    1
    15    15    16    1
    16    14    17   ar
    17     8    17   ar
    18     4    18    1
    19    19    20    1
    20    20    21    1
    21    21    22    2
    22    21    23   am
    23    23    24    1
    24    24    25   ar
    25    25    26   ar
    26    26    27   ar
    27    27    28   ar
    28    28    29   ar
    29    24    29   ar
    30    29    30    1
    31    23    31   am
    32    19    31    1
    33    31    32    2
    34    19    18    1
    35     1    33    1
    36     1    34    1
    37     1    35    1
    38     2    36    1
    39     2    37    1
    40     3    38    1
    41     5    39    1
    42     6    40    1
    43     6    41    1
    44     7    42    1
    45     7    43    1
    46     9    44    1
    47    10    45    1
    48    13    46    1
    49    13    47    1
    50    13    48    1
    51    16    49    1
    52    16    50    1
    53    16    51    1
    54    17    52    1
    55    19    53    1
    56    20    54    1
    57    20    55    1
    58    25    56    1
    59    26    57    1
    60    27    58    1
    61    28    59    1
