REMARK  5 active torsions:
REMARK  status: ('A' for Active; 'I' for Inactive)
REMARK       I    between atoms: C_2  and  N_4 
REMARK    1  A    between atoms: N_4  and  C_5 
REMARK    2  A    between atoms: C_11  and  N_12 
REMARK    3  A    between atoms: N_12  and  C_13 
REMARK    4  A    between atoms: C_13  and  C_14 
REMARK       I    between atoms: C_14  and  N_16 
REMARK       I    between atoms: N_16  and  C_17 
REMARK       I    between atoms: C_17  and  N_19 
REMARK    5  A    between atoms: N_19  and  C_20 
ROOT
ATOM      1  N   UNL d   1       4.622   3.445  -0.302  0.00  0.00    -0.379 N 
ATOM      2  H   UNL d   1       5.174   4.281  -0.093  0.00  0.00     0.160 HD
ENDROOT
BRANCH   1   3
ATOM      3  C   UNL d   1       5.292   2.247  -0.547  0.00  0.00     0.056 A 
ATOM      4  C   UNL d   1       6.717   2.247  -0.514  0.00  0.00     0.038 A 
ATOM      5  C   UNL d   1       7.484   1.079  -0.739  0.00  0.00    -0.060 A 
ATOM      6  C   UNL d   1       6.822  -0.115  -1.005  0.00  0.00     0.009 A 
ATOM      7  C   UNL d   1       8.989   1.081  -0.685  0.00  0.00     0.048 C 
ATOM      8  C   UNL d   1       5.434  -0.153  -1.014  0.00  0.00     0.032 A 
ATOM      9  C   UNL d   1       4.666   0.995  -0.779  0.00  0.00     0.061 A 
BRANCH   9  10
ATOM     10  N   UNL d   1       3.260   0.833  -0.823  0.00  0.00    -0.326 N 
ATOM     11  C   UNL d   1       2.595  -0.145  -0.105  0.00  0.00     0.218 C 
ATOM     12  C   UNL d   1       1.093  -0.005  -0.139  0.00  0.00     0.117 C 
ATOM     13  O   UNL d   1       3.125  -1.030   0.560  0.00  0.00    -0.274 OA
ATOM     14  H   UNL d   1       2.726   1.578  -1.226  0.00  0.00     0.169 HD
ENDBRANCH   9  10
ENDBRANCH   1   3
BRANCH   1  15
ATOM     15  C   UNL d   1       3.168   3.642  -0.255  0.00  0.00     0.223 C 
BRANCH  15  16
ATOM     16  C   UNL d   1       2.765   5.085   0.065  0.00  0.00     0.243 C 
ATOM     17  O   UNL d   1       3.648   5.922   0.262  0.00  0.00    -0.271 OA
ATOM     18  N   UNL d   1       1.393   5.351   0.073  0.00  0.00    -0.278 N 
ATOM     19  C   UNL d   1       0.915   6.622   0.328  0.00  0.00     0.323 C 
ATOM     20  H   UNL d   1       0.732   4.608  -0.102  0.00  0.00     0.173 HD
ATOM     21  O   UNL d   1       1.631   7.583   0.611  0.00  0.00    -0.247 OA
ATOM     22  N   UNL d   1      -0.451   6.781   0.232  0.00  0.00    -0.338 N 
ATOM     23  H   UNL d   1      -1.065   5.979   0.165  0.00  0.00     0.164 HD
BRANCH  22  24
ATOM     24  C   UNL d   1      -1.108   8.032   0.558  0.00  0.00     0.086 A 
ATOM     25  C   UNL d   1      -0.826   9.436   0.074  0.00  0.00     0.027 A 
ATOM     26  C   UNL d   1      -1.901   8.637  -0.582  0.00  0.00     0.027 A 
ENDBRANCH  22  24
ENDBRANCH  15  16
ENDBRANCH   1  15
TORSDOF 5
