@<TRIPOS>MOLECULE
*****
 41 41 0 0 0
SMALL
GASTEIGER

@<TRIPOS>ATOM
      1 C           1.0230    0.0874    0.0525 C.3     1  UNL1       -0.0495
      2 C           2.5467    0.0848    0.0875 C.3     1  UNL1        0.0103
      3 N           3.1125   -0.0202    1.4309 N.am    1  UNL1       -0.2985
      4 C           4.4764   -0.0377    1.6334 C.2     1  UNL1        0.3159
      5 O           5.2958    0.0268    0.7127 O.2     1  UNL1       -0.2513
      6 N           4.8684   -0.1270    2.9557 N.am    1  UNL1       -0.2182
      7 N           6.2586   -0.2113    3.2672 N.am    1  UNL1       -0.2332
      8 C           6.6555   -0.3818    4.5814 C.2     1  UNL1        0.2294
      9 O           5.8431   -0.3789    5.5084 O.2     1  UNL1       -0.2743
     10 C           8.1591   -0.5792    4.7983 C.3     1  UNL1        0.0295
     11 C           8.4821   -0.6800    6.3027 C.3     1  UNL1       -0.0159
     12 C           9.9398   -0.4720    6.6525 C.ar    1  UNL1       -0.0053
     13 C          10.6819   -1.6606    6.8547 C.ar    1  UNL1       -0.0551
     14 C          12.0035   -1.6368    7.2906 C.ar    1  UNL1       -0.0613
     15 C          12.6413   -0.4171    7.4567 C.ar    1  UNL1       -0.0583
     16 C          11.9376    0.7727    7.2303 C.ar    1  UNL1       -0.0197
     17 C          10.5822    0.7730    6.8399 C.ar    1  UNL1        0.1236
     18 O          10.0720    2.0508    6.6985 O.3     1  UNL1       -0.4920
     19 C           8.7042    2.1873    6.3484 C.3     1  UNL1        0.0868
     20 C           8.2417    3.5892    6.0518 C.3     1  UNL1       -0.0307
     21 H           0.6622    0.1711   -0.9807 H       1  UNL1        0.0245
     22 H           0.6107    0.9304    0.6162 H       1  UNL1        0.0245
     23 H           0.6109   -0.8355    0.4730 H       1  UNL1        0.0245
     24 H           2.9225    1.0073   -0.3697 H       1  UNL1        0.0460
     25 H           2.9232   -0.7530   -0.5106 H       1  UNL1        0.0460
     26 H           2.4868   -0.0866    2.2204 H       1  UNL1        0.1503
     27 H           4.2255   -0.2147    3.7378 H       1  UNL1        0.1744
     28 H           6.9003   -0.1432    2.4783 H       1  UNL1        0.1728
     29 H           8.7052    0.2270    4.2949 H       1  UNL1        0.0362
     30 H           8.5015   -1.4894    4.2999 H       1  UNL1        0.0362
     31 H           8.1552   -1.6649    6.6618 H       1  UNL1        0.0319
     32 H           7.8721   -0.0324    6.9339 H       1  UNL1        0.0319
     33 H          10.2120   -2.6293    6.6881 H       1  UNL1        0.0621
     34 H          12.5230   -2.5673    7.5069 H       1  UNL1        0.0618
     35 H          13.6848   -0.3918    7.7618 H       1  UNL1        0.0619
     36 H          12.4569    1.7178    7.3799 H       1  UNL1        0.0654
     37 H           8.0710    1.8226    7.1577 H       1  UNL1        0.0694
     38 H           8.5324    1.6909    5.4078 H       1  UNL1        0.0694
     39 H           8.2941    4.2061    6.9476 H       1  UNL1        0.0262
     40 H           7.1975    3.5374    5.7135 H       1  UNL1        0.0262
     41 H           8.8407    4.0371    5.2565 H       1  UNL1        0.0262
@<TRIPOS>BOND
     1     1     2    1
     2     2     3    1
     3     3     4   am
     4     4     5    2
     5     4     6   am
     6     6     7    1
     7     7     8   am
     8     8     9    2
     9     8    10    1
    10    10    11    1
    11    11    12    1
    12    12    13   ar
    13    13    14   ar
    14    14    15   ar
    15    15    16   ar
    16    16    17   ar
    17    12    17   ar
    18    17    18    1
    19    18    19    1
    20    19    20    1
    21     1    21    1
    22     1    22    1
    23     1    23    1
    24     2    24    1
    25     2    25    1
    26     3    26    1
    27     6    27    1
    28     7    28    1
    29    10    29    1
    30    10    30    1
    31    11    31    1
    32    11    32    1
    33    13    33    1
    34    14    34    1
    35    15    35    1
    36    16    36    1
    37    19    37    1
    38    19    38    1
    39    20    39    1
    40    20    40    1
    41    20    41    1
