@<TRIPOS>MOLECULE
*****
 40 42 0 0 0
SMALL
GASTEIGER

@<TRIPOS>ATOM
      1 C           4.7103   -7.0092   -2.4998 C.3     1  UNL1        0.0134
      2 C           4.4762   -5.5282   -2.6026 C.2     1  UNL1        0.2234
      3 O           4.1561   -4.9879   -3.6632 O.2     1  UNL1       -0.2748
      4 N           4.6316   -4.8709   -1.3889 N.am    1  UNL1       -0.2502
      5 N           4.5155   -3.4774   -1.3475 N.3     1  UNL1       -0.2256
      6 C           5.1064   -2.7582   -0.1993 C.3     1  UNL1        0.1126
      7 C           4.3943   -1.3782   -0.0437 C.2     1  UNL1        0.1879
      8 O           3.8163   -1.1499    1.0285 O.2     1  UNL1       -0.2899
      9 C           4.3260   -0.3526   -1.1156 C.ar    1  UNL1        0.0444
     10 C           3.9072    0.9541   -0.8830 C.ar    1  UNL1        0.0133
     11 N           3.8193    1.6196   -2.0773 N.ar    1  UNL1       -0.3600
     12 C           4.1462    0.7735   -3.1098 C.ar    1  UNL1        0.0472
     13 C           4.1105    0.9766   -4.5007 C.ar    1  UNL1       -0.0378
     14 C           4.4524   -0.0958   -5.3323 C.ar    1  UNL1       -0.0598
     15 C           4.8788   -1.2968   -4.7959 C.ar    1  UNL1       -0.0611
     16 C           4.9769   -1.4464   -3.4170 C.ar    1  UNL1       -0.0519
     17 C           4.5446   -0.4387   -2.5342 C.ar    1  UNL1        0.0102
     18 C           6.6413   -2.7130   -0.2273 C.ar    1  UNL1       -0.0215
     19 C           7.3802   -1.5246   -0.1313 C.ar    1  UNL1       -0.0566
     20 C           8.7718   -1.5301   -0.2980 C.ar    1  UNL1       -0.0614
     21 C           9.4637   -2.7271   -0.4652 C.ar    1  UNL1       -0.0617
     22 C           8.7653   -3.9230   -0.4815 C.ar    1  UNL1       -0.0614
     23 C           7.3778   -3.9106   -0.3501 C.ar    1  UNL1       -0.0566
     24 H           4.4675   -7.4832   -3.4553 H       1  UNL1        0.0323
     25 H           4.0617   -7.4312   -1.7273 H       1  UNL1        0.0323
     26 H           5.7575   -7.2140   -2.2602 H       1  UNL1        0.0323
     27 H           4.9571   -5.3844   -0.5760 H       1  UNL1        0.1690
     28 H           3.5523   -3.1981   -1.5460 H       1  UNL1        0.1454
     29 H           4.8324   -3.3139    0.7080 H       1  UNL1        0.0609
     30 H           3.6265    1.4510    0.0387 H       1  UNL1        0.0814
     31 H           3.5005    2.5732   -2.1930 H       1  UNL1        0.1654
     32 H           3.7957    1.9202   -4.9343 H       1  UNL1        0.0638
     33 H           4.3959    0.0033   -6.4125 H       1  UNL1        0.0618
     34 H           5.1358   -2.1447   -5.4257 H       1  UNL1        0.0618
     35 H           5.3726   -2.3889   -3.0694 H       1  UNL1        0.0624
     36 H           6.9035   -0.5666    0.0614 H       1  UNL1        0.0621
     37 H           9.3165   -0.5896   -0.3174 H       1  UNL1        0.0618
     38 H          10.5437   -2.7290   -0.5767 H       1  UNL1        0.0618
     39 H           9.2851   -4.8673   -0.6209 H       1  UNL1        0.0618
     40 H           6.8881   -4.8748   -0.3644 H       1  UNL1        0.0621
@<TRIPOS>BOND
     1     1     2    1
     2     2     3    2
     3     2     4   am
     4     4     5    1
     5     7     8    2
     6     7     9    1
     7     9    10   ar
     8    10    11   ar
     9    11    12   ar
    10    12    13   ar
    11    13    14   ar
    12    14    15   ar
    13    15    16   ar
    14    16    17   ar
    15     9    17   ar
    16    12    17   ar
    17     6    18    1
    18    18    19   ar
    19    19    20   ar
    20    20    21   ar
    21    21    22   ar
    22    22    23   ar
    23    18    23   ar
    24     6     7    1
    25     6     5    1
    26     1    24    1
    27     1    25    1
    28     1    26    1
    29     4    27    1
    30     5    28    1
    31     6    29    1
    32    10    30    1
    33    11    31    1
    34    13    32    1
    35    14    33    1
    36    15    34    1
    37    16    35    1
    38    19    36    1
    39    20    37    1
    40    21    38    1
    41    22    39    1
    42    23    40    1
