REMARK  7 active torsions:
REMARK  status: ('A' for Active; 'I' for Inactive)
REMARK    1  A    between atoms: C_5  and  C_6 
REMARK       I    between atoms: C_6  and  N_8 
REMARK    2  A    between atoms: N_8  and  N_9 
REMARK       I    between atoms: N_9  and  C_10 
REMARK    3  A    between atoms: C_10  and  C_12 
REMARK    4  A    between atoms: C_12  and  C_13 
REMARK    5  A    between atoms: C_13  and  C_14 
REMARK    6  A    between atoms: C_18  and  N_19 
REMARK       I    between atoms: N_19  and  C_20 
REMARK    7  A    between atoms: C_20  and  C_22 
ROOT
ATOM      1  C   UNL d   1       2.434  -0.361  -0.003  0.00  0.00     0.050 C 
ATOM      2  C   UNL d   1       0.969  -0.089   0.005  0.00  0.00    -0.035 A 
ATOM      3  C   UNL d   1       0.170  -1.240   0.007  0.00  0.00     0.010 A 
ATOM      4  C   UNL d   1      -1.215  -1.156  -0.001  0.00  0.00     0.018 A 
ATOM      5  C   UNL d   1      -1.849   0.093  -0.010  0.00  0.00     0.035 A 
ATOM      6  C   UNL d   1      -1.036   1.262   0.000  0.00  0.00     0.047 A 
ATOM      7  C   UNL d   1       0.392   1.196   0.002  0.00  0.00     0.042 A 
ENDROOT
BRANCH   5   8
ATOM      8  C   UNL d   1      -3.368   0.075  -0.040  0.00  0.00     0.270 C 
ATOM      9  O   UNL d   1      -3.977  -0.995  -0.053  0.00  0.00    -0.266 OA
ATOM     10  N   UNL d   1      -4.041   1.286  -0.056  0.00  0.00    -0.263 N 
ATOM     11  H   UNL d   1      -3.596   2.197  -0.052  0.00  0.00     0.190 HD
BRANCH  10  12
ATOM     12  N   UNL d   1      -5.461   1.318  -0.100  0.00  0.00    -0.267 N 
ATOM     13  C   UNL d   1      -6.075   2.561  -0.119  0.00  0.00     0.236 C 
ATOM     14  O   UNL d   1      -5.417   3.602  -0.099  0.00  0.00    -0.272 OA
ATOM     15  H   UNL d   1      -5.951   0.424  -0.102  0.00  0.00     0.190 HD
BRANCH  13  16
ATOM     16  C   UNL d   1      -7.600   2.541  -0.147  0.00  0.00     0.105 C 
BRANCH  16  17
ATOM     17  C   UNL d   1      -8.197   3.961  -0.147  0.00  0.00     0.013 C 
BRANCH  17  18
ATOM     18  C   UNL d   1      -9.738   3.993  -0.161  0.00  0.00    -0.022 C 
ATOM     19  C   UNL d   1     -10.322   3.290   1.063  0.00  0.00     0.009 C 
ATOM     20  C   UNL d   1     -10.242   5.441  -0.196  0.00  0.00     0.009 C 
ENDBRANCH  17  18
ENDBRANCH  16  17
ENDBRANCH  13  16
ENDBRANCH  10  12
ENDBRANCH   5   8
BRANCH   7  21
ATOM     21  N   UNL d   1       1.148   2.432  -0.005  0.00  0.00    -0.321 N 
ATOM     22  C   UNL d   1       2.537   2.633  -0.062  0.00  0.00     0.279 C 
ATOM     23  O   UNL d   1       3.432   1.792  -0.098  0.00  0.00    -0.265 OA
ATOM     24  H   UNL d   1       0.595   3.281  -0.017  0.00  0.00     0.169 HD
BRANCH  22  25
ATOM     25  C   UNL d   1       3.033   3.972  -0.051  0.00  0.00     0.142 A 
ATOM     26  C   UNL d   1       2.808   5.038   0.787  0.00  0.00     0.045 A 
ATOM     27  C   UNL d   1       3.814   5.989   0.485  0.00  0.00     0.027 A 
ATOM     28  C   UNL d   1       4.610   5.434  -0.489  0.00  0.00     0.143 A 
ATOM     29  O   UNL d   1       4.141   4.213  -0.822  0.00  0.00    -0.317 OA
ENDBRANCH  22  25
ENDBRANCH   7  21
TORSDOF 7
