REMARK  17 active torsions:
REMARK  status: ('A' for Active; 'I' for Inactive)
REMARK    1  A    between atoms: C_2  and  C_3 
REMARK       I    between atoms: C_2  and  N_18 
REMARK    2  A    between atoms: C_3  and  C_4 
REMARK    3  A    between atoms: C_4  and  C_5 
REMARK    4  A    between atoms: C_5  and  C_6 
REMARK    5  A    between atoms: C_6  and  O_8 
REMARK    6  A    between atoms: O_8  and  C_9 
REMARK    7  A    between atoms: C_9  and  C_10 
REMARK    8  A    between atoms: C_10  and  C_11 
REMARK    9  A    between atoms: C_11  and  C_12 
REMARK   10  A    between atoms: N_18  and  C_19 
REMARK   11  A    between atoms: C_19  and  N_21 
REMARK   12  A    between atoms: N_21  and  C_22 
REMARK   13  A    between atoms: C_25  and  O_26 
REMARK   14  A    between atoms: O_26  and  C_27 
REMARK   15  A    between atoms: C_27  and  C_28 
REMARK   16  A    between atoms: C_28  and  O_29 
REMARK   17  A    between atoms: O_29  and  C_30 
ROOT
ATOM      1  C   UNL d   1       4.579  -0.656   0.915  0.00  0.00     0.178 C 
ATOM      2  S   UNL d   1       5.537  -0.155  -0.393  0.00  0.00    -0.040 SA
ENDROOT
BRANCH   1   3
ATOM      3  N   UNL d   1       3.167  -0.544   0.961  0.00  0.00    -0.304 N 
ATOM      4  C   UNL d   1       2.244   0.041   0.072  0.00  0.00     0.223 C 
ATOM      5  O   UNL d   1       1.034  -0.084   0.259  0.00  0.00    -0.273 OA
ATOM      6  H   UNL d   1       2.675  -1.007   1.717  0.00  0.00     0.171 HD
BRANCH   4   7
ATOM      7  C   UNL d   1       2.818   0.819  -1.100  0.00  0.00     0.103 C 
BRANCH   7   8
ATOM      8  C   UNL d   1       1.869   1.466  -2.076  0.00  0.00     0.019 C 
BRANCH   8   9
ATOM      9  C   UNL d   1       2.643   2.192  -3.198  0.00  0.00     0.111 C 
BRANCH   9  10
ATOM     10  C   UNL d   1       1.655   2.814  -4.151  0.00  0.00     0.258 C 
ATOM     11  O   UNL d   1       0.430   2.727  -4.021  0.00  0.00    -0.265 OA
BRANCH  10  12
ATOM     12  O   UNL d   1       2.264   3.482  -5.168  0.00  0.00    -0.321 OA
BRANCH  12  13
ATOM     13  C   UNL d   1       1.322   4.077  -6.080  0.00  0.00     0.179 C 
BRANCH  13  14
ATOM     14  C   UNL d   1       2.060   4.798  -7.200  0.00  0.00     0.031 C 
BRANCH  14  15
ATOM     15  C   UNL d   1       1.075   5.421  -8.196  0.00  0.00     0.041 C 
BRANCH  15  16
ATOM     16  C   UNL d   1       1.780   6.185  -9.289  0.00  0.00    -0.058 A 
ATOM     17  C   UNL d   1       2.685   5.556 -10.156  0.00  0.00     0.007 A 
ATOM     18  C   UNL d   1       3.401   6.305 -11.091  0.00  0.00     0.001 A 
ATOM     19  C   UNL d   1       3.153   7.669 -11.231  0.00  0.00     0.000 A 
ATOM     20  C   UNL d   1       2.226   8.296 -10.402  0.00  0.00     0.001 A 
ATOM     21  C   UNL d   1       1.551   7.560  -9.430  0.00  0.00     0.007 A 
ENDBRANCH  15  16
ENDBRANCH  14  15
ENDBRANCH  13  14
ENDBRANCH  12  13
ENDBRANCH  10  12
ENDBRANCH   9  10
ENDBRANCH   8   9
ENDBRANCH   7   8
ENDBRANCH   4   7
ENDBRANCH   1   3
BRANCH   1  22
ATOM     22  N   UNL d   1       5.146  -1.255   2.061  0.00  0.00    -0.333 N 
ATOM     23  H   UNL d   1       4.600  -1.920   2.599  0.00  0.00     0.168 HD
BRANCH  22  24
ATOM     24  C   UNL d   1       6.566  -1.280   2.262  0.00  0.00     0.034 A 
ATOM     25  C   UNL d   1       7.273  -2.445   2.557  0.00  0.00     0.032 A 
ATOM     26  C   UNL d   1       8.686  -2.396   2.657  0.00  0.00     0.039 A 
ATOM     27  C   UNL d   1       9.400  -1.215   2.393  0.00  0.00     0.069 A 
ATOM     28  C   UNL d   1       8.684  -0.063   2.114  0.00  0.00     0.039 A 
ATOM     29  C   UNL d   1       7.293  -0.093   2.103  0.00  0.00     0.032 A 
BRANCH  27  30
ATOM     30  O   UNL d   1      10.772  -1.281   2.426  0.00  0.00    -0.349 OA
BRANCH  30  31
ATOM     31  C   UNL d   1      11.476  -0.077   2.065  0.00  0.00     0.202 C 
BRANCH  31  32
ATOM     32  C   UNL d   1      12.988  -0.313   2.117  0.00  0.00     0.202 C 
BRANCH  32  33
ATOM     33  O   UNL d   1      13.668   0.926   1.876  0.00  0.00    -0.349 OA
BRANCH  33  34
ATOM     34  C   UNL d   1      15.034   0.855   1.783  0.00  0.00     0.068 A 
ATOM     35  C   UNL d   1      15.746   1.953   2.275  0.00  0.00     0.037 A 
ATOM     36  C   UNL d   1      17.132   2.036   2.105  0.00  0.00     0.003 A 
ATOM     37  C   UNL d   1      17.822   0.992   1.493  0.00  0.00     0.000 A 
ATOM     38  C   UNL d   1      17.119  -0.110   1.010  0.00  0.00     0.003 A 
ATOM     39  C   UNL d   1      15.727  -0.172   1.142  0.00  0.00     0.037 A 
ENDBRANCH  33  34
ENDBRANCH  32  33
ENDBRANCH  31  32
ENDBRANCH  30  31
ENDBRANCH  27  30
ENDBRANCH  22  24
ENDBRANCH   1  22
TORSDOF 17
