REMARK  9 active torsions:
REMARK  status: ('A' for Active; 'I' for Inactive)
REMARK    1  A    between atoms: C_2  and  C_3 
REMARK    2  A    between atoms: C_3  and  C_4 
REMARK    3  A    between atoms: C_4  and  C_5 
REMARK    4  A    between atoms: C_5  and  C_7 
REMARK    5  A    between atoms: C_7  and  C_8 
REMARK    6  A    between atoms: C_8  and  C_9 
REMARK       I    between atoms: C_9  and  N_11 
REMARK    7  A    between atoms: N_11  and  C_12 
REMARK    8  A    between atoms: N_20  and  N_21 
REMARK       I    between atoms: N_21  and  C_22 
REMARK       I    between atoms: C_22  and  N_24 
REMARK    9  A    between atoms: N_24  and  N_25 
ROOT
ATOM      1  C   UNL d   1       0.470  -2.146  -0.379  0.00  0.00     0.132 C 
ATOM      2  O   UNL d   1      -0.052  -1.047  -0.161  0.00  0.00    -0.298 OA
ENDROOT
BRANCH   1   3
ATOM      3  C   UNL d   1       1.980  -2.387  -0.424  0.00  0.00     0.134 C 
BRANCH   3   4
ATOM      4  C   UNL d   1       3.053  -1.221  -0.224  0.00  0.00     0.039 C 
ATOM      5  N   UNL d   1       4.326  -1.556  -0.277  0.00  0.00    -0.179 NA
BRANCH   4   6
ATOM      6  C   UNL d   1       2.713   0.264   0.030  0.00  0.00     0.052 C 
ATOM      7  C   UNL d   1       1.300   0.694   0.103  0.00  0.00     0.011 C 
ENDBRANCH   4   6
BRANCH   5   8
ATOM      8  N   UNL d   1       5.309  -0.564  -0.099  0.00  0.00    -0.228 N 
ATOM      9  C   UNL d   1       6.672  -0.862  -0.145  0.00  0.00     0.350 C 
ATOM     10  O   UNL d   1       7.149  -1.976  -0.347  0.00  0.00    -0.244 OA
ATOM     11  N   UNL d   1       7.497   0.253   0.107  0.00  0.00    -0.274 N 
ATOM     12  H   UNL d   1       7.128   1.198   0.135  0.00  0.00     0.185 HD
ATOM     13  H   UNL d   1       5.037   0.396   0.051  0.00  0.00     0.194 HD
BRANCH  11  14
ATOM     14  N   UNL d   1       8.915   0.115  -0.023  0.00  0.00    -0.246 NA
ATOM     15  H   UNL d   1       9.100  -0.886  -0.193  0.00  0.00     0.143 HD
ATOM     16  H   UNL d   1       9.353   0.298   0.884  0.00  0.00     0.143 HD
ENDBRANCH  11  14
ENDBRANCH   5   8
ENDBRANCH   3   4
ENDBRANCH   1   3
BRANCH   1  17
ATOM     17  C   UNL d   1      -0.612  -3.142  -0.563  0.00  0.00     0.088 C 
BRANCH  17  18
ATOM     18  C   UNL d   1      -1.970  -2.306  -0.445  0.00  0.00     0.110 C 
BRANCH  18  19
ATOM     19  C   UNL d   1      -3.132  -3.174  -0.718  0.00  0.00     0.222 C 
ATOM     20  O   UNL d   1      -2.938  -4.324  -1.109  0.00  0.00    -0.273 OA
ATOM     21  N   UNL d   1      -4.372  -2.596  -0.481  0.00  0.00    -0.326 N 
ATOM     22  H   UNL d   1      -4.477  -1.589  -0.518  0.00  0.00     0.169 HD
BRANCH  21  23
ATOM     23  C   UNL d   1      -5.526  -3.406  -0.572  0.00  0.00     0.046 A 
ATOM     24  C   UNL d   1      -5.549  -4.642   0.114  0.00  0.00    -0.035 A 
ATOM     25  C   UNL d   1      -4.472  -5.089   1.074  0.00  0.00     0.050 C 
ATOM     26  C   UNL d   1      -6.631  -5.507  -0.073  0.00  0.00     0.009 A 
ATOM     27  C   UNL d   1      -7.690  -5.150  -0.898  0.00  0.00     0.001 A 
ATOM     28  C   UNL d   1      -7.689  -3.911  -1.533  0.00  0.00     0.009 A 
ATOM     29  C   UNL d   1      -6.621  -3.012  -1.369  0.00  0.00    -0.035 A 
ATOM     30  C   UNL d   1      -6.668  -1.718  -2.132  0.00  0.00     0.050 C 
ENDBRANCH  21  23
ENDBRANCH  18  19
ENDBRANCH  17  18
ENDBRANCH   1  17
TORSDOF 9
