@<TRIPOS>MOLECULE
*****
 43 43 0 0 0
SMALL
GASTEIGER

@<TRIPOS>ATOM
      1 C           0.9250   -0.1051   -0.0261 C.3     1  UNL1       -0.0635
      2 C           2.4503    0.0177   -0.0596 C.3     1  UNL1       -0.0352
      3 CA          2.9706    1.2304   -0.8785 C.3     1  UNL1        0.0464
      4 C           2.4372    2.5683   -0.3065 C.3     1  UNL1        0.0626
      5 O           1.0240    2.7129   -0.3663 O.3     1  UNL1       -0.3932
      6 N           4.4449    1.2539   -0.9618 N.am    1  UNL1       -0.3026
      7 C           5.1477    2.2045   -1.6991 C.2     1  UNL1        0.2996
      8 O           4.6394    3.0994   -2.3693 O.2     1  UNL1       -0.2652
      9 C           6.6902    2.1031   -1.6322 C.2     1  UNL1        0.3031
     10 O           7.1787    1.1850   -0.9782 O.2     1  UNL1       -0.2648
     11 N           7.3854    3.1165   -2.2962 N.am    1  UNL1       -0.2775
     12 C           8.8023    3.1770   -2.3471 C.ar    1  UNL1        0.0374
     13 C           9.5225    1.9870   -2.5364 C.ar    1  UNL1       -0.0281
     14 C          10.9215    1.9656   -2.5724 C.ar    1  UNL1        0.0385
     15 C          11.7076    0.7030   -2.7682 C.2     1  UNL1        0.2439
     16 O          12.9363    0.7490   -2.7551 O.2     1  UNL1       -0.2702
     17 N          11.0115   -0.4765   -2.9604 N.am    1  UNL1       -0.3144
     18 C          11.6756   -1.7472   -3.1347 C.3     1  UNL1        0.0004
     19 C          11.6104    3.1738   -2.4114 C.ar    1  UNL1       -0.0493
     20 C          10.9082    4.3729   -2.2378 C.ar    1  UNL1       -0.0564
     21 C           9.4991    4.3926   -2.2201 C.ar    1  UNL1       -0.0292
     22 C           8.7977    5.6970   -1.9617 C.3     1  UNL1       -0.0380
     23 H           0.6093   -1.0029    0.5128 H       1  UNL1        0.0230
     24 H           0.5138   -0.1462   -1.0402 H       1  UNL1        0.0230
     25 H           0.4576    0.7269    0.5058 H       1  UNL1        0.0230
     26 H           2.8541   -0.9137   -0.4776 H       1  UNL1        0.0281
     27 H           2.8203    0.0772    0.9715 H       1  UNL1        0.0281
     28 HA          2.6078    1.1123   -1.9080 H       1  UNL1        0.0521
     29 H1          2.8442    3.4211   -0.8493 H       1  UNL1        0.0575
     30 H2          2.7488    2.6676    0.7386 H       1  UNL1        0.0575
     31 H           0.7301    2.4565   -1.2568 H       1  UNL1        0.2095
     32 H           5.0005    0.5715   -0.4471 H       1  UNL1        0.1495
     33 H           6.8437    3.9182   -2.6101 H       1  UNL1        0.1553
     34 H           8.9579    1.0767   -2.6819 H       1  UNL1        0.0644
     35 H          10.0043   -0.4978   -2.9557 H       1  UNL1        0.1487
     36 H          12.7621   -1.6486   -3.1025 H       1  UNL1        0.0426
     37 H          11.3709   -2.1640   -4.0984 H       1  UNL1        0.0426
     38 H          11.3432   -2.4191   -2.3386 H       1  UNL1        0.0426
     39 H          12.7005    3.1897   -2.4145 H       1  UNL1        0.0625
     40 H          11.4783    5.2911   -2.0934 H       1  UNL1        0.0621
     41 H           9.5079    6.5211   -1.8238 H       1  UNL1        0.0278
     42 H           8.2020    5.6273   -1.0456 H       1  UNL1        0.0278
     43 H           8.1503    5.9547   -2.8043 H       1  UNL1        0.0278
@<TRIPOS>BOND
     1     1     2    1
     2     2     3    1
     3     3     4    1
     4     4     5    1
     5     3     6    1
     6     6     7   am
     7     7     8    2
     8     7     9    1
     9     9    10    2
    10     9    11   am
    11    11    12    1
    12    12    13   ar
    13    13    14   ar
    14    14    15    1
    15    15    16    2
    16    15    17   am
    17    17    18    1
    18    14    19   ar
    19    19    20   ar
    20    20    21   ar
    21    12    21   ar
    22    21    22    1
    23     1    23    1
    24     1    24    1
    25     1    25    1
    26     2    26    1
    27     2    27    1
    28     3    28    1
    29     4    29    1
    30     4    30    1
    31     5    31    1
    32     6    32    1
    33    11    33    1
    34    13    34    1
    35    17    35    1
    36    18    36    1
    37    18    37    1
    38    18    38    1
    39    19    39    1
    40    20    40    1
    41    22    41    1
    42    22    42    1
    43    22    43    1
