REMARK  4 active torsions:
REMARK  status: ('A' for Active; 'I' for Inactive)
REMARK       I    between atoms: C_2  and  N_3 
REMARK    1  A    between atoms: C_2  and  C_19 
REMARK    2  A    between atoms: N_3  and  N_4 
REMARK       I    between atoms: N_4  and  C_5 
REMARK    3  A    between atoms: C_5  and  C_7 
REMARK    4  A    between atoms: C_7  and  C_8 
ROOT
ATOM      1  N   UNL d   1       2.358  -0.353   2.391  0.00  0.00    -0.266 N 
ATOM      2  C   UNL d   1       3.110  -0.450   3.546  0.00  0.00     0.249 C 
ATOM      3  O   UNL d   1       4.343  -0.440   3.447  0.00  0.00    -0.271 OA
ATOM      4  H   UNL d   1       1.342  -0.322   2.349  0.00  0.00     0.190 HD
ENDROOT
BRANCH   2   5
ATOM      5  C   UNL d   1       2.358  -0.637   4.921  0.00  0.00     0.069 C 
ATOM      6  C   UNL d   1       1.105   0.271   5.042  0.00  0.00     0.024 C 
ATOM      7  C   UNL d   1       0.236  -0.375   6.125  0.00  0.00     0.002 C 
ATOM      8  C   UNL d   1       0.518  -1.870   6.026  0.00  0.00     0.002 C 
ATOM      9  C   UNL d   1       1.672  -2.026   5.024  0.00  0.00     0.024 C 
BRANCH   5  10
ATOM     10  C   UNL d   1       3.363  -0.446   6.086  0.00  0.00    -0.040 A 
ATOM     11  C   UNL d   1       4.474  -1.307   6.202  0.00  0.00     0.010 A 
ATOM     12  C   UNL d   1       5.441  -1.118   7.194  0.00  0.00     0.024 A 
ATOM     13  C   UNL d   1       5.300  -0.078   8.104  0.00  0.00     0.034 A 
ATOM     14 CL   UNL d   1       6.472   0.150   9.341  0.00  0.00    -0.084 Cl
ATOM     15  C   UNL d   1       4.215   0.784   8.018  0.00  0.00     0.024 A 
ATOM     16  C   UNL d   1       3.261   0.605   7.015  0.00  0.00     0.010 A 
ENDBRANCH   5  10
ENDBRANCH   2   5
BRANCH   1  17
ATOM     17  N   UNL d   1       3.041  -0.207   1.150  0.00  0.00    -0.263 N 
ATOM     18  C   UNL d   1       2.309   0.049   0.004  0.00  0.00     0.272 C 
ATOM     19  O   UNL d   1       1.077   0.121   0.029  0.00  0.00    -0.266 OA
ATOM     20  H   UNL d   1       4.057  -0.126   1.201  0.00  0.00     0.190 HD
BRANCH  18  21
ATOM     21  C   UNL d   1       3.065   0.262  -1.222  0.00  0.00     0.057 A 
ATOM     22  C   UNL d   1       2.780   1.187  -2.275  0.00  0.00     0.043 A 
ATOM     23  C   UNL d   1       3.735   0.998  -3.246  0.00  0.00     0.142 A 
ATOM     24  O   UNL d   1       4.579   0.000  -2.882  0.00  0.00    -0.334 OA
ATOM     25  C   UNL d   1       4.169  -0.444  -1.662  0.00  0.00     0.158 A 
ENDBRANCH  18  21
ENDBRANCH   1  17
TORSDOF 4
