@<TRIPOS>MOLECULE
*****
 52 53 0 0 0
SMALL
GASTEIGER

@<TRIPOS>ATOM
      1 C           1.0707    0.0237   -0.0619 C.3     1  UNL1       -0.0622
      2 C           2.5997    0.0211   -0.1035 C.3     1  UNL1       -0.0385
      3 C           3.0474   -0.6023   -1.4333 C.3     1  UNL1       -0.0622
      4 C           3.1853    1.4429    0.0899 C.3     1  UNL1        0.0266
      5 C           4.7126    1.3975    0.1541 C.2     1  UNL1        0.2174
      6 O           5.3192    0.3262    0.1554 O.2     1  UNL1       -0.2755
      7 N           5.3642    2.6182    0.2560 N.am    1  UNL1       -0.2855
      8 C           6.7815    2.6891    0.2061 C.ar    1  UNL1        0.0334
      9 C           7.5032    3.5272    1.0553 C.ar    1  UNL1       -0.0398
     10 C           8.9122    3.5982    0.9487 C.ar    1  UNL1       -0.0478
     11 C           9.6211    2.8102    0.0167 C.ar    1  UNL1        0.0383
     12 C          11.1297    2.8200    0.0018 C.2     1  UNL1        0.2601
     13 O          11.7518    3.5389    0.7925 O.2     1  UNL1       -0.2687
     14 N          11.7875    1.9869   -0.8983 N.am    1  UNL1       -0.2304
     15 N          13.1994    1.9140   -0.8774 N.am    1  UNL1       -0.2339
     16 C          13.8589    1.1315   -1.8110 C.2     1  UNL1        0.2322
     17 O          13.2383    0.4226   -2.6094 O.2     1  UNL1       -0.2740
     18 C          15.4036    1.1232   -1.7735 C.3     1  UNL1        0.0370
     19 C          16.0047    2.3856   -1.1426 C.3     1  UNL1       -0.0419
     20 C          17.5255    2.3457   -1.0387 C.3     1  UNL1       -0.0524
     21 C          17.9946    1.0972   -0.3020 C.3     1  UNL1       -0.0530
     22 C          17.4663   -0.1581   -0.9857 C.3     1  UNL1       -0.0524
     23 C          15.9365   -0.1441   -1.0855 C.3     1  UNL1       -0.0419
     24 C           8.8794    1.9983   -0.8427 C.ar    1  UNL1       -0.0478
     25 C           7.4841    1.9344   -0.7387 C.ar    1  UNL1       -0.0398
     26 H           0.6839   -0.9974   -0.1691 H       1  UNL1        0.0232
     27 H           0.6555    0.6229   -0.8789 H       1  UNL1        0.0232
     28 H           0.6960    0.4224    0.8853 H       1  UNL1        0.0232
     29 H           2.9543   -0.6168    0.7179 H       1  UNL1        0.0300
     30 H           2.6970   -0.0038   -2.2793 H       1  UNL1        0.0232
     31 H           2.6555   -1.6190   -1.5363 H       1  UNL1        0.0232
     32 H           4.1333   -0.6822   -1.5209 H       1  UNL1        0.0232
     33 H           2.8136    1.8686    1.0304 H       1  UNL1        0.0361
     34 H           2.8617    2.0965   -0.7288 H       1  UNL1        0.0361
     35 H           4.8490    3.4270    0.5798 H       1  UNL1        0.1548
     36 H           7.0045    4.0683    1.8569 H       1  UNL1        0.0636
     37 H           9.4547    4.2694    1.6147 H       1  UNL1        0.0626
     38 H          11.3357    1.3497   -1.5488 H       1  UNL1        0.1731
     39 H          13.6528    2.5439   -0.2209 H       1  UNL1        0.1728
     40 H          15.7323    1.0968   -2.8243 H       1  UNL1        0.0395
     41 H          15.6207    2.5099   -0.1248 H       1  UNL1        0.0272
     42 H          15.6959    3.2665   -1.7167 H       1  UNL1        0.0272
     43 H          17.8718    3.2377   -0.5044 H       1  UNL1        0.0265
     44 H          17.9701    2.3743   -2.0401 H       1  UNL1        0.0265
     45 H          17.6442    1.1241    0.7377 H       1  UNL1        0.0265
     46 H          19.0898    1.0766   -0.2688 H       1  UNL1        0.0265
     47 H          17.7959   -1.0444   -0.4313 H       1  UNL1        0.0265
     48 H          17.9035   -0.2318   -1.9898 H       1  UNL1        0.0265
     49 H          15.5085   -0.2232   -0.0792 H       1  UNL1        0.0272
     50 H          15.6109   -1.0370   -1.6338 H       1  UNL1        0.0272
     51 H           9.3412    1.3929   -1.6124 H       1  UNL1        0.0626
     52 H           6.9474    1.2855   -1.4276 H       1  UNL1        0.0636
@<TRIPOS>BOND
     1     1     2    1
     2     2     3    1
     3     2     4    1
     4     4     5    1
     5     5     6    2
     6     5     7   am
     7     7     8    1
     8     8     9   ar
     9     9    10   ar
    10    10    11   ar
    11    11    12    1
    12    12    13    2
    13    12    14   am
    14    14    15    1
    15    15    16   am
    16    16    17    2
    17    16    18    1
    18    18    19    1
    19    19    20    1
    20    20    21    1
    21    21    22    1
    22    22    23    1
    23    18    23    1
    24    11    24   ar
    25    24    25   ar
    26     8    25   ar
    27     1    26    1
    28     1    27    1
    29     1    28    1
    30     2    29    1
    31     3    30    1
    32     3    31    1
    33     3    32    1
    34     4    33    1
    35     4    34    1
    36     7    35    1
    37     9    36    1
    38    10    37    1
    39    14    38    1
    40    15    39    1
    41    18    40    1
    42    19    41    1
    43    19    42    1
    44    20    43    1
    45    20    44    1
    46    21    45    1
    47    21    46    1
    48    22    47    1
    49    22    48    1
    50    23    49    1
    51    23    50    1
    52    24    51    1
    53    25    52    1
