REMARK  4 active torsions:
REMARK  status: ('A' for Active; 'I' for Inactive)
REMARK    1  A    between atoms: C_2  and  C_3 
REMARK       I    between atoms: C_2  and  N_14 
REMARK    2  A    between atoms: C_4  and  C_5 
REMARK       I    between atoms: N_14  and  C_15 
REMARK    3  A    between atoms: C_15  and  C_17 
REMARK    4  A    between atoms: C_22  and  O_23 
ROOT
ATOM      1  O   UNL d   1       1.028  -0.100  -0.027  0.00  0.00    -0.268 OA
ATOM      2  C   UNL d   1       2.252  -0.017   0.040  0.00  0.00     0.248 C 
ATOM      3  N   UNL d   1       3.057  -0.769  -0.806  0.00  0.00    -0.290 N 
ATOM      4  C   UNL d   1       4.442  -0.859  -0.867  0.00  0.00     0.261 C 
ATOM      5  O   UNL d   1       5.238  -0.242  -0.160  0.00  0.00    -0.267 OA
ATOM      6  H   UNL d   1       2.525  -1.340  -1.452  0.00  0.00     0.172 HD
ENDROOT
BRANCH   2   7
ATOM      7  C   UNL d   1       2.917   0.874   1.027  0.00  0.00     0.075 C 
ATOM      8  C   UNL d   1       2.288   1.659   1.917  0.00  0.00     0.019 C 
BRANCH   8   9
ATOM      9  C   UNL d   1       3.018   2.468   2.849  0.00  0.00    -0.008 A 
ATOM     10  C   UNL d   1       2.784   2.493   4.205  0.00  0.00     0.100 A 
ATOM     11  N   UNL d   1       3.747   3.284   4.784  0.00  0.00    -0.364 N 
ATOM     12  C   UNL d   1       4.549   3.851   3.818  0.00  0.00     0.043 A 
ATOM     13  H   UNL d   1       3.847   3.445   5.777  0.00  0.00     0.165 HD
ATOM     14  C   UNL d   1       5.618   4.753   3.934  0.00  0.00     0.030 A 
ATOM     15  C   UNL d   1       4.110   3.357   2.587  0.00  0.00     0.002 A 
ATOM     16  C   UNL d   1       6.232   5.190   2.755  0.00  0.00     0.002 A 
ATOM     17  C   UNL d   1       5.813   4.720   1.514  0.00  0.00     0.001 A 
ATOM     18  C   UNL d   1       4.767   3.796   1.419  0.00  0.00     0.014 A 
ENDBRANCH   8   9
ENDBRANCH   2   7
BRANCH   4  19
ATOM     19  C   UNL d   1       5.048  -1.822  -1.807  0.00  0.00     0.065 A 
ATOM     20  C   UNL d   1       6.091  -2.612  -1.295  0.00  0.00     0.020 A 
ATOM     21  C   UNL d   1       6.782  -3.497  -2.118  0.00  0.00     0.001 A 
ATOM     22  C   UNL d   1       6.456  -3.571  -3.470  0.00  0.00     0.003 A 
ATOM     23  C   UNL d   1       5.442  -2.762  -3.998  0.00  0.00     0.037 A 
ATOM     24  C   UNL d   1       4.729  -1.893  -3.163  0.00  0.00     0.081 A 
BRANCH  24  25
ATOM     25  O   UNL d   1       3.743  -1.097  -3.671  0.00  0.00    -0.360 OA
ATOM     26  H   UNL d   1       3.701  -1.211  -4.637  0.00  0.00     0.217 HD
ENDBRANCH  24  25
ENDBRANCH   4  19
TORSDOF 4
