REMARK  4 active torsions:
REMARK  status: ('A' for Active; 'I' for Inactive)
REMARK    1  A    between atoms: O_2  and  C_3 
REMARK    2  A    between atoms: C_8  and  N_9 
REMARK       I    between atoms: N_9  and  C_10 
REMARK       I    between atoms: C_10  and  N_12 
REMARK    3  A    between atoms: N_12  and  N_13 
REMARK    4  A    between atoms: N_13  and  C_14 
ROOT
ATOM      1  N   UNL d   1       1.510   2.470   0.381  0.00  0.00    -0.305 N 
ATOM      2  C   UNL d   1       1.079   1.696   1.462  0.00  0.00     0.339 C 
ATOM      3  O   UNL d   1       1.770   0.858   2.051  0.00  0.00    -0.245 OA
ATOM      4  N   UNL d   1      -0.311   1.773   1.675  0.00  0.00    -0.251 N 
ATOM      5  H   UNL d   1       1.119   3.395   0.289  0.00  0.00     0.171 HD
ATOM      6  H   UNL d   1      -0.770   2.677   1.680  0.00  0.00     0.191 HD
ENDROOT
BRANCH   1   7
ATOM      7  C   UNL d   1       2.581   2.117  -0.509  0.00  0.00     0.069 C 
ATOM      8  C   UNL d   1       3.222   3.141  -1.237  0.00  0.00     0.032 C 
ATOM      9  C   UNL d   1       4.338   2.876  -2.058  0.00  0.00     0.002 C 
ATOM     10  C   UNL d   1       4.839   1.584  -2.161  0.00  0.00     0.003 C 
ATOM     11  C   UNL d   1       4.153   0.548  -1.534  0.00  0.00     0.039 C 
ATOM     12  C   UNL d   1       3.007   0.797  -0.753  0.00  0.00     0.095 C 
BRANCH  12  13
ATOM     13  O   UNL d   1       2.407  -0.346  -0.297  0.00  0.00    -0.354 OA
ATOM     14  C   UNL d   1       0.997  -0.437  -0.486  0.00  0.00     0.210 C 
ENDBRANCH  12  13
ENDBRANCH   1   7
BRANCH   4  15
ATOM     15  N   UNL d   1      -0.825   0.821   2.586  0.00  0.00    -0.294 N 
ATOM     16  H   UNL d   1      -0.565  -0.145   2.363  0.00  0.00     0.187 HD
BRANCH  15  17
ATOM     17  C   UNL d   1      -2.110   0.972   3.141  0.00  0.00     0.086 A 
ATOM     18  C   UNL d   1      -2.361   0.306   4.356  0.00  0.00     0.034 A 
ATOM     19  C   UNL d   1      -3.585   0.430   5.025  0.00  0.00     0.002 A 
ATOM     20  C   UNL d   1      -4.580   1.251   4.503  0.00  0.00     0.003 A 
ATOM     21  C   UNL d   1      -4.365   1.901   3.288  0.00  0.00     0.045 A 
ATOM     22  C   UNL d   1      -3.145   1.755   2.617  0.00  0.00     0.144 A 
ATOM     23  F   UNL d   1      -2.989   2.391   1.446  0.00  0.00    -0.204 F 
ENDBRANCH  15  17
ENDBRANCH   4  15
TORSDOF 4
