@<TRIPOS>MOLECULE
*****
 43 43 0 0 0
SMALL
GASTEIGER

@<TRIPOS>ATOM
      1 C           2.4933   -0.0021   -0.0130 C.3     1  UNL1       -0.0396
      2 C           0.9932    0.0094    0.0020 C.ar    1  UNL1       -0.0470
      3 C           0.2663   -1.1850    0.0037 C.ar    1  UNL1       -0.0586
      4 C          -1.1259   -1.1473   -0.0006 C.ar    1  UNL1       -0.0581
      5 C          -1.7936    0.0853   -0.0050 C.ar    1  UNL1       -0.0199
      6 C          -1.0815    1.2938    0.0029 C.ar    1  UNL1        0.1215
      7 O          -1.8368    2.4400    0.0064 O.3     1  UNL1       -0.4827
      8 C          -1.1733    3.7133    0.0280 C.3     1  UNL1        0.1666
      9 C          -2.1959    4.8929    0.0398 C.2     1  UNL1        0.2667
     10 O          -3.4198    4.7341    0.0358 O.2     1  UNL1       -0.2705
     11 N          -1.6491    6.1698    0.0545 N.am    1  UNL1       -0.2323
     12 N          -2.4950    7.3603    0.0625 N.am    1  UNL1       -0.2455
     13 C          -1.8834    8.6242    0.0786 C.2     1  UNL1        0.1530
     14 S          -0.1907    8.7001    0.0603 S.2     1  UNL1       -0.0170
     15 N          -2.7602    9.7391    0.1048 N.am    1  UNL1       -0.2667
     16 C          -2.3519   11.0781    0.1896 C.2     1  UNL1        0.2187
     17 O          -1.1713   11.3932    0.3785 O.2     1  UNL1       -0.2754
     18 C          -3.3884   12.2147    0.1091 C.3     1  UNL1        0.0266
     19 C          -2.6672   13.6085    0.0986 C.3     1  UNL1       -0.0385
     20 C          -1.7770   13.7915   -1.1425 C.3     1  UNL1       -0.0622
     21 C          -3.6449   14.7857    0.1557 C.3     1  UNL1       -0.0622
     22 C           0.3119    1.2422    0.0046 C.ar    1  UNL1       -0.0170
     23 H           2.8917   -1.0216    0.0005 H       1  UNL1        0.0278
     24 H           2.8801    0.5240    0.8654 H       1  UNL1        0.0278
     25 H           2.8581    0.4915   -0.9194 H       1  UNL1        0.0278
     26 H           0.7771   -2.1464    0.0049 H       1  UNL1        0.0620
     27 H          -1.6893   -2.0784   -0.0022 H       1  UNL1        0.0619
     28 H          -2.8814    0.0928   -0.0151 H       1  UNL1        0.0654
     29 H          -0.5445    3.8128   -0.8662 H       1  UNL1        0.0795
     30 H          -0.5518    3.7880    0.9299 H       1  UNL1        0.0795
     31 H          -0.6444    6.3547    0.0609 H       1  UNL1        0.1729
     32 H          -3.4962    7.1701    0.0675 H       1  UNL1        0.1718
     33 H          -3.7566    9.5653    0.0718 H       1  UNL1        0.1565
     34 H          -4.0334   12.1602    0.9954 H       1  UNL1        0.0361
     35 H          -4.0159   12.1191   -0.7830 H       1  UNL1        0.0361
     36 H          -2.0278   13.6783    0.9911 H       1  UNL1        0.0300
     37 H          -2.3765   13.7573   -2.0566 H       1  UNL1        0.0232
     38 H          -1.0037   13.0250   -1.2304 H       1  UNL1        0.0232
     39 H          -1.2509   14.7523   -1.1078 H       1  UNL1        0.0232
     40 H          -4.2939   14.8012   -0.7252 H       1  UNL1        0.0232
     41 H          -3.0982   15.7386    0.1782 H       1  UNL1        0.0232
     42 H          -4.2701   14.7465    1.0518 H       1  UNL1        0.0232
     43 H           0.9052    2.1491    0.0047 H       1  UNL1        0.0657
@<TRIPOS>BOND
     1     1     2    1
     2     2     3   ar
     3     3     4   ar
     4     4     5   ar
     5     5     6   ar
     6     6     7    1
     7     7     8    1
     8     8     9    1
     9     9    10    2
    10     9    11   am
    11    11    12    1
    12    12    13    1
    13    13    14    2
    14    13    15    1
    15    15    16   am
    16    16    17    2
    17    16    18    1
    18    18    19    1
    19    19    20    1
    20    19    21    1
    21     6    22   ar
    22     2    22   ar
    23     1    23    1
    24     1    24    1
    25     1    25    1
    26     3    26    1
    27     4    27    1
    28     5    28    1
    29     8    29    1
    30     8    30    1
    31    11    31    1
    32    12    32    1
    33    15    33    1
    34    18    34    1
    35    18    35    1
    36    19    36    1
    37    20    37    1
    38    20    38    1
    39    20    39    1
    40    21    40    1
    41    21    41    1
    42    21    42    1
    43    22    43    1
