@<TRIPOS>MOLECULE
*****
 43 45 0 0 0
SMALL
GASTEIGER

@<TRIPOS>ATOM
      1 O           1.0675   -0.0018   -0.0217 O.2     1  UNL1       -0.2707
      2 C           2.2947   -0.0966   -0.0305 C.2     1  UNL1        0.2653
      3 C           3.0570   -1.1628   -0.8054 C.3     1  UNL1        0.1664
      4 O           2.1399   -2.0026   -1.5063 O.3     1  UNL1       -0.4821
      5 C           2.6621   -3.1061   -2.1375 C.ar    1  UNL1        0.1289
      6 C           3.7092   -3.8510   -1.5868 C.ar    1  UNL1       -0.0193
      7 C           4.1766   -4.9933   -2.2297 C.ar    1  UNL1       -0.0577
      8 C           3.5911   -5.4144   -3.4196 C.ar    1  UNL1       -0.0538
      9 C           2.5129   -4.7139   -3.9745 C.ar    1  UNL1       -0.0144
     10 C           1.9024   -5.1828   -5.1503 C.ar    1  UNL1       -0.0539
     11 C           0.8270   -4.5036   -5.7180 C.ar    1  UNL1       -0.0612
     12 C           0.3509   -3.3449   -5.1160 C.ar    1  UNL1       -0.0611
     13 C           0.9463   -2.8680   -3.9422 C.ar    1  UNL1       -0.0505
     14 C           2.0337   -3.5400   -3.3379 C.ar    1  UNL1        0.0238
     15 N           3.0354    0.7690    0.7326 N.am    1  UNL1       -0.2290
     16 N           4.5297    0.8828    0.7580 N.3     1  UNL1       -0.1076
     17 S           4.9900    2.2955    1.6432 S.O2    1  UNL1        0.0800
     18 O           4.3992    3.3029    0.7895 O.2     1  UNL1       -0.1515
     19 O           4.5961    2.0810    3.0149 O.2     1  UNL1       -0.1515
     20 C           6.7623    2.3779    1.6134 C.ar    1  UNL1        0.1834
     21 C           7.4826    1.1612    1.6844 C.ar    1  UNL1       -0.0286
     22 C           8.8739    1.1560    1.8740 C.ar    1  UNL1       -0.0595
     23 C           9.5766    2.3521    1.9238 C.ar    1  UNL1       -0.0552
     24 C           8.8836    3.5559    1.8336 C.ar    1  UNL1        0.0176
     25 C           7.4755    3.5895    1.6900 C.ar    1  UNL1        0.2993
     26 N           6.8833    4.9438    1.6737 N.pl3   1  UNL1        0.0816
     27 O           7.6667    5.8995    1.5800 O.2     1  UNL1        0.0415
     28 O           5.6705    5.0859    1.7922 O.co2   1  UNL1       -0.5760
     29 H           3.6478   -1.7098   -0.0646 H       1  UNL1        0.0795
     30 H           3.7129   -0.6661   -1.5287 H       1  UNL1        0.0795
     31 H           4.1572   -3.5932   -0.6348 H       1  UNL1        0.0654
     32 H           4.9848   -5.5704   -1.7895 H       1  UNL1        0.0619
     33 H           3.9743   -6.3098   -3.9041 H       1  UNL1        0.0624
     34 H           2.2555   -6.0941   -5.6291 H       1  UNL1        0.0624
     35 H           0.3625   -4.8817   -6.6253 H       1  UNL1        0.0618
     36 H          -0.4896   -2.8130   -5.5544 H       1  UNL1        0.0618
     37 H           0.5491   -1.9604   -3.4906 H       1  UNL1        0.0625
     38 H           2.5153    1.4892    1.2420 H       1  UNL1        0.1707
     39 H           4.9210    0.9334   -0.1890 H       1  UNL1        0.1716
     40 H           6.9785    0.1961    1.6411 H       1  UNL1        0.0639
     41 H           9.4158    0.2202    2.0125 H       1  UNL1        0.0618
     42 H          10.6592    2.3585    2.0440 H       1  UNL1        0.0620
     43 H           9.4627    4.4770    1.9106 H       1  UNL1        0.0686
@<TRIPOS>UNITY_ATOM_ATTR
26 1
charge 1
28 1
charge -1
@<TRIPOS>BOND
     1     1     2    2
     2     2     3    1
     3     3     4    1
     4     4     5    1
     5     5     6   ar
     6     6     7   ar
     7     7     8   ar
     8     8     9   ar
     9     9    10   ar
    10    10    11   ar
    11    11    12   ar
    12    12    13   ar
    13    13    14   ar
    14     5    14   ar
    15     9    14   ar
    16     2    15   am
    17    15    16    1
    18    16    17    1
    19    17    18    2
    20    17    19    2
    21    17    20    1
    22    20    21   ar
    23    21    22   ar
    24    22    23   ar
    25    23    24   ar
    26    24    25   ar
    27    20    25   ar
    28    25    26    1
    29    26    27    2
    30    26    28    1
    31     3    29    1
    32     3    30    1
    33     6    31    1
    34     7    32    1
    35     8    33    1
    36    10    34    1
    37    11    35    1
    38    12    36    1
    39    13    37    1
    40    15    38    1
    41    16    39    1
    42    21    40    1
    43    22    41    1
    44    23    42    1
    45    24    43    1
