REMARK  10 active torsions:
REMARK  status: ('A' for Active; 'I' for Inactive)
REMARK    1  A    between atoms: C_2  and  C_3 
REMARK       I    between atoms: C_2  and  N_15 
REMARK    2  A    between atoms: C_3  and  C_4 
REMARK    3  A    between atoms: C_4  and  C_5 
REMARK    4  A    between atoms: C_5  and  O_6 
REMARK    5  A    between atoms: O_6  and  C_7 
REMARK    6  A    between atoms: N_15  and  C_16 
REMARK    7  A    between atoms: C_16  and  N_18 
REMARK    8  A    between atoms: N_18  and  C_19 
REMARK    9  A    between atoms: C_22  and  N_23 
REMARK   10  A    between atoms: C_27  and  O_28 
ROOT
ATOM      1  O   UNL d   1       1.158   0.126   0.165  0.00  0.00    -0.273 OA
ATOM      2  C   UNL d   1       2.368  -0.023  -0.005  0.00  0.00     0.223 C 
ATOM      3  N   UNL d   1       3.295   0.706   0.767  0.00  0.00    -0.304 N 
ATOM      4  H   UNL d   1       2.805   1.349   1.379  0.00  0.00     0.171 HD
ENDROOT
BRANCH   3   5
ATOM      5  C   UNL d   1       4.704   0.612   0.904  0.00  0.00     0.178 C 
ATOM      6  S   UNL d   1       5.657  -0.628   0.242  0.00  0.00    -0.040 SA
BRANCH   5   7
ATOM      7  N   UNL d   1       5.264   1.645   1.691  0.00  0.00    -0.331 N 
ATOM      8  H   UNL d   1       4.721   2.009   2.465  0.00  0.00     0.168 HD
BRANCH   7   9
ATOM      9  C   UNL d   1       6.690   1.810   1.770  0.00  0.00     0.068 A 
ATOM     10  C   UNL d   1       7.362   1.725   2.995  0.00  0.00     0.035 A 
ATOM     11  C   UNL d   1       8.771   1.693   3.020  0.00  0.00     0.038 A 
ATOM     12  C   UNL d   1       9.502   1.742   1.817  0.00  0.00     0.105 A 
ATOM     13  C   UNL d   1       8.842   1.846   0.593  0.00  0.00     0.075 A 
ATOM     14  C   UNL d   1       7.454   1.933   0.590  0.00  0.00     0.094 A 
BRANCH  12  15
ATOM     15  N   UNL d   1      10.972   1.743   1.845  0.00  0.00    -0.116 N 
ATOM     16  O   UNL d   1      11.532   1.704   2.942  0.00  0.00    -0.532 OA
ATOM     17  O   UNL d   1      11.566   1.800   0.750  0.00  0.00    -0.532 OA
ENDBRANCH  12  15
BRANCH  14  18
ATOM     18  O   UNL d   1       6.809   2.171  -0.599  0.00  0.00    -0.358 OA
ATOM     19  H   UNL d   1       7.295   1.716  -1.307  0.00  0.00     0.217 HD
ENDBRANCH  14  18
ENDBRANCH   7   9
ENDBRANCH   5   7
ENDBRANCH   3   5
BRANCH   2  20
ATOM     20  C   UNL d   1       2.939  -0.976  -1.035  0.00  0.00     0.105 C 
BRANCH  20  21
ATOM     21  C   UNL d   1       1.995  -1.779  -1.897  0.00  0.00     0.036 C 
BRANCH  21  22
ATOM     22  C   UNL d   1       2.806  -2.696  -2.825  0.00  0.00     0.176 C 
BRANCH  22  23
ATOM     23  O   UNL d   1       1.870  -3.480  -3.569  0.00  0.00    -0.349 OA
BRANCH  23  24
ATOM     24  C   UNL d   1       2.438  -4.221  -4.570  0.00  0.00     0.090 A 
ATOM     25  C   UNL d   1       3.444  -5.155  -4.309  0.00  0.00     0.040 A 
ATOM     26  C   UNL d   1       3.962  -5.931  -5.351  0.00  0.00     0.026 A 
ATOM     27  C   UNL d   1       3.463  -5.780  -6.644  0.00  0.00     0.035 A 
ATOM     28 CL   UNL d   1       4.120  -6.725  -7.924  0.00  0.00    -0.084 Cl
ATOM     29  C   UNL d   1       2.438  -4.876  -6.908  0.00  0.00     0.050 A 
ATOM     30  C   UNL d   1       1.918  -4.106  -5.867  0.00  0.00     0.069 A 
ATOM     31 CL   UNL d   1       0.637  -3.002  -6.220  0.00  0.00    -0.081 Cl
ENDBRANCH  23  24
ENDBRANCH  22  23
ENDBRANCH  21  22
ENDBRANCH  20  21
ENDBRANCH   2  20
TORSDOF 10
