@<TRIPOS>MOLECULE
*****
 37 38 0 0 0
SMALL
GASTEIGER

@<TRIPOS>ATOM
      1 C           0.9211    0.0891   -0.0441 C.3     1  UNL1       -0.0178
      2 S           2.7070   -0.1165    0.0552 S.3     1  UNL1       -0.1595
      3 C           3.3002    1.0439   -1.2404 C.3     1  UNL1        0.0185
      4 C           4.8200    1.1181   -1.2867 C.ar    1  UNL1       -0.0375
      5 C           5.5904    1.0287   -0.1185 C.ar    1  UNL1       -0.0571
      6 C           6.9739    1.1858   -0.1503 C.ar    1  UNL1       -0.0493
      7 C           7.6491    1.3894   -1.3591 C.ar    1  UNL1        0.0370
      8 C           9.1424    1.4431   -1.2938 C.2     1  UNL1        0.2483
      9 O           9.6668    1.4233   -0.1730 O.2     1  UNL1       -0.2699
     10 N           9.8459    1.5731   -2.4799 N.am    1  UNL1       -0.2786
     11 C          11.2543    1.4726   -2.5554 C.ar    1  UNL1        0.0756
     12 C          11.9492    2.3378   -3.4058 C.ar    1  UNL1       -0.0366
     13 C          13.3414    2.2413   -3.5263 C.ar    1  UNL1       -0.0569
     14 C          14.0593    1.3133   -2.7617 C.ar    1  UNL1       -0.0469
     15 C          15.5590    1.2862   -2.7907 C.3     1  UNL1       -0.0396
     16 C          13.3602    0.4229   -1.9378 C.ar    1  UNL1       -0.0154
     17 C          11.9693    0.4915   -1.8563 C.ar    1  UNL1        0.1382
     18 O          11.2967   -0.4953   -1.1866 O.3     1  UNL1       -0.5049
     19 C           6.8939    1.4958   -2.5336 C.ar    1  UNL1       -0.0493
     20 C           5.4922    1.3720   -2.4935 C.ar    1  UNL1       -0.0571
     21 H           0.4834   -0.5332    0.7436 H       1  UNL1        0.0341
     22 H           0.5460   -0.2670   -1.0051 H       1  UNL1        0.0341
     23 H           0.6112    1.1220    0.1326 H       1  UNL1        0.0341
     24 H           2.9187    2.0558   -1.0568 H       1  UNL1        0.0425
     25 H           2.9169    0.7006   -2.2080 H       1  UNL1        0.0425
     26 H           5.1331    0.8155    0.8453 H       1  UNL1        0.0621
     27 H           7.5213    1.1394    0.7902 H       1  UNL1        0.0625
     28 H           9.3725    1.8435   -3.3268 H       1  UNL1        0.1552
     29 H          11.4334    3.1348   -3.9346 H       1  UNL1        0.0637
     30 H          13.8655    2.9082   -4.2081 H       1  UNL1        0.0621
     31 H          15.9608    2.0482   -3.4666 H       1  UNL1        0.0278
     32 H          15.9260    0.3096   -3.1205 H       1  UNL1        0.0278
     33 H          15.9473    1.4981   -1.7885 H       1  UNL1        0.0278
     34 H          13.8999   -0.3417   -1.3871 H       1  UNL1        0.0657
     35 H          11.8671   -0.8372   -0.4820 H       1  UNL1        0.2922
     36 H           7.3586    1.6795   -3.4950 H       1  UNL1        0.0625
     37 H           4.9330    1.4681   -3.4227 H       1  UNL1        0.0621
@<TRIPOS>BOND
     1     1     2    1
     2     2     3    1
     3     3     4    1
     4     4     5   ar
     5     5     6   ar
     6     6     7   ar
     7     7     8    1
     8     8     9    2
     9     8    10   am
    10    10    11    1
    11    11    12   ar
    12    12    13   ar
    13    13    14   ar
    14    14    15    1
    15    14    16   ar
    16    16    17   ar
    17    11    17   ar
    18    17    18    1
    19     7    19   ar
    20    19    20   ar
    21     4    20   ar
    22     1    21    1
    23     1    22    1
    24     1    23    1
    25     3    24    1
    26     3    25    1
    27     5    26    1
    28     6    27    1
    29    10    28    1
    30    12    29    1
    31    13    30    1
    32    15    31    1
    33    15    32    1
    34    15    33    1
    35    16    34    1
    36    18    35    1
    37    19    36    1
    38    20    37    1
