REMARK  5 active torsions:
REMARK  status: ('A' for Active; 'I' for Inactive)
REMARK       I    between atoms: C_2  and  N_3 
REMARK    1  A    between atoms: C_2  and  C_16 
REMARK    2  A    between atoms: N_3  and  C_4 
REMARK    3  A    between atoms: C_4  and  C_5 
REMARK    4  A    between atoms: C_5  and  C_6 
REMARK    5  A    between atoms: N_19  and  C_20 
ROOT
ATOM      1  O   UNL d   1       1.018  -0.099  -0.131  0.00  0.00    -0.273 OA
ATOM      2  C   UNL d   1       2.227   0.028  -0.106  0.00  0.00     0.221 C 
ATOM      3  N   UNL d   1       2.870   1.013  -0.831  0.00  0.00    -0.360 N 
ATOM      4  H   UNL d   1       3.846   1.197  -0.692  0.00  0.00     0.162 HD
ENDROOT
BRANCH   2   5
ATOM      5  C   UNL d   1       3.165  -0.900   0.698  0.00  0.00     0.081 C 
ATOM      6  C   UNL d   1       4.655  -0.576   0.518  0.00  0.00     0.044 C 
ATOM      7  C   UNL d   1       5.176  -0.884  -0.950  0.00  0.00     0.276 C 
ATOM      8  N   UNL d   1       5.029  -2.280  -1.379  0.00  0.00     0.117 N 
ATOM      9  C   UNL d   1       3.562  -2.636  -1.085  0.00  0.00     0.276 C 
ATOM     10  C   UNL d   1       3.002  -2.362   0.320  0.00  0.00     0.044 C 
BRANCH   8  11
ATOM     11  C   UNL d   1       5.279  -2.603  -2.899  0.00  0.00     0.370 C 
ATOM     12  N   UNL d   1       6.389  -2.486  -3.985  0.00  0.00    -0.252 NA
ATOM     13  C   UNL d   1       6.223  -3.577  -4.956  0.00  0.00     0.046 C 
ATOM     14  H   UNL d   1       6.467  -1.598  -4.476  0.00  0.00     0.130 HD
ATOM     15  C   UNL d   1       6.766  -3.757  -6.239  0.00  0.00     0.028 C 
ATOM     16  C   UNL d   1       5.630  -4.722  -4.451  0.00  0.00     0.117 C 
ATOM     17  C   UNL d   1       6.825  -5.069  -6.800  0.00  0.00     0.021 C 
ATOM     18  C   UNL d   1       6.199  -6.121  -6.149  0.00  0.00     0.118 C 
ATOM     19  N   UNL d   1       5.550  -5.955  -4.995  0.00  0.00    -0.252 NA
ATOM     20  S   UNL d   1       4.932  -4.451  -2.902  0.00  0.00    -0.057 SA
ENDBRANCH   8  11
ENDBRANCH   2   5
BRANCH   3  21
ATOM     21  C   UNL d   1       2.205   1.839  -1.788  0.00  0.00     0.127 C 
BRANCH  21  22
ATOM     22  C   UNL d   1       3.229   2.603  -2.634  0.00  0.00     0.056 C 
BRANCH  22  23
ATOM     23  C   UNL d   1       2.563   3.511  -3.603  0.00  0.00    -0.048 A 
ATOM     24  C   UNL d   1       1.698   3.171  -4.564  0.00  0.00    -0.004 A 
ATOM     25  C   UNL d   1       1.136   1.937  -4.997  0.00  0.00     0.037 A 
ATOM     26  C   UNL d   1       1.356   4.453  -5.214  0.00  0.00     0.038 A 
ATOM     27  C   UNL d   1       0.267   1.948  -6.019  0.00  0.00     0.035 A 
ATOM     28 CL   UNL d   1      -0.442   0.474  -6.557  0.00  0.00    -0.084 Cl
ATOM     29  C   UNL d   1      -0.084   3.188  -6.697  0.00  0.00     0.026 A 
ATOM     30  C   UNL d   1       0.409   4.394  -6.351  0.00  0.00     0.031 A 
ATOM     31  N   UNL d   1       1.952   5.436  -4.687  0.00  0.00    -0.385 N 
ATOM     32  C   UNL d   1       2.805   4.989  -3.567  0.00  0.00     0.155 A 
ATOM     33  H   UNL d   1       1.855   6.406  -5.006  0.00  0.00     0.160 HD
ENDBRANCH  22  23
ENDBRANCH  21  22
ENDBRANCH   3  21
TORSDOF 5
