REMARK  8 active torsions:
REMARK  status: ('A' for Active; 'I' for Inactive)
REMARK    1  A    between atoms: C_2  and  C_5 
REMARK    2  A    between atoms: C_5  and  N_6 
REMARK    3  A    between atoms: N_6  and  C_7 
REMARK    4  A    between atoms: C_7  and  O_8 
REMARK    5  A    between atoms: C_7  and  C_9 
REMARK    6  A    between atoms: C_9  and  O_10 
REMARK    7  A    between atoms: O_10  and  N_11 
REMARK    8  A    between atoms: N_11  and  C_12 
ROOT
ATOM      1  N   UNL d   1       8.521   2.540  -3.357  0.00  0.00    -0.170 NA
ATOM      2  H   UNL d   1       8.992   1.698  -3.034  0.00  0.00     0.160 HD
ENDROOT
BRANCH   1   3
ATOM      3  O   UNL d   1       7.129   2.367  -3.497  0.00  0.00    -0.297 OA
BRANCH   3   4
ATOM      4  C   UNL d   1       6.643   1.639  -2.364  0.00  0.00     0.257 C 
BRANCH   4   5
ATOM      5  C   UNL d   1       5.097   1.651  -2.369  0.00  0.00     0.379 C 
BRANCH   5   6
ATOM      6  N   UNL d   1       4.599   0.867  -1.249  0.00  0.00     0.115 N 
ATOM      7  H   UNL d   1       4.958  -0.082  -1.341  0.00  0.00     0.319 HD
BRANCH   6   8
ATOM      8  C   UNL d   1       3.133   0.809  -1.218  0.00  0.00     0.281 C 
BRANCH   8   9
ATOM      9  C   UNL d   1       2.622  -0.039  -0.023  0.00  0.00    -0.025 C 
ATOM     10  C   UNL d   1       1.082  -0.029  -0.032  0.00  0.00     0.016 C 
ATOM     11  C   UNL d   1       3.113   0.564   1.305  0.00  0.00     0.016 C 
ATOM     12  C   UNL d   1       3.102  -1.496  -0.139  0.00  0.00     0.016 C 
ENDBRANCH   8   9
ENDBRANCH   6   8
ENDBRANCH   5   6
BRANCH   5  13
ATOM     13  O   UNL d   1       4.625   2.979  -2.241  0.00  0.00    -0.366 OA
ATOM     14  H   UNL d   1       4.904   3.256  -1.353  0.00  0.00     0.212 HD
ENDBRANCH   5  13
ENDBRANCH   4   5
ENDBRANCH   3   4
ENDBRANCH   1   3
BRANCH   1  15
ATOM     15  C   UNL d   1       9.156   3.096  -4.440  0.00  0.00     0.045 A 
ATOM     16  C   UNL d   1      10.158   2.655  -5.249  0.00  0.00     0.038 A 
ATOM     17  C   UNL d   1      10.476   3.752  -6.249  0.00  0.00    -0.022 A 
ATOM     18  C   UNL d   1      11.394   3.858  -7.290  0.00  0.00     0.012 A 
ATOM     19  C   UNL d   1       9.627   4.817  -5.970  0.00  0.00    -0.004 A 
ATOM     20  C   UNL d   1      11.408   5.079  -8.000  0.00  0.00     0.002 A 
ATOM     21  C   UNL d   1      10.540   6.146  -7.684  0.00  0.00     0.012 A 
ATOM     22  C   UNL d   1       9.618   6.010  -6.632  0.00  0.00    -0.024 A 
ATOM     23  C   UNL d   1       8.690   6.966  -6.181  0.00  0.00     0.012 A 
ATOM     24  C   UNL d   1       7.839   6.667  -5.097  0.00  0.00     0.002 A 
ATOM     25  C   UNL d   1       7.877   5.427  -4.436  0.00  0.00     0.014 A 
ATOM     26  C   UNL d   1       8.800   4.498  -4.900  0.00  0.00    -0.001 A 
ENDBRANCH   1  15
TORSDOF 8
