REMARK  5 active torsions:
REMARK  status: ('A' for Active; 'I' for Inactive)
REMARK    1  A    between atoms: C_2  and  C_4 
REMARK       I    between atoms: C_4  and  N_6 
REMARK    2  A    between atoms: N_6  and  C_7 
REMARK    3  A    between atoms: C_11  and  N_12 
REMARK       I    between atoms: N_12  and  C_13 
REMARK    4  A    between atoms: C_13  and  C_15 
REMARK    5  A    between atoms: C_18  and  N_19 
ROOT
ATOM      1  C   UNL d   1       5.033   2.018   2.150  0.00  0.00     0.036 A 
ATOM      2  C   UNL d   1       6.234   2.699   2.002  0.00  0.00     0.029 A 
ATOM      3  C   UNL d   1       6.806   3.337   3.115  0.00  0.00     0.004 A 
ATOM      4  C   UNL d   1       6.172   3.309   4.374  0.00  0.00     0.029 A 
ATOM      5  C   UNL d   1       4.968   2.622   4.528  0.00  0.00     0.037 A 
ATOM      6  C   UNL d   1       4.421   2.021   3.398  0.00  0.00     0.059 A 
ENDROOT
BRANCH   5   7
ATOM      7  N   UNL d   1       4.339   2.490   5.798  0.00  0.00    -0.323 N 
ATOM      8  C   UNL d   1       3.209   1.711   6.030  0.00  0.00     0.256 C 
ATOM      9  O   UNL d   1       2.579   1.028   5.218  0.00  0.00    -0.267 OA
ATOM     10  H   UNL d   1       4.805   2.922   6.586  0.00  0.00     0.169 HD
BRANCH   8  11
ATOM     11  C   UNL d   1       2.651   1.643   7.388  0.00  0.00     0.032 A 
ATOM     12  C   UNL d   1       2.063   0.426   7.788  0.00  0.00     0.019 A 
ATOM     13  C   UNL d   1       1.310   0.355   8.956  0.00  0.00     0.037 A 
ATOM     14  C   UNL d   1       1.210   1.492   9.764  0.00  0.00     0.102 A 
ATOM     15  C   UNL d   1       1.787   2.711   9.366  0.00  0.00     0.037 A 
ATOM     16  C   UNL d   1       2.503   2.789   8.168  0.00  0.00     0.019 A 
BRANCH  14  17
ATOM     17  N   UNL d   1       0.548   1.392  11.070  0.00  0.00    -0.116 N 
ATOM     18  O   UNL d   1       0.080   0.292  11.398  0.00  0.00    -0.532 OA
ATOM     19  O   UNL d   1       0.530   2.406  11.782  0.00  0.00    -0.532 OA
ENDBRANCH  14  17
ENDBRANCH   8  11
ENDBRANCH   5   7
BRANCH   1  20
ATOM     20  N   UNL d   1       4.465   1.233   1.116  0.00  0.00    -0.327 N 
ATOM     21  C   UNL d   1       3.091   1.036   0.992  0.00  0.00     0.225 C 
ATOM     22  O   UNL d   1       2.248   1.663   1.634  0.00  0.00    -0.273 OA
ATOM     23  H   UNL d   1       5.103   0.799   0.465  0.00  0.00     0.169 HD
BRANCH  21  24
ATOM     24  C   UNL d   1       2.644   0.006  -0.045  0.00  0.00     0.070 C 
ATOM     25  C   UNL d   1       1.107  -0.059  -0.058  0.00  0.00     0.019 C 
ATOM     26  C   UNL d   1       3.136   0.390  -1.433  0.00  0.00     0.019 C 
ENDBRANCH  21  24
ENDBRANCH   1  20
TORSDOF 5
