REMARK  7 active torsions:
REMARK  status: ('A' for Active; 'I' for Inactive)
REMARK    1  A    between atoms: C_2  and  C_4 
REMARK    2  A    between atoms: C_4  and  C_5 
REMARK    3  A    between atoms: C_5  and  N_6 
REMARK       I    between atoms: N_6  and  C_7 
REMARK       I    between atoms: C_7  and  N_9 
REMARK    4  A    between atoms: N_9  and  N_10 
REMARK       I    between atoms: N_10  and  C_11 
REMARK    5  A    between atoms: C_11  and  C_13 
REMARK    6  A    between atoms: C_14  and  C_15 
REMARK    7  A    between atoms: C_18  and  N_19 
ROOT
ATOM      1  N   UNL d   1       8.337  -4.494   1.442  0.00  0.00    -0.263 N 
ATOM      2  C   UNL d   1       8.740  -5.770   1.811  0.00  0.00     0.259 C 
ATOM      3  O   UNL d   1       7.941  -6.666   2.088  0.00  0.00    -0.267 OA
ATOM      4  H   UNL d   1       8.972  -3.732   1.206  0.00  0.00     0.190 HD
ENDROOT
BRANCH   1   5
ATOM      5  N   UNL d   1       6.935  -4.178   1.344  0.00  0.00    -0.249 N 
ATOM      6  C   UNL d   1       6.540  -2.908   0.954  0.00  0.00     0.334 C 
ATOM      7  N   UNL d   1       5.171  -2.720   0.869  0.00  0.00    -0.342 N 
ATOM      8  O   UNL d   1       7.355  -2.020   0.698  0.00  0.00    -0.246 OA
ATOM      9  H   UNL d   1       4.540  -3.461   1.136  0.00  0.00     0.164 HD
ATOM     10  H   UNL d   1       6.290  -4.930   1.567  0.00  0.00     0.192 HD
BRANCH   7  11
ATOM     11  C   UNL d   1       4.612  -1.416   0.502  0.00  0.00     0.125 C 
BRANCH  11  12
ATOM     12  C   UNL d   1       3.073  -1.343   0.495  0.00  0.00     0.023 C 
BRANCH  12  13
ATOM     13  C   UNL d   1       2.527   0.053   0.096  0.00  0.00    -0.021 C 
ATOM     14  C   UNL d   1       0.993   0.053   0.066  0.00  0.00     0.009 C 
ATOM     15  C   UNL d   1       3.002   1.147   1.054  0.00  0.00     0.009 C 
ENDBRANCH  12  13
ENDBRANCH  11  12
ENDBRANCH   7  11
ENDBRANCH   1   5
BRANCH   2  16
ATOM     16  C   UNL d   1      10.231  -5.999   1.862  0.00  0.00     0.076 C 
ATOM     17  C   UNL d   1      10.765  -7.197   2.193  0.00  0.00     0.017 C 
BRANCH  17  18
ATOM     18  C   UNL d   1      12.218  -7.485   2.326  0.00  0.00    -0.036 A 
ATOM     19  C   UNL d   1      12.764  -8.710   1.895  0.00  0.00     0.014 A 
ATOM     20  C   UNL d   1      14.118  -9.027   2.122  0.00  0.00     0.037 A 
ATOM     21  C   UNL d   1      14.957  -8.084   2.728  0.00  0.00     0.102 A 
ATOM     22  C   UNL d   1      14.430  -6.870   3.178  0.00  0.00     0.037 A 
ATOM     23  C   UNL d   1      13.069  -6.585   2.985  0.00  0.00     0.014 A 
BRANCH  21  24
ATOM     24  N   UNL d   1      16.402  -8.340   2.840  0.00  0.00    -0.116 N 
ATOM     25  O   UNL d   1      16.834  -9.418   2.407  0.00  0.00    -0.532 OA
ATOM     26  O   UNL d   1      17.108  -7.449   3.336  0.00  0.00    -0.532 OA
ENDBRANCH  21  24
ENDBRANCH  17  18
ENDBRANCH   2  16
TORSDOF 7
