@<TRIPOS>MOLECULE
*****
 41 43 0 0 0
SMALL
GASTEIGER

@<TRIPOS>ATOM
      1 O           1.0795   -0.0987    0.1017 O.2     1  UNL1       -0.2697
      2 C           2.3061    0.0167    0.0840 C.2     1  UNL1        0.2519
      3 N           3.0088    0.9785   -0.6454 N.am    1  UNL1       -0.2785
      4 C           2.3433    1.9330   -1.4545 C.ar    1  UNL1        0.0756
      5 C           2.7696    2.1218   -2.7746 C.ar    1  UNL1       -0.0369
      6 C           2.0693    2.9892   -3.6229 C.ar    1  UNL1       -0.0598
      7 C           0.9704    3.7044   -3.1448 C.ar    1  UNL1       -0.0582
      8 C           0.5755    3.5673   -1.8137 C.ar    1  UNL1       -0.0183
      9 C           1.2691    2.6946   -0.9734 C.ar    1  UNL1        0.1380
     10 O           0.9747    2.6671    0.3640 O.3     1  UNL1       -0.5049
     11 C           3.1500   -0.9841    0.8140 C.ar    1  UNL1        0.0786
     12 C           4.2891   -0.5446    1.5023 C.ar    1  UNL1       -0.0461
     13 C           5.1020   -1.4606    2.1748 C.ar    1  UNL1       -0.0608
     14 C           4.7834   -2.8160    2.1722 C.ar    1  UNL1       -0.0583
     15 C           3.6376   -3.2605    1.5165 C.ar    1  UNL1       -0.0192
     16 C           2.8116   -2.3538    0.8405 C.ar    1  UNL1        0.1331
     17 O           1.6948   -2.7309    0.1576 O.3     1  UNL1       -0.4866
     18 C           1.2835   -4.0918    0.1993 C.3     1  UNL1        0.1147
     19 C          -0.0271   -4.2478   -0.5321 C.ar    1  UNL1       -0.0104
     20 C          -0.8115   -3.1369   -0.8773 C.ar    1  UNL1       -0.0554
     21 C          -2.0797   -3.3074   -1.4243 C.ar    1  UNL1       -0.0614
     22 C          -2.5484   -4.5883   -1.7011 C.ar    1  UNL1       -0.0617
     23 C          -1.7658   -5.7008   -1.3944 C.ar    1  UNL1       -0.0614
     24 C          -0.5148   -5.5335   -0.8012 C.ar    1  UNL1       -0.0554
     25 H           3.9777    0.7872   -0.8588 H       1  UNL1        0.1552
     26 H           3.6024    1.5541   -3.1795 H       1  UNL1        0.0637
     27 H           2.3680    3.0948   -4.6638 H       1  UNL1        0.0618
     28 H           0.4306    4.3787   -3.8059 H       1  UNL1        0.0619
     29 H          -0.2553    4.1583   -1.4416 H       1  UNL1        0.0655
     30 H           0.0745    2.9989    0.4958 H       1  UNL1        0.2922
     31 H           4.5344    0.5132    1.5407 H       1  UNL1        0.0626
     32 H           5.9840   -1.1168    2.7081 H       1  UNL1        0.0618
     33 H           5.4215   -3.5321    2.6848 H       1  UNL1        0.0619
     34 H           3.4208   -4.3241    1.5439 H       1  UNL1        0.0654
     35 H           1.1255   -4.4195    1.2358 H       1  UNL1        0.0748
     36 H           2.0422   -4.7142   -0.2891 H       1  UNL1        0.0748
     37 H          -0.4452   -2.1237   -0.7094 H       1  UNL1        0.0621
     38 H          -2.6987   -2.4359   -1.6178 H       1  UNL1        0.0618
     39 H          -3.5260   -4.7165   -2.1554 H       1  UNL1        0.0618
     40 H          -2.1389   -6.7001   -1.5988 H       1  UNL1        0.0618
     41 H           0.0750   -6.4093   -0.5411 H       1  UNL1        0.0621
@<TRIPOS>BOND
     1     1     2    2
     2     2     3   am
     3     3     4    1
     4     4     5   ar
     5     5     6   ar
     6     6     7   ar
     7     7     8   ar
     8     8     9   ar
     9     4     9   ar
    10     9    10    1
    11     2    11    1
    12    11    12   ar
    13    12    13   ar
    14    13    14   ar
    15    14    15   ar
    16    15    16   ar
    17    11    16   ar
    18    16    17    1
    19    17    18    1
    20    18    19    1
    21    19    20   ar
    22    20    21   ar
    23    21    22   ar
    24    22    23   ar
    25    23    24   ar
    26    19    24   ar
    27     3    25    1
    28     5    26    1
    29     6    27    1
    30     7    28    1
    31     8    29    1
    32    10    30    1
    33    12    31    1
    34    13    32    1
    35    14    33    1
    36    15    34    1
    37    18    35    1
    38    18    36    1
    39    20    37    1
    40    21    38    1
    41    22    39    1
    42    23    40    1
    43    24    41    1
