REMARK  5 active torsions:
REMARK  status: ('A' for Active; 'I' for Inactive)
REMARK       I    between atoms: C_2  and  N_3 
REMARK       I    between atoms: C_2  and  N_11 
REMARK    1  A    between atoms: N_3  and  C_4 
REMARK    2  A    between atoms: N_11  and  C_12 
REMARK    3  A    between atoms: C_14  and  N_15 
REMARK       I    between atoms: N_15  and  C_16 
REMARK    4  A    between atoms: C_16  and  C_18 
REMARK    5  A    between atoms: C_26  and  N_27 
ROOT
ATOM      1  C   UNL d   1       4.364   0.949  -0.550  0.00  0.00     0.065 C 
ATOM      2  C   UNL d   1       5.117   2.162  -0.531  0.00  0.00     0.061 C 
ATOM      3  C   UNL d   1       6.514   2.159  -0.740  0.00  0.00     0.037 C 
ATOM      4  C   UNL d   1       7.141   0.923  -0.857  0.00  0.00     0.032 C 
ATOM      5  C   UNL d   1       6.418  -0.257  -0.932  0.00  0.00     0.034 C 
ATOM      6  C   UNL d   1       5.029  -0.276  -0.819  0.00  0.00     0.057 C 
ENDROOT
BRANCH   1   7
ATOM      7  N   UNL d   1       2.950   1.051  -0.368  0.00  0.00    -0.306 N 
ATOM      8  C   UNL d   1       2.050   0.145   0.170  0.00  0.00     0.325 C 
ATOM      9  O   UNL d   1       0.867   0.186  -0.155  0.00  0.00    -0.247 OA
ATOM     10  N   UNL d   1       2.560  -0.676   1.135  0.00  0.00    -0.309 N 
ATOM     11  H   UNL d   1       3.524  -0.481   1.362  0.00  0.00     0.170 HD
ATOM     12  H   UNL d   1       2.489   1.764  -0.921  0.00  0.00     0.170 HD
BRANCH  10  13
ATOM     13  C   UNL d   1       1.946  -1.788   1.754  0.00  0.00     0.036 C 
ATOM     14  C   UNL d   1       0.934  -2.549   1.151  0.00  0.00     0.031 C 
ATOM     15  C   UNL d   1       0.356  -3.625   1.831  0.00  0.00     0.026 C 
ATOM     16  C   UNL d   1       0.774  -3.916   3.125  0.00  0.00     0.034 C 
ATOM     17 CL   UNL d   1      -0.096  -5.058   4.070  0.00  0.00    -0.084 Cl
ATOM     18  C   UNL d   1       1.875  -3.259   3.671  0.00  0.00     0.026 C 
ATOM     19  C   UNL d   1       2.499  -2.237   2.956  0.00  0.00     0.031 C 
ENDBRANCH  10  13
ENDBRANCH   1   7
BRANCH   6  20
ATOM     20  N   UNL d   1       4.444  -1.521  -1.089  0.00  0.00    -0.379 N 
ATOM     21  C   UNL d   1       4.382  -2.434   0.047  0.00  0.00     0.123 C 
ATOM     22  C   UNL d   1       4.943  -3.811  -0.157  0.00  0.00     0.020 C 
ATOM     23  C   UNL d   1       4.009  -4.664  -1.012  0.00  0.00     0.002 C 
ATOM     24  C   UNL d   1       3.661  -4.040  -2.365  0.00  0.00     0.002 C 
ATOM     25  C   UNL d   1       2.701  -2.856  -2.292  0.00  0.00     0.020 C 
ATOM     26  C   UNL d   1       3.403  -1.518  -2.119  0.00  0.00     0.123 C 
ENDBRANCH   6  20
BRANCH   3  27
ATOM     27  N   UNL d   1       7.268   3.367  -0.876  0.00  0.00    -0.323 N 
ATOM     28  C   UNL d   1       8.605   3.415  -1.278  0.00  0.00     0.256 C 
ATOM     29  O   UNL d   1       9.343   2.450  -1.518  0.00  0.00    -0.267 OA
ATOM     30  H   UNL d   1       6.759   4.243  -0.824  0.00  0.00     0.169 HD
BRANCH  28  31
ATOM     31  C   UNL d   1       9.261   4.726  -1.452  0.00  0.00     0.032 A 
ATOM     32  C   UNL d   1      10.233   4.857  -2.463  0.00  0.00     0.017 A 
ATOM     33  C   UNL d   1      11.048   5.987  -2.515  0.00  0.00     0.001 A 
ATOM     34  C   UNL d   1      10.852   7.016  -1.598  0.00  0.00     0.000 A 
ATOM     35  C   UNL d   1       9.880   6.894  -0.601  0.00  0.00     0.001 A 
ATOM     36  C   UNL d   1       9.089   5.745  -0.516  0.00  0.00     0.017 A 
ENDBRANCH  28  31
ENDBRANCH   3  27
TORSDOF 5
