REMARK  3 active torsions:
REMARK  status: ('A' for Active; 'I' for Inactive)
REMARK    1  A    between atoms: C_4  and  C_5 
REMARK       I    between atoms: C_5  and  N_7 
REMARK    2  A    between atoms: N_7  and  C_8 
REMARK    3  A    between atoms: C_11  and  C_12 
ROOT
ATOM      1  C   UNL d   1       0.867  -3.318  -0.019  0.00  0.00     0.258 C 
ATOM      2  O   UNL d   1      -0.225  -3.896  -0.043  0.00  0.00    -0.267 OA
ATOM      3  N   UNL d   1       2.077  -4.016   0.031  0.00  0.00    -0.323 N 
ATOM      4  H   UNL d   1       2.923  -3.514   0.259  0.00  0.00     0.169 HD
ENDROOT
BRANCH   3   5
ATOM      5  C   UNL d   1       2.137  -5.435  -0.059  0.00  0.00     0.035 A 
ATOM      6  C   UNL d   1       3.040  -6.184   0.705  0.00  0.00     0.030 A 
ATOM      7  C   UNL d   1       3.068  -7.593   0.596  0.00  0.00     0.016 A 
ATOM      8  C   UNL d   1       2.189  -8.262  -0.266  0.00  0.00    -0.005 A 
ATOM      9  C   UNL d   1       1.328  -7.505  -1.063  0.00  0.00     0.016 A 
ATOM     10  C   UNL d   1       1.302  -6.111  -0.954  0.00  0.00     0.030 A 
BRANCH   8  11
ATOM     11  C   UNL d   1       2.143  -9.721  -0.337  0.00  0.00     0.088 A 
ATOM     12  C   UNL d   1       2.317 -10.527  -1.493  0.00  0.00     0.053 A 
ATOM     13  C   UNL d   1       2.139 -11.823  -1.072  0.00  0.00     0.111 A 
ATOM     14  N   UNL d   1       1.856 -11.742   0.258  0.00  0.00    -0.289 N 
ATOM     15  N   UNL d   1       1.877 -10.485   0.736  0.00  0.00    -0.175 NA
ATOM     16  H   UNL d   1       1.647 -12.501   0.899  0.00  0.00     0.188 HD
ENDBRANCH   8  11
ENDBRANCH   3   5
BRANCH   1  17
ATOM     17  C   UNL d   1       0.910  -1.846   0.002  0.00  0.00     0.060 A 
ATOM     18  C   UNL d   1       2.015  -1.006   0.008  0.00  0.00     0.108 A 
ATOM     19  N   UNL d   1       1.579   0.299   0.003  0.00  0.00    -0.359 N 
ATOM     20  C   UNL d   1       2.433   1.468  -0.041  0.00  0.00     0.156 C 
ATOM     21  C   UNL d   1       0.203   0.352   0.013  0.00  0.00     0.045 A 
ATOM     22  C   UNL d   1      -0.679   1.450   0.024  0.00  0.00     0.030 A 
ATOM     23  C   UNL d   1      -0.247  -0.970  -0.001  0.00  0.00     0.008 A 
ATOM     24  C   UNL d   1      -2.053   1.199   0.004  0.00  0.00     0.002 A 
ATOM     25  C   UNL d   1      -2.534  -0.104  -0.021  0.00  0.00     0.001 A 
ATOM     26  C   UNL d   1      -1.647  -1.188  -0.019  0.00  0.00     0.015 A 
ENDBRANCH   1  17
TORSDOF 3
