@<TRIPOS>MOLECULE
*****
 30 31 0 0 0
SMALL
GASTEIGER

@<TRIPOS>ATOM
      1 C           2.4955   -0.0472    0.0214 C.3     1  UNL1       -0.0397
      2 C           1.0000   -0.0787    0.1029 C.ar    1  UNL1       -0.0487
      3 C           0.2574   -1.2511    0.0191 C.ar    1  UNL1       -0.0587
      4 C          -1.1408   -1.1933    0.0118 C.ar    1  UNL1       -0.0598
      5 C          -1.8071    0.0410    0.0262 C.ar    1  UNL1       -0.0405
      6 C          -1.0670    1.2215    0.0907 C.ar    1  UNL1        0.0339
      7 N          -1.7134    2.4786    0.0077 N.am    1  UNL1       -0.2815
      8 C          -1.1053    3.7251   -0.0567 C.2     1  UNL1        0.2483
      9 O          -1.5495    4.6655    0.6075 O.2     1  UNL1       -0.2699
     10 C           0.0382    3.9636   -1.0101 C.ar    1  UNL1        0.0386
     11 C           0.8024    5.1368   -0.9272 C.ar    1  UNL1       -0.0461
     12 C           1.8981    5.3318   -1.7871 C.ar    1  UNL1       -0.0180
     13 C           2.2588    4.3354   -2.6976 C.ar    1  UNL1        0.1351
     14 O           3.3354    4.4897   -3.5239 O.3     1  UNL1       -0.5053
     15 C           1.5067    3.1690   -2.7822 C.ar    1  UNL1        0.0830
     16 CL          1.9580    1.8573   -3.8086 Cl      1  UNL1       -0.0797
     17 C           0.3681    3.0243   -1.9981 C.ar    1  UNL1       -0.0277
     18 C           0.3219    1.1325    0.2177 C.ar    1  UNL1       -0.0376
     19 H           2.9204   -1.0529    0.0134 H       1  UNL1        0.0278
     20 H           2.9033    0.4979    0.8785 H       1  UNL1        0.0278
     21 H           2.8112    0.4639   -0.8969 H       1  UNL1        0.0278
     22 H           0.7615   -2.2126   -0.0333 H       1  UNL1        0.0620
     23 H          -1.7090   -2.1197   -0.0286 H       1  UNL1        0.0618
     24 H          -2.8923    0.0526   -0.0373 H       1  UNL1        0.0636
     25 H          -2.7017    2.5033    0.2327 H       1  UNL1        0.1551
     26 H           0.5487    5.9066   -0.1983 H       1  UNL1        0.0626
     27 H           2.4630    6.2577   -1.7230 H       1  UNL1        0.0655
     28 H           3.7013    5.3827   -3.4333 H       1  UNL1        0.2922
     29 H          -0.2162    2.1193   -2.1240 H       1  UNL1        0.0641
     30 H           0.9279    2.0230    0.3458 H       1  UNL1        0.0639
@<TRIPOS>BOND
     1     1     2    1
     2     2     3   ar
     3     3     4   ar
     4     4     5   ar
     5     5     6   ar
     6     6     7    1
     7     7     8   am
     8     8     9    2
     9     8    10    1
    10    10    11   ar
    11    11    12   ar
    12    12    13   ar
    13    13    14    1
    14    13    15   ar
    15    15    16    1
    16    15    17   ar
    17    10    17   ar
    18     6    18   ar
    19     2    18   ar
    20     1    19    1
    21     1    20    1
    22     1    21    1
    23     3    22    1
    24     4    23    1
    25     5    24    1
    26     7    25    1
    27    11    26    1
    28    12    27    1
    29    14    28    1
    30    17    29    1
    31    18    30    1
