@<TRIPOS>MOLECULE
*****
 63 67 0 0 0
SMALL
GASTEIGER

@<TRIPOS>ATOM
      1 O           1.0175    0.2322    0.0916 O.2     1  UNL1       -0.2749
      2 C           2.2410    0.1410   -0.0250 C.2     1  UNL1        0.2234
      3 C           2.9832   -0.5609   -1.1691 C.3     1  UNL1        0.0776
      4 S           1.8370   -0.9011   -2.5453 S.3     1  UNL1       -0.0768
      5 C           2.6790   -2.2133   -3.3058 C.ar    1  UNL1        0.1903
      6 N           3.4883   -1.7731   -4.2251 N.ar    1  UNL1       -0.2218
      7 C           4.0094   -2.6236   -5.1986 C.ar    1  UNL1        0.0791
      8 C           4.6728   -2.0368   -6.3033 C.ar    1  UNL1       -0.0355
      9 C           5.0030   -2.7815   -7.4397 C.ar    1  UNL1       -0.0597
     10 C           4.7369   -4.1486   -7.4458 C.ar    1  UNL1       -0.0609
     11 C           4.1307   -4.7565   -6.3174 C.ar    1  UNL1       -0.0473
     12 C           3.7329   -3.9847   -5.1931 C.ar    1  UNL1        0.0665
     13 C           2.9309   -4.5126   -4.0092 C.ar    1  UNL1        0.2796
     14 O           2.7174   -5.7202   -3.9233 O.2     1  UNL1       -0.2653
     15 N           2.4126   -3.5702   -3.0637 N.ar    1  UNL1       -0.1994
     16 N           1.4509   -4.2400   -1.9018 N.am    1  UNL1       -0.2180
     17 C           1.0855   -3.6617   -0.6500 C.2     1  UNL1        0.2315
     18 O           1.3600   -2.5183   -0.3867 O.2     1  UNL1       -0.2741
     19 C           0.2839   -4.4510    0.5606 C.3     1  UNL1        0.0296
     20 C          -0.0233   -3.3697    1.8270 C.3     1  UNL1       -0.0174
     21 C          -1.1087   -3.5872    3.2511 C.ar    1  UNL1       -0.0219
     22 C          -2.0375   -2.7285    2.5860 C.ar    1  UNL1        0.0059
     23 N          -3.1626   -3.3015    3.0788 N.ar    1  UNL1       -0.3604
     24 C          -3.1015   -2.5153    4.1849 C.ar    1  UNL1        0.0467
     25 C          -3.6919   -1.2736    4.4485 C.ar    1  UNL1       -0.0378
     26 C          -3.6542   -0.7748    5.7187 C.ar    1  UNL1       -0.0598
     27 C          -3.0627   -1.6453    6.6134 C.ar    1  UNL1       -0.0611
     28 C          -2.1643   -2.7646    6.1359 C.ar    1  UNL1       -0.0523
     29 C          -1.8352   -2.8965    4.6938 C.ar    1  UNL1        0.0028
     30 N           2.9807    0.7271    0.9622 N.am    1  UNL1       -0.3122
     31 C           4.4210    0.7829    1.0759 C.3     1  UNL1        0.0379
     32 C           4.8980    1.6701    2.2272 C.3     1  UNL1        0.0742
     33 C           4.4836    3.1262    2.0682 C.3     1  UNL1       -0.0231
     34 C           5.6063    3.8662    2.7461 C.3     1  UNL1       -0.0271
     35 C           6.8068    2.9961    2.4472 C.3     1  UNL1        0.0482
     36 O           6.3348    1.6542    2.2776 O.3     1  UNL1       -0.3750
     37 H           3.4085   -1.4995   -0.7969 H       1  UNL1        0.0475
     38 H           3.8113    0.0626   -1.5182 H       1  UNL1        0.0475
     39 H           4.8749   -0.9654   -6.3010 H       1  UNL1        0.0639
     40 H           5.4306   -2.2876   -8.3157 H       1  UNL1        0.0618
     41 H           4.9827   -4.7270   -8.3406 H       1  UNL1        0.0618
     42 H           3.9379   -5.8279   -6.3593 H       1  UNL1        0.0626
     43 H           1.4212   -5.2457   -2.0555 H       1  UNL1        0.1758
     44 H           0.8799   -5.2996    0.9018 H       1  UNL1        0.0362
     45 H          -0.6657   -4.8329    0.1563 H       1  UNL1        0.0362
     46 H          -0.6299   -2.7102    1.1577 H       1  UNL1        0.0318
     47 H           0.8371   -2.7487    2.0999 H       1  UNL1        0.0318
     48 H          -1.9186   -1.6228    2.4980 H       1  UNL1        0.0810
     49 H          -3.1886   -4.3135    3.1592 H       1  UNL1        0.1653
     50 H          -4.2333   -0.8002    3.6482 H       1  UNL1        0.0638
     51 H          -4.2572    0.1064    5.9562 H       1  UNL1        0.0618
     52 H          -3.4079   -1.5600    7.6550 H       1  UNL1        0.0618
     53 H          -2.0140   -3.5025    6.9261 H       1  UNL1        0.0624
     54 H           2.3910    1.1352    1.6791 H       1  UNL1        0.1488
     55 H           4.8308    1.1518    0.1291 H       1  UNL1        0.0487
     56 H           4.7977   -0.2398    1.1922 H       1  UNL1        0.0487
     57 H           4.5364    1.2807    3.1872 H       1  UNL1        0.0611
     58 H           3.5043    3.3360    2.5099 H       1  UNL1        0.0291
     59 H           4.4446    3.4115    1.0104 H       1  UNL1        0.0291
     60 H           5.4304    3.9096    3.8267 H       1  UNL1        0.0288
     61 H           5.7286    4.8895    2.3802 H       1  UNL1        0.0288
     62 H           7.5475    3.0222    3.2512 H       1  UNL1        0.0560
     63 H           7.2938    3.2967    1.5140 H       1  UNL1        0.0560
@<TRIPOS>BOND
     1     1     2    2
     2     2     3    1
     3     3     4    1
     4     4     5    1
     5     5     6   ar
     6     6     7   ar
     7     7     8   ar
     8     8     9   ar
     9     9    10   ar
    10    10    11   ar
    11    11    12   ar
    12     7    12   ar
    13    12    13   ar
    14    13    14    2
    15    13    15   ar
    16     5    15   ar
    17    15    16    1
    18    16    17   am
    19    17    18    2
    20    17    19    1
    21    19    20    1
    22    20    21    1
    23    21    22   ar
    24    22    23   ar
    25    23    24   ar
    26    24    25   ar
    27    25    26   ar
    28    26    27   ar
    29    27    28   ar
    30    28    29   ar
    31    21    29   ar
    32    24    29   ar
    33     2    30   am
    34    30    31    1
    35    31    32    1
    36    32    33    1
    37    33    34    1
    38    34    35    1
    39    35    36    1
    40    32    36    1
    41     3    37    1
    42     3    38    1
    43     8    39    1
    44     9    40    1
    45    10    41    1
    46    11    42    1
    47    16    43    1
    48    19    44    1
    49    19    45    1
    50    20    46    1
    51    20    47    1
    52    22    48    1
    53    23    49    1
    54    25    50    1
    55    26    51    1
    56    27    52    1
    57    28    53    1
    58    30    54    1
    59    31    55    1
    60    31    56    1
    61    32    57    1
    62    33    58    1
    63    33    59    1
    64    34    60    1
    65    34    61    1
    66    35    62    1
    67    35    63    1
