@<TRIPOS>MOLECULE
*****
 55 58 0 0 0
SMALL
GASTEIGER

@<TRIPOS>ATOM
      1 C           1.0501    0.0645    0.0880 C.3     1  UNL1        0.0124
      2 C           2.5679    0.1081    0.0163 C.2     1  UNL1        0.2126
      3 O           3.2376   -0.9262    0.0464 O.2     1  UNL1       -0.2759
      4 N           3.1029    1.3560   -0.2333 N.am    1  UNL1       -0.2987
      5 C           4.3538    1.5901   -0.9785 C.3     1  UNL1        0.0304
      6 C           4.1453    2.7310   -2.0283 C.3     1  UNL1        0.0281
      7 N           3.5271    3.9311   -1.4288 N.pl3   1  UNL1       -0.3258
      8 C           4.1619    5.1607   -1.4217 C.ar    1  UNL1        0.0484
      9 C           4.3581    5.9208   -2.5996 C.ar    1  UNL1       -0.0375
     10 C           4.9209    7.2550   -2.6049 C.ar    1  UNL1       -0.0387
     11 C           5.3270    7.8698   -1.4134 C.ar    1  UNL1        0.0341
     12 N           5.8993    9.2259   -1.3134 N.am    1  UNL1       -0.2965
     13 C           6.3352    9.8965   -0.1161 C.2     1  UNL1        0.1411
     14 S           6.2897    9.2655    1.4523 S.2     1  UNL1       -0.0182
     15 N           6.8450   11.2090   -0.2830 N.am    1  UNL1       -0.2636
     16 C           7.3516   11.9841    0.7948 C.2     1  UNL1        0.2496
     17 O           7.3833   11.6784    1.9902 O.2     1  UNL1       -0.2698
     18 C           7.9274   13.3129    0.6035 C.ar    1  UNL1        0.0408
     19 C           9.0637   13.6356    1.3807 C.ar    1  UNL1       -0.0459
     20 C           9.5774   14.9269    1.3847 C.ar    1  UNL1       -0.0156
     21 C           8.9349   15.9045    0.6366 C.ar    1  UNL1        0.1621
     22 C           7.7819   15.5885   -0.1017 C.ar    1  UNL1        0.1628
     23 C           7.2579   14.2973   -0.1053 C.ar    1  UNL1       -0.0042
     24 O           7.0933   16.5127   -0.8424 O.3     1  UNL1       -0.4849
     25 C           7.8994   17.6642   -1.1031 C.3     1  UNL1        0.1237
     26 C           8.5954   18.1459    0.1588 C.3     1  UNL1        0.1237
     27 O           9.4921   17.1552    0.6671 O.3     1  UNL1       -0.4849
     28 C           5.1398    7.0623   -0.3001 C.ar    1  UNL1       -0.0204
     29 C           4.5988    5.7791   -0.2660 C.ar    1  UNL1        0.0637
     30 CL          4.5925    5.0595    1.3112 Cl      1  UNL1       -0.0816
     31 C           2.3738    3.6779   -0.5371 C.3     1  UNL1        0.0281
     32 C           2.6326    2.5424    0.4617 C.3     1  UNL1        0.0304
     33 H           0.7077   -0.9543    0.2891 H       1  UNL1        0.0323
     34 H           0.6482    0.3722   -0.8843 H       1  UNL1        0.0323
     35 H           0.6329    0.7041    0.8668 H       1  UNL1        0.0323
     36 H           4.6843    0.6713   -1.4751 H       1  UNL1        0.0480
     37 H           5.1280    1.8856   -0.2588 H       1  UNL1        0.0480
     38 H           3.4421    2.3696   -2.7882 H       1  UNL1        0.0479
     39 H           5.0878    2.9660   -2.5346 H       1  UNL1        0.0479
     40 H           4.0236    5.4909   -3.5442 H       1  UNL1        0.0637
     41 H           5.0011    7.7588   -3.5668 H       1  UNL1        0.0637
     42 H           5.9802    9.7070   -2.2046 H       1  UNL1        0.1538
     43 H           6.9180   11.6050   -1.2095 H       1  UNL1        0.1568
     44 H           9.5181   12.8831    2.0288 H       1  UNL1        0.0626
     45 H          10.4502   15.1681    1.9862 H       1  UNL1        0.0655
     46 H           6.3182   14.0911   -0.6039 H       1  UNL1        0.0663
     47 H           7.2360   18.4444   -1.4859 H       1  UNL1        0.0731
     48 H           8.6227   17.4103   -1.8877 H       1  UNL1        0.0731
     49 H           7.8741   18.3963    0.9455 H       1  UNL1        0.0731
     50 H           9.1860   19.0399   -0.0635 H       1  UNL1        0.0731
     51 H           5.4051    7.3587    0.6832 H       1  UNL1        0.0651
     52 H           1.5475    3.3639   -1.1851 H       1  UNL1        0.0479
     53 H           2.0359    4.5751   -0.0084 H       1  UNL1        0.0479
     54 H           1.7458    2.3462    1.0637 H       1  UNL1        0.0480
     55 H           3.4181    2.7792    1.1837 H       1  UNL1        0.0480
@<TRIPOS>BOND
     1     1     2    1
     2     2     3    2
     3     2     4   am
     4     4     5    1
     5     5     6    1
     6     6     7    1
     7     7     8    1
     8     8     9   ar
     9     9    10   ar
    10    10    11   ar
    11    11    12    1
    12    12    13    1
    13    13    14    2
    14    13    15    1
    15    15    16   am
    16    16    17    2
    17    16    18    1
    18    18    19   ar
    19    19    20   ar
    20    20    21   ar
    21    21    22   ar
    22    22    23   ar
    23    18    23   ar
    24    22    24    1
    25    24    25    1
    26    25    26    1
    27    26    27    1
    28    21    27    1
    29    11    28   ar
    30    28    29   ar
    31     8    29   ar
    32    29    30    1
    33     7    31    1
    34    31    32    1
    35     4    32    1
    36     1    33    1
    37     1    34    1
    38     1    35    1
    39     5    36    1
    40     5    37    1
    41     6    38    1
    42     6    39    1
    43     9    40    1
    44    10    41    1
    45    12    42    1
    46    15    43    1
    47    19    44    1
    48    20    45    1
    49    23    46    1
    50    25    47    1
    51    25    48    1
    52    26    49    1
    53    26    50    1
    54    28    51    1
    55    31    52    1
    56    31    53    1
    57    32    54    1
    58    32    55    1
