REMARK  7 active torsions:
REMARK  status: ('A' for Active; 'I' for Inactive)
REMARK    1  A    between atoms: C_2  and  C_4 
REMARK    2  A    between atoms: C_6  and  C_7 
REMARK       I    between atoms: C_7  and  N_9 
REMARK    3  A    between atoms: N_9  and  N_10 
REMARK       I    between atoms: N_10  and  C_11 
REMARK       I    between atoms: C_11  and  N_13 
REMARK    4  A    between atoms: N_13  and  C_14 
REMARK    5  A    between atoms: C_14  and  C_15 
REMARK    6  A    between atoms: C_15  and  C_16 
REMARK    7  A    between atoms: C_16  and  N_17 
ROOT
ATOM      1  C   UNL d   1       4.371  -1.147  -4.578  0.00  0.00     0.271 C 
ATOM      2  O   UNL d   1       4.441  -2.324  -4.200  0.00  0.00    -0.266 OA
ATOM      3  N   UNL d   1       4.724  -0.818  -5.876  0.00  0.00    -0.262 N 
ATOM      4  H   UNL d   1       4.582   0.076  -6.297  0.00  0.00     0.190 HD
ENDROOT
BRANCH   3   5
ATOM      5  N   UNL d   1       5.208  -1.710  -6.857  0.00  0.00    -0.249 N 
ATOM      6  C   UNL d   1       5.521  -1.135  -8.085  0.00  0.00     0.334 C 
ATOM      7  O   UNL d   1       5.393   0.072  -8.299  0.00  0.00    -0.246 OA
ATOM      8  N   UNL d   1       5.977  -2.006  -9.039  0.00  0.00    -0.342 N 
ATOM      9  H   UNL d   1       6.043  -2.981  -8.786  0.00  0.00     0.164 HD
ATOM     10  H   UNL d   1       5.271  -2.689  -6.608  0.00  0.00     0.192 HD
BRANCH   8  11
ATOM     11  C   UNL d   1       6.356  -1.548 -10.378  0.00  0.00     0.126 C 
BRANCH  11  12
ATOM     12  C   UNL d   1       6.819  -2.703 -11.254  0.00  0.00     0.040 C 
BRANCH  12  13
ATOM     13  C   UNL d   1       7.217  -2.302 -12.679  0.00  0.00     0.130 C 
BRANCH  13  14
ATOM     14  N   UNL d   1       7.601  -3.478 -13.502  0.00  0.00    -0.352 N 
ATOM     15  C   UNL d   1       7.305  -4.812 -13.225  0.00  0.00     0.108 A 
ATOM     16  C   UNL d   1       7.745  -5.556 -14.276  0.00  0.00     0.106 A 
ATOM     17  N   UNL d   1       8.322  -4.673 -15.151  0.00  0.00    -0.361 N 
ATOM     18  C   UNL d   1       8.252  -3.421 -14.680  0.00  0.00     0.182 A 
ATOM     19  H   UNL d   1       8.744  -4.930 -16.041  0.00  0.00     0.166 HD
ENDBRANCH  13  14
ENDBRANCH  12  13
ENDBRANCH  11  12
ENDBRANCH   8  11
ENDBRANCH   3   5
BRANCH   1  20
ATOM     20  C   UNL d   1       3.876  -0.054  -3.601  0.00  0.00     0.048 A 
ATOM     21  C   UNL d   1       3.502  -0.513  -2.321  0.00  0.00     0.045 A 
ATOM     22  C   UNL d   1       3.007   0.364  -1.349  0.00  0.00     0.039 A 
ATOM     23  N   UNL d   1       2.886   1.685  -1.600  0.00  0.00    -0.252 NA
ATOM     24  C   UNL d   1       3.232   2.163  -2.805  0.00  0.00     0.068 A 
ATOM     25  C   UNL d   1       3.070   3.534  -3.019  0.00  0.00     0.032 A 
ATOM     26  C   UNL d   1       3.742   1.347  -3.850  0.00  0.00     0.008 A 
ATOM     27  C   UNL d   1       3.385   4.147  -4.232  0.00  0.00     0.002 A 
ATOM     28  C   UNL d   1       3.889   3.382  -5.250  0.00  0.00     0.001 A 
ATOM     29  C   UNL d   1       4.077   2.027  -5.042  0.00  0.00     0.015 A 
BRANCH  22  30
ATOM     30  C   UNL d   1       2.515  -0.097   0.021  0.00  0.00     0.029 C 
ATOM     31  C   UNL d   1       0.983  -0.057   0.068  0.00  0.00     0.016 C 
ATOM     32  C   UNL d   1       3.002  -1.496   0.404  0.00  0.00     0.016 C 
ENDBRANCH  22  30
ENDBRANCH   1  20
TORSDOF 7
