@<TRIPOS>MOLECULE
*****
 68 70 0 0 0
SMALL
GASTEIGER

@<TRIPOS>ATOM
      1 O           1.1976   -0.1221    0.3190 O.2     1  UNL1       -0.2754
      2 C           2.3879   -0.4363    0.2481 C.2     1  UNL1        0.2190
      3 C           2.9868   -1.0784   -1.0103 C.3     1  UNL1        0.0344
      4 C           2.0124   -1.4668   -2.1272 C.3     1  UNL1        0.0532
      5 C           2.8347   -1.8082   -3.3766 C.2     1  UNL1        0.3075
      6 O           4.0737   -1.7253   -3.4338 O.2     1  UNL1       -0.2508
      7 O           2.0703   -2.1466   -4.4461 O.3     1  UNL1       -0.4646
      8 C           2.8385   -2.5361   -5.6077 C.3     1  UNL1        0.0928
      9 C           1.8879   -2.9827   -6.7100 C.3     1  UNL1       -0.0146
     10 C           2.6443   -3.4876   -7.9444 C.3     1  UNL1       -0.0246
     11 C           1.6871   -3.9739   -9.0047 C.ar    1  UNL1       -0.0472
     12 C           0.8201   -3.0836   -9.6533 C.ar    1  UNL1       -0.0586
     13 C          -0.1630   -3.5634  -10.5192 C.ar    1  UNL1       -0.0615
     14 C          -0.2267   -4.9231  -10.8175 C.ar    1  UNL1       -0.0617
     15 C           0.6613   -5.8106  -10.2136 C.ar    1  UNL1       -0.0615
     16 C           1.6073   -5.3399   -9.3036 C.ar    1  UNL1       -0.0586
     17 N           3.2584   -0.0518    1.2895 N.am    1  UNL1       -0.2676
     18 C           4.6259   -0.3344    1.5841 C.2     1  UNL1        0.1409
     19 S           5.5405   -1.5547    0.8637 S.2     1  UNL1       -0.0182
     20 N           5.2060    0.6710    2.3959 N.am    1  UNL1       -0.2937
     21 C           6.6150    0.9444    2.3785 C.ar    1  UNL1        0.0748
     22 C           7.3535    0.6252    3.5338 C.ar    1  UNL1       -0.0369
     23 C           8.7455    0.7865    3.5651 C.ar    1  UNL1       -0.0598
     24 C           9.4208    1.2203    2.4292 C.ar    1  UNL1       -0.0582
     25 C           8.6975    1.5642    1.2855 C.ar    1  UNL1       -0.0181
     26 C           7.2946    1.4689    1.2484 C.ar    1  UNL1        0.1416
     27 O           6.7722    1.9665    0.0674 O.3     1  UNL1       -0.4901
     28 C           5.3622    2.0145   -0.0447 C.3     1  UNL1        0.0900
     29 C           4.8350    2.2769   -1.4326 C.3     1  UNL1       -0.0146
     30 C           3.3058    2.2088   -1.4333 C.3     1  UNL1       -0.0246
     31 C           2.7536    2.4418   -2.7940 C.ar    1  UNL1       -0.0472
     32 C           2.7560    3.7298   -3.2616 C.ar    1  UNL1       -0.0586
     33 C           2.1725    4.0037   -4.4862 C.ar    1  UNL1       -0.0615
     34 C           1.6132    2.9891   -5.2719 C.ar    1  UNL1       -0.0617
     35 C           1.6438    1.6822   -4.8362 C.ar    1  UNL1       -0.0615
     36 C           2.2664    1.4357   -3.6270 C.ar    1  UNL1       -0.0586
     37 H           3.5044   -1.9881   -0.7424 H       1  UNL1        0.0364
     38 H           3.7465   -0.4017   -1.4271 H       1  UNL1        0.0364
     39 H           1.2908   -0.6630   -2.3221 H       1  UNL1        0.0382
     40 H           1.4240   -2.3265   -1.8157 H       1  UNL1        0.0382
     41 H           3.4972   -3.3694   -5.3343 H       1  UNL1        0.0697
     42 H           3.4493   -1.6963   -5.9663 H       1  UNL1        0.0697
     43 H           1.2257   -2.1488   -6.9743 H       1  UNL1        0.0301
     44 H           1.2298   -3.7701   -6.3205 H       1  UNL1        0.0301
     45 H           3.3118   -4.3080   -7.6499 H       1  UNL1        0.0314
     46 H           3.2853   -2.7032   -8.3645 H       1  UNL1        0.0314
     47 H           0.8893   -2.0137   -9.4695 H       1  UNL1        0.0620
     48 H          -0.8888   -2.8787  -10.9499 H       1  UNL1        0.0618
     49 H          -0.9682   -5.2907  -11.5211 H       1  UNL1        0.0618
     50 H           0.6045   -6.8732  -10.4332 H       1  UNL1        0.0618
     51 H           2.2751   -6.0482   -8.8190 H       1  UNL1        0.0620
     52 H           2.7765    0.5678    1.9321 H       1  UNL1        0.1565
     53 H           4.6999    1.0151    3.2039 H       1  UNL1        0.1539
     54 H           6.8728    0.1665    4.3944 H       1  UNL1        0.0637
     55 H           9.3096    0.5486    4.4651 H       1  UNL1        0.0618
     56 H          10.5070    1.2918    2.4296 H       1  UNL1        0.0619
     57 H           9.2346    1.9206    0.4086 H       1  UNL1        0.0655
     58 H           4.9105    2.6593    0.7190 H       1  UNL1        0.0696
     59 H           5.0209    1.0121    0.0345 H       1  UNL1        0.0696
     60 H           5.2370    1.5033   -2.1027 H       1  UNL1        0.0301
     61 H           5.1938    3.2380   -1.7949 H       1  UNL1        0.0301
     62 H           2.8626    2.8813   -0.6875 H       1  UNL1        0.0314
     63 H           2.9080    1.2650   -1.1198 H       1  UNL1        0.0314
     64 H           3.2429    4.4928   -2.6644 H       1  UNL1        0.0620
     65 H           2.1574    5.0305   -4.8179 H       1  UNL1        0.0618
     66 H           1.1913    3.2164   -6.2418 H       1  UNL1        0.0618
     67 H           1.2284    0.8611   -5.4180 H       1  UNL1        0.0618
     68 H           2.4231    0.4187   -3.3773 H       1  UNL1        0.0620
@<TRIPOS>BOND
     1     1     2    2
     2     2     3    1
     3     3     4    1
     4     4     5    1
     5     5     6    2
     6     5     7    1
     7     7     8    1
     8     8     9    1
     9     9    10    1
    10    10    11    1
    11    11    12   ar
    12    12    13   ar
    13    13    14   ar
    14    14    15   ar
    15    15    16   ar
    16    11    16   ar
    17     2    17   am
    18    17    18    1
    19    18    19    2
    20    18    20    1
    21    20    21    1
    22    21    22   ar
    23    22    23   ar
    24    23    24   ar
    25    24    25   ar
    26    25    26   ar
    27    21    26   ar
    28    26    27    1
    29    27    28    1
    30    28    29    1
    31    29    30    1
    32    30    31    1
    33    31    32   ar
    34    32    33   ar
    35    33    34   ar
    36    34    35   ar
    37    35    36   ar
    38    31    36   ar
    39     3    37    1
    40     3    38    1
    41     4    39    1
    42     4    40    1
    43     8    41    1
    44     8    42    1
    45     9    43    1
    46     9    44    1
    47    10    45    1
    48    10    46    1
    49    12    47    1
    50    13    48    1
    51    14    49    1
    52    15    50    1
    53    16    51    1
    54    17    52    1
    55    20    53    1
    56    22    54    1
    57    23    55    1
    58    24    56    1
    59    25    57    1
    60    28    58    1
    61    28    59    1
    62    29    60    1
    63    29    61    1
    64    30    62    1
    65    30    63    1
    66    32    64    1
    67    33    65    1
    68    34    66    1
    69    35    67    1
    70    36    68    1
