REMARK  4 active torsions:
REMARK  status: ('A' for Active; 'I' for Inactive)
REMARK    1  A    between atoms: C_5  and  C_6 
REMARK       I    between atoms: C_6  and  N_7 
REMARK    2  A    between atoms: C_10  and  N_11 
REMARK       I    between atoms: N_11  and  C_12 
REMARK    3  A    between atoms: C_12  and  C_14 
REMARK    4  A    between atoms: C_18  and  C_19 
ROOT
ATOM      1  N   UNL d   1       1.063   2.384  -0.064  0.00  0.00    -0.322 N 
ATOM      2  C   UNL d   1       2.433   2.595  -0.181  0.00  0.00     0.256 C 
ATOM      3  O   UNL d   1       3.004   3.384   0.569  0.00  0.00    -0.267 OA
ATOM      4  H   UNL d   1       0.549   3.220   0.200  0.00  0.00     0.169 HD
ENDROOT
BRANCH   1   5
ATOM      5  C   UNL d   1       0.359   1.145   0.049  0.00  0.00     0.042 C 
ATOM      6  C   UNL d   1      -1.059   1.184   0.007  0.00  0.00     0.047 C 
ATOM      7  C   UNL d   1      -1.821  -0.009  -0.008  0.00  0.00     0.034 C 
ATOM      8  C   UNL d   1      -1.155  -1.232  -0.006  0.00  0.00     0.017 C 
ATOM      9  C   UNL d   1       0.226  -1.276   0.081  0.00  0.00     0.010 C 
ATOM     10  C   UNL d   1       0.990  -0.112   0.191  0.00  0.00    -0.035 C 
ATOM     11  C   UNL d   1       2.445  -0.357   0.471  0.00  0.00     0.050 C 
BRANCH   7  12
ATOM     12  C   UNL d   1      -3.320   0.040  -0.046  0.00  0.00     0.249 C 
ATOM     13  N   UNL d   1      -4.006  -1.156  -0.060  0.00  0.00    -0.366 N 
ATOM     14  H   UNL d   1      -3.595  -2.074  -0.050  0.00  0.00     0.159 HD
ATOM     15  H   UNL d   1      -5.016  -1.114  -0.082  0.00  0.00     0.159 HD
ATOM     16  O   UNL d   1      -3.926   1.093  -0.059  0.00  0.00    -0.268 OA
ENDBRANCH   7  12
ENDBRANCH   1   5
BRANCH   2  17
ATOM     17  C   UNL d   1       3.221   1.876  -1.255  0.00  0.00     0.033 C 
ATOM     18  C   UNL d   1       4.614   1.734  -1.100  0.00  0.00     0.017 C 
ATOM     19  C   UNL d   1       5.320   0.798  -1.873  0.00  0.00     0.002 C 
ATOM     20  C   UNL d   1       4.640  -0.040  -2.762  0.00  0.00     0.016 C 
ATOM     21  C   UNL d   1       3.251   0.073  -2.918  0.00  0.00     0.048 C 
ATOM     22  C   UNL d   1       2.567   1.099  -2.234  0.00  0.00     0.033 C 
BRANCH  21  23
ATOM     23  C   UNL d   1       2.477  -0.973  -3.688  0.00  0.00     0.417 C 
ATOM     24  F   UNL d   1       2.673  -0.875  -5.027  0.00  0.00    -0.166 F 
ATOM     25  F   UNL d   1       2.823  -2.249  -3.345  0.00  0.00    -0.166 F 
ATOM     26  F   UNL d   1       1.129  -0.906  -3.493  0.00  0.00    -0.166 F 
ENDBRANCH  21  23
ENDBRANCH   2  17
TORSDOF 4
