@<TRIPOS>MOLECULE
*****
 48 49 0 0 0
SMALL
GASTEIGER

@<TRIPOS>ATOM
      1 C           2.5001   -0.2021   -0.0115 C.3     1  UNL1       -0.0390
      2 C           1.0147   -0.0469   -0.0006 C.ar    1  UNL1       -0.0382
      3 C           0.2265   -1.2133    0.0061 C.ar    1  UNL1       -0.0564
      4 C          -1.1795   -1.1585   -0.0009 C.ar    1  UNL1       -0.0402
      5 C          -1.8334    0.0770   -0.0093 C.ar    1  UNL1        0.0342
      6 N          -3.2657    0.1486   -0.0342 N.am    1  UNL1       -0.2842
      7 C          -3.9931    1.3441   -0.0554 C.2     1  UNL1        0.2343
      8 O          -3.4991    2.4741   -0.0562 O.2     1  UNL1       -0.2738
      9 C          -5.5309    1.2534   -0.0781 C.3     1  UNL1        0.0861
     10 N          -6.0823    2.6215   -0.1134 N.pl3   1  UNL1       -0.3354
     11 C          -7.4226    2.9248   -0.1100 C.ar    1  UNL1        0.0276
     12 C          -8.3249    2.2187    0.6854 C.ar    1  UNL1       -0.0396
     13 C          -9.6985    2.4801    0.6442 C.ar    1  UNL1       -0.0426
     14 C         -10.2057    3.4470   -0.2245 C.ar    1  UNL1        0.0519
     15 C         -11.6164    3.6840   -0.2859 C.1     1  UNL1        0.0992
     16 N         -12.7689    3.8585   -0.3295 N.1     1  UNL1       -0.1909
     17 C          -9.3197    4.1649   -1.0311 C.ar    1  UNL1       -0.0426
     18 C          -7.9393    3.9100   -0.9633 C.ar    1  UNL1       -0.0396
     19 C          -1.0275    1.2257   -0.0003 C.ar    1  UNL1       -0.0281
     20 C           0.3819    1.2035   -0.0076 C.ar    1  UNL1        0.0414
     21 C           1.0547    2.5621   -0.0393 C.2     1  UNL1        0.2446
     22 O           0.3649    3.5778   -0.0759 O.2     1  UNL1       -0.2702
     23 N           2.4324    2.6396   -0.0206 N.am    1  UNL1       -0.3090
     24 C           3.2023    3.8632    0.0044 C.3     1  UNL1        0.0178
     25 C           2.8779    4.6509    1.2614 C.3     1  UNL1       -0.0469
     26 C           4.7014    3.5281   -0.0114 C.3     1  UNL1       -0.0469
     27 H           2.8447   -1.2338   -0.0092 H       1  UNL1        0.0278
     28 H           2.9097    0.2582    0.8969 H       1  UNL1        0.0278
     29 H           2.8911    0.2520   -0.9313 H       1  UNL1        0.0278
     30 H           0.7254   -2.1826    0.0085 H       1  UNL1        0.0621
     31 H          -1.7202   -2.1020   -0.0017 H       1  UNL1        0.0636
     32 H          -3.7663   -0.7338   -0.0516 H       1  UNL1        0.1549
     33 H          -5.8645    0.7230    0.8166 H       1  UNL1        0.0557
     34 H          -5.8407    0.7211   -0.9826 H       1  UNL1        0.0557
     35 H          -5.3880    3.3698   -0.1843 H       1  UNL1        0.1466
     36 H          -7.9554    1.4797    1.3894 H       1  UNL1        0.0636
     37 H         -10.3606    1.9175    1.2976 H       1  UNL1        0.0631
     38 H          -9.6920    4.9175   -1.7242 H       1  UNL1        0.0631
     39 H          -7.2722    4.4713   -1.6157 H       1  UNL1        0.0636
     40 H          -1.4769    2.2098    0.0068 H       1  UNL1        0.0644
     41 H           3.0132    1.8368   -0.0036 H       1  UNL1        0.1493
     42 H           2.9422    4.4250   -0.8978 H       1  UNL1        0.0493
     43 H           3.1249    4.0674    2.1564 H       1  UNL1        0.0247
     44 H           1.8134    4.8898    1.3178 H       1  UNL1        0.0247
     45 H           3.4364    5.5879    1.2797 H       1  UNL1        0.0247
     46 H           4.9902    2.9403    0.8707 H       1  UNL1        0.0247
     47 H           5.3012    4.4425   -0.0162 H       1  UNL1        0.0247
     48 H           4.9748    2.9336   -0.8912 H       1  UNL1        0.0247
@<TRIPOS>BOND
     1     1     2    1
     2     2     3   ar
     3     3     4   ar
     4     4     5   ar
     5     5     6    1
     6     6     7   am
     7     7     8    2
     8     7     9    1
     9     9    10    1
    10    10    11    1
    11    11    12   ar
    12    12    13   ar
    13    13    14   ar
    14    14    15    1
    15    15    16    3
    16    14    17   ar
    17    17    18   ar
    18    11    18   ar
    19     5    19   ar
    20    19    20   ar
    21     2    20   ar
    22    20    21    1
    23    21    22    2
    24    21    23   am
    25    23    24    1
    26    24    25    1
    27    24    26    1
    28     1    27    1
    29     1    28    1
    30     1    29    1
    31     3    30    1
    32     4    31    1
    33     6    32    1
    34     9    33    1
    35     9    34    1
    36    10    35    1
    37    12    36    1
    38    13    37    1
    39    17    38    1
    40    18    39    1
    41    19    40    1
    42    23    41    1
    43    24    42    1
    44    25    43    1
    45    25    44    1
    46    25    45    1
    47    26    46    1
    48    26    47    1
    49    26    48    1
