@<TRIPOS>MOLECULE
*****
 61 63 0 0 0
SMALL
GASTEIGER

@<TRIPOS>ATOM
      1 C           3.8937   -3.8437    1.3554 C.3     1  UNL1       -0.0307
      2 C           2.7290   -3.4347    0.5649 C.3     1  UNL1        0.0869
      3 O           2.4118   -4.0845   -1.2239 O.3     1  UNL1       -0.4904
      4 C           1.6324   -3.2119   -2.5945 C.ar    1  UNL1        0.1418
      5 C           0.5515   -3.8603   -3.2868 C.ar    1  UNL1       -0.0181
      6 C          -0.2840   -3.2478   -4.2200 C.ar    1  UNL1       -0.0582
      7 C          -0.0991   -1.9444   -4.5293 C.ar    1  UNL1       -0.0598
      8 C           0.9832   -1.2988   -3.9658 C.ar    1  UNL1       -0.0367
      9 C           1.7376   -1.7263   -2.8855 C.ar    1  UNL1        0.0791
     10 N           2.4466   -0.5946   -2.1096 N.am    1  UNL1       -0.2517
     11 C           2.4055    0.8225   -2.2448 C.2     1  UNL1        0.2615
     12 O           3.0511    1.5461   -1.4878 O.2     1  UNL1       -0.2689
     13 C           1.5582    1.4337   -3.2047 C.ar    1  UNL1        0.1156
     14 S           2.2107    2.3189   -4.5057 S.2     1  UNL1        0.0190
     15 N           0.7751    2.4239   -5.3625 N.ar    1  UNL1       -0.2031
     16 C          -0.1999    1.8452   -4.6377 C.ar    1  UNL1        0.1554
     17 C          -1.5587    1.6170   -5.1524 C.2     1  UNL1        0.2624
     18 N          -1.9332    2.2496   -6.2981 N.am    1  UNL1       -0.3240
     19 O          -2.3605    0.8676   -4.5932 O.2     1  UNL1       -0.2687
     20 C           0.1977    1.3392   -3.3444 C.ar    1  UNL1        0.0765
     21 N          -0.6066    0.5915   -2.5255 N.pl3   1  UNL1       -0.3551
     22 C           3.2778   -0.8889   -0.9963 C.3     1  UNL1        0.1072
     23 C           4.8334   -0.9581   -1.2166 C.3     1  UNL1       -0.0282
     24 C           5.5378    0.2485   -0.7321 C.3     1  UNL1       -0.0631
     25 C           2.9198   -2.2723   -1.0573 C.2     1  UNL1        0.2342
     26 O           3.9415   -2.9919   -1.3892 O.2     1  UNL1       -0.2738
     27 N           1.2618   -2.7764   -0.4934 N.am    1  UNL1       -0.3109
     28 C           0.9156   -4.5974    0.0379 C.3     1  UNL1        0.0232
     29 C           0.2419   -5.3621   -1.0461 C.3     1  UNL1       -0.0345
     30 C           0.2672   -6.8530   -0.9704 C.3     1  UNL1       -0.0513
     31 C           1.5801   -7.2033   -0.3149 C.3     1  UNL1       -0.0513
     32 C           2.2071   -5.8879    0.1257 C.3     1  UNL1       -0.0345
     33 H           3.9764   -3.0975    2.1597 H       1  UNL1        0.0262
     34 H           4.7572   -3.8932    0.7209 H       1  UNL1        0.0262
     35 H           3.5292   -4.7436    1.7842 H       1  UNL1        0.0262
     36 H           2.8350   -2.3004    0.7161 H       1  UNL1        0.0694
     37 H           1.8165   -3.2749    1.2638 H       1  UNL1        0.0694
     38 H           0.1164   -4.8280   -3.1353 H       1  UNL1        0.0655
     39 H          -1.0147   -3.8499   -4.7495 H       1  UNL1        0.0619
     40 H          -0.7340   -1.4264   -5.2373 H       1  UNL1        0.0618
     41 H           1.2297   -0.3809   -4.4388 H       1  UNL1        0.0637
     42 H          -1.3054    2.8537   -6.8075 H       1  UNL1        0.1453
     43 H          -2.9007    2.1565   -6.5736 H       1  UNL1        0.1453
     44 H          -1.4262    0.1799   -2.9969 H       1  UNL1        0.1424
     45 H          -0.1844   -0.1467   -1.9607 H       1  UNL1        0.1424
     46 H           3.0336   -0.4738   -0.0243 H       1  UNL1        0.0600
     47 H           5.3267   -1.7673   -0.6249 H       1  UNL1        0.0285
     48 H           5.0440   -1.1872   -2.2734 H       1  UNL1        0.0285
     49 H           5.4544    0.3065    0.3572 H       1  UNL1        0.0230
     50 H           5.1066    1.1211   -1.1878 H       1  UNL1        0.0230
     51 H           6.5796    0.1861   -1.0373 H       1  UNL1        0.0230
     52 H           0.4952   -2.1274   -0.2398 H       1  UNL1        0.1490
     53 H           0.4882   -4.6175    1.0465 H       1  UNL1        0.0498
     54 H           0.9784   -5.3703   -1.8437 H       1  UNL1        0.0283
     55 H          -0.6978   -4.8813   -1.2596 H       1  UNL1        0.0283
     56 H           0.2492   -7.2519   -2.0000 H       1  UNL1        0.0266
     57 H          -0.6079   -7.1784   -0.4288 H       1  UNL1        0.0266
     58 H           2.2724   -7.7419   -0.9833 H       1  UNL1        0.0266
     59 H           1.4081   -7.8285    0.5598 H       1  UNL1        0.0266
     60 H           3.1111   -5.7502   -0.5107 H       1  UNL1        0.0283
     61 H           2.5952   -6.0953    1.1200 H       1  UNL1        0.0283
@<TRIPOS>BOND
     1     1     2    1
     2     2     3    1
     3     3     4    1
     4     4     5   ar
     5     5     6   ar
     6     6     7   ar
     7     7     8   ar
     8     8     9   ar
     9     4     9   ar
    10     9    10    1
    11    10    11   am
    12    11    12    2
    13    11    13    1
    14    13    14   ar
    15    14    15   ar
    16    15    16   ar
    17    16    17    1
    18    17    18   am
    19    17    19    2
    20    16    20   ar
    21    13    20   ar
    22    20    21    1
    23    23    24    1
    24    22    25    1
    25    25    26    2
    26    25    27   am
    27    27    28    1
    28    28    29    1
    29    29    30    1
    30    30    31    1
    31    31    32    1
    32    28    32    1
    33    22    23    1
    34    22    10    1
    35     1    33    1
    36     1    34    1
    37     1    35    1
    38     2    36    1
    39     2    37    1
    40     5    38    1
    41     6    39    1
    42     7    40    1
    43     8    41    1
    44    18    42    1
    45    18    43    1
    46    21    44    1
    47    21    45    1
    48    22    46    1
    49    23    47    1
    50    23    48    1
    51    24    49    1
    52    24    50    1
    53    24    51    1
    54    27    52    1
    55    28    53    1
    56    29    54    1
    57    29    55    1
    58    30    56    1
    59    30    57    1
    60    31    58    1
    61    31    59    1
    62    32    60    1
    63    32    61    1
