REMARK  8 active torsions:
REMARK  status: ('A' for Active; 'I' for Inactive)
REMARK    1  A    between atoms: C_2  and  O_3 
REMARK    2  A    between atoms: O_3  and  C_4 
REMARK    3  A    between atoms: C_9  and  N_10 
REMARK    4  A    between atoms: C_14  and  O_15 
REMARK    5  A    between atoms: C_16  and  C_17 
REMARK    6  A    between atoms: N_18  and  C_19 
REMARK    7  A    between atoms: C_19  and  C_20 
REMARK    8  A    between atoms: C_20  and  C_21 
ROOT
ATOM      1  N   UNL d   1       4.766  -1.438  -1.085  0.00  0.00    -0.228 N 
ATOM      2  C   UNL d   1       5.248  -2.144   0.041  0.00  0.00     0.357 A 
ATOM      3  O   UNL d   1       6.073  -1.695   0.795  0.00  0.00    -0.244 OA
ATOM      4  N   UNL d   1       4.672  -3.379   0.294  0.00  0.00    -0.172 NA
ATOM      5  C   UNL d   1       3.673  -3.781  -0.381  0.00  0.00     0.161 A 
ATOM      6  C   UNL d   1       2.961  -3.098  -1.512  0.00  0.00     0.195 A 
ATOM      7  C   UNL d   1       3.695  -1.834  -1.891  0.00  0.00     0.249 A 
ATOM      8  O   UNL d   1       3.316  -1.191  -2.875  0.00  0.00    -0.271 OA
ENDROOT
BRANCH   6   9
ATOM      9  C   UNL d   1       1.422  -2.873  -1.231  0.00  0.00     0.105 C 
ATOM     10  N   UNL d   1       0.468  -2.943  -2.126  0.00  0.00    -0.304 NA
BRANCH  10  11
ATOM     11  C   UNL d   1      -1.058  -2.712  -1.779  0.00  0.00     0.149 C 
BRANCH  11  12
ATOM     12  C   UNL d   1      -2.098  -3.082  -3.194  0.00  0.00     0.039 C 
BRANCH  12  13
ATOM     13  C   UNL d   1      -3.896  -2.959  -3.414  0.00  0.00     0.021 C 
ATOM     14  C   UNL d   1      -3.957  -1.611  -3.716  0.00  0.00     0.093 C 
ATOM     15  N   UNL d   1      -5.039  -1.366  -2.912  0.00  0.00    -0.285 NA
ATOM     16  C   UNL d   1      -6.053  -1.786  -3.716  0.00  0.00     0.015 A 
ATOM     17  H   UNL d   1      -5.111  -1.662  -1.952  0.00  0.00     0.128 HD
ATOM     18  C   UNL d   1      -7.208  -1.029  -3.991  0.00  0.00     0.024 A 
ATOM     19  C   UNL d   1      -5.480  -2.963  -4.263  0.00  0.00    -0.025 A 
ATOM     20  C   UNL d   1      -8.069  -1.351  -5.003  0.00  0.00     0.002 A 
ATOM     21  C   UNL d   1      -7.694  -2.458  -5.742  0.00  0.00     0.001 A 
ATOM     22  C   UNL d   1      -6.442  -3.297  -5.410  0.00  0.00     0.010 A 
ENDBRANCH  12  13
ENDBRANCH  11  12
ENDBRANCH  10  11
ENDBRANCH   6   9
BRANCH   5  23
ATOM     23  O   UNL d   1       3.165  -4.989  -0.079  0.00  0.00    -0.347 OA
ATOM     24  H   UNL d   1       3.676  -5.390   0.649  0.00  0.00     0.219 HD
ENDBRANCH   5  23
BRANCH   1  25
ATOM     25  C   UNL d   1       5.264  -0.106  -1.260  0.00  0.00     0.080 A 
ATOM     26  C   UNL d   1       6.625   0.058  -1.571  0.00  0.00     0.033 A 
ATOM     27  C   UNL d   1       7.137   1.315  -1.893  0.00  0.00     0.002 A 
ATOM     28  C   UNL d   1       6.296   2.424  -1.896  0.00  0.00     0.003 A 
ATOM     29  C   UNL d   1       4.958   2.286  -1.519  0.00  0.00     0.039 A 
ATOM     30  C   UNL d   1       4.424   1.027  -1.210  0.00  0.00     0.096 A 
BRANCH  30  31
ATOM     31  O   UNL d   1       3.073   1.036  -0.968  0.00  0.00    -0.349 OA
BRANCH  31  32
ATOM     32  C   UNL d   1       2.571   0.216   0.081  0.00  0.00     0.171 C 
ATOM     33  C   UNL d   1       1.060   0.167  -0.013  0.00  0.00     0.034 C 
ENDBRANCH  31  32
ENDBRANCH  30  31
ENDBRANCH   1  25
TORSDOF 8
