REMARK  10 active torsions:
REMARK  status: ('A' for Active; 'I' for Inactive)
REMARK    1  A    between atoms: C_5  and  N_6 
REMARK       I    between atoms: N_6  and  C_7 
REMARK    2  A    between atoms: C_18  and  N_6 
REMARK    3  A    between atoms: C_7  and  C_9 
REMARK    4  A    between atoms: C_12  and  C_13 
REMARK       I    between atoms: C_13  and  N_14 
REMARK    5  A    between atoms: C_16  and  N_17 
REMARK    6  A    between atoms: C_18  and  C_27 
REMARK    7  A    between atoms: C_18  and  C_19 
REMARK       I    between atoms: C_19  and  N_21 
REMARK    8  A    between atoms: N_21  and  C_22 
REMARK    9  A    between atoms: C_22  and  C_23 
REMARK   10  A    between atoms: C_23  and  C_24 
ROOT
ATOM      1  N   UNL d   1      -4.401   0.135  -1.370  0.00  0.00    -0.295 N 
ATOM      2  C   UNL d   1      -4.439   1.574  -1.127  0.00  0.00     0.269 C 
ATOM      3  O   UNL d   1      -4.323   1.992   0.030  0.00  0.00    -0.266 OA
ENDROOT
BRANCH   1   4
ATOM      4  C   UNL d   1      -4.263  -0.490  -2.679  0.00  0.00     0.039 C 
ATOM      5  C   UNL d   1      -4.363  -1.863  -2.891  0.00  0.00     0.030 C 
ATOM      6  C   UNL d   1      -4.391  -2.438  -4.162  0.00  0.00     0.009 C 
ATOM      7  C   UNL d   1      -4.361  -1.632  -5.288  0.00  0.00    -0.056 C 
ATOM      8  C   UNL d   1      -4.342  -2.220  -6.656  0.00  0.00     0.049 C 
ATOM      9  C   UNL d   1      -4.242  -0.263  -5.121  0.00  0.00    -0.054 C 
ATOM     10  C   UNL d   1      -4.032   0.234  -3.835  0.00  0.00     0.037 C 
ATOM     11  C   UNL d   1      -4.307   0.696  -6.269  0.00  0.00     0.049 C 
ENDBRANCH   1   4
BRANCH   1  12
ATOM     12  C   UNL d   1      -4.334  -0.806  -0.158  0.00  0.00     0.218 C 
BRANCH  12  13
ATOM     13  C   UNL d   1      -5.541  -1.801  -0.097  0.00  0.00    -0.026 A 
ATOM     14  C   UNL d   1      -5.406  -3.208  -0.116  0.00  0.00     0.013 A 
ATOM     15  C   UNL d   1      -6.469  -4.099  -0.154  0.00  0.00     0.043 A 
ATOM     16  C   UNL d   1      -7.741  -3.594  -0.224  0.00  0.00     0.116 A 
ATOM     17  F   UNL d   1      -8.765  -4.447  -0.339  0.00  0.00    -0.206 F 
ATOM     18  C   UNL d   1      -7.950  -2.218  -0.235  0.00  0.00     0.043 A 
ATOM     19  C   UNL d   1      -6.863  -1.322  -0.155  0.00  0.00     0.013 A 
ENDBRANCH  12  13
BRANCH  12  20
ATOM     20  C   UNL d   1      -2.843  -1.363  -0.090  0.00  0.00     0.245 C 
ATOM     21  O   UNL d   1      -1.885  -0.602  -0.272  0.00  0.00    -0.271 OA
ATOM     22  N   UNL d   1      -2.590  -2.710   0.142  0.00  0.00    -0.359 N 
ATOM     23  H   UNL d   1      -3.186  -3.206   0.785  0.00  0.00     0.162 HD
BRANCH  22  24
ATOM     24  C   UNL d   1      -1.246  -3.243   0.096  0.00  0.00     0.123 C 
BRANCH  24  25
ATOM     25  C   UNL d   1      -1.201  -4.765   0.305  0.00  0.00     0.023 C 
BRANCH  25  26
ATOM     26  C   UNL d   1       0.249  -5.281   0.343  0.00  0.00    -0.021 C 
ATOM     27  C   UNL d   1       1.038  -4.612   1.471  0.00  0.00     0.009 C 
ATOM     28  C   UNL d   1       0.294  -6.798   0.526  0.00  0.00     0.009 C 
ENDBRANCH  25  26
ENDBRANCH  24  25
ENDBRANCH  22  24
ENDBRANCH  12  20
ENDBRANCH   1  12
BRANCH   2  29
ATOM     29  C   UNL d   1      -4.680   2.542  -2.225  0.00  0.00     0.115 C 
ATOM     30  S   UNL d   1      -3.603   3.860  -2.509  0.00  0.00     0.019 SA
ATOM     31  N   UNL d   1      -4.201   4.297  -4.019  0.00  0.00    -0.203 NA
ATOM     32  C   UNL d   1      -5.275   3.542  -4.292  0.00  0.00     0.155 C 
ATOM     33  C   UNL d   1      -5.620   2.582  -3.246  0.00  0.00     0.065 C 
BRANCH  32  34
ATOM     34  C   UNL d   1      -5.953   3.547  -5.622  0.00  0.00     0.270 C 
ATOM     35  N   UNL d   1      -5.578   4.476  -6.561  0.00  0.00    -0.365 N 
ATOM     36  H   UNL d   1      -4.865   5.168  -6.397  0.00  0.00     0.159 HD
ATOM     37  H   UNL d   1      -6.056   4.433  -7.454  0.00  0.00     0.159 HD
ATOM     38  O   UNL d   1      -6.780   2.706  -5.949  0.00  0.00    -0.266 OA
ENDBRANCH  32  34
BRANCH  33  39
ATOM     39  N   UNL d   1      -6.604   1.653  -3.395  0.00  0.00    -0.299 NA
ATOM     40  H   UNL d   1      -6.866   1.457  -4.372  0.00  0.00     0.124 HD
ATOM     41  H   UNL d   1      -6.502   0.764  -2.909  0.00  0.00     0.124 HD
ENDBRANCH  33  39
ENDBRANCH   2  29
TORSDOF 10
