@<TRIPOS>MOLECULE
*****
 56 58 0 0 0
SMALL
GASTEIGER

@<TRIPOS>ATOM
      1 C           2.5103   -0.0757   -0.0124 C.3     1  UNL1       -0.0333
      2 C           1.0073    0.0162    0.0026 C.ar    1  UNL1        0.0266
      3 C           0.2648   -1.1774    0.0053 C.ar    1  UNL1       -0.0518
      4 C          -1.1379   -1.1596   -0.0010 C.ar    1  UNL1       -0.0505
      5 C          -1.8474    0.0512   -0.0102 C.ar    1  UNL1        0.0273
      6 C          -3.3549    0.0079   -0.0397 C.2     1  UNL1        0.2005
      7 O          -3.9061   -1.0926   -0.0519 O.2     1  UNL1       -0.2884
      8 C          -4.1505    1.3225   -0.0597 C.3     1  UNL1        0.1547
      9 O          -5.5750    1.1020   -0.0905 O.3     1  UNL1       -0.4566
     10 C          -6.3353    2.2329   -0.1065 C.2     1  UNL1        0.3079
     11 O          -5.8689    3.3724   -0.0972 O.2     1  UNL1       -0.2508
     12 C          -7.8163    1.9233   -0.1373 C.3     1  UNL1        0.0532
     13 C          -8.6816    3.2032   -0.1569 C.3     1  UNL1        0.0343
     14 C         -10.1634    2.8561   -0.1874 C.2     1  UNL1        0.2177
     15 O         -10.5248    1.6800   -0.1799 O.2     1  UNL1       -0.2755
     16 N         -11.0401    3.9371   -0.2583 N.am    1  UNL1       -0.2855
     17 C         -12.4485    3.7682   -0.2197 C.ar    1  UNL1        0.0334
     18 C         -13.3044    4.5699   -0.9790 C.ar    1  UNL1       -0.0394
     19 C         -14.7009    4.3880   -0.8949 C.ar    1  UNL1       -0.0462
     20 C         -15.2582    3.3782   -0.0902 C.ar    1  UNL1        0.0128
     21 S         -17.0162    3.0866   -0.1898 S.3     1  UNL1       -0.0894
     22 C         -17.4245    1.7781    0.9585 C.ar    1  UNL1        0.0128
     23 C         -18.1913    0.6892    0.5180 C.ar    1  UNL1       -0.0466
     24 C         -18.7420   -0.2119    1.4390 C.ar    1  UNL1       -0.0423
     25 C         -18.4447   -0.0866    2.7938 C.ar    1  UNL1        0.0410
     26 CL        -19.0538   -1.2377    3.9176 Cl      1  UNL1       -0.0835
     27 C         -17.6444    0.9606    3.2408 C.ar    1  UNL1       -0.0423
     28 C         -17.1575    1.9011    2.3278 C.ar    1  UNL1       -0.0466
     29 C         -14.3908    2.6113    0.6807 C.ar    1  UNL1       -0.0462
     30 C         -13.0107    2.8071    0.6191 C.ar    1  UNL1       -0.0394
     31 C          -1.1212    1.2475   -0.0007 C.ar    1  UNL1        0.0264
     32 C           0.2969    1.2365    0.0033 C.ar    1  UNL1        0.2767
     33 N           0.9854    2.5517   -0.0002 N.pl3   1  UNL1        0.0799
     34 O           0.2706    3.5636   -0.0062 O.2     1  UNL1        0.0415
     35 O           2.2215    2.5886    0.0021 O.co2   1  UNL1       -0.5760
     36 H           2.8647   -1.1112   -0.0039 H       1  UNL1        0.0280
     37 H           2.9291    0.4093    0.8755 H       1  UNL1        0.0280
     38 H           2.9043    0.3883   -0.9231 H       1  UNL1        0.0280
     39 H           0.7738   -2.1426    0.0067 H       1  UNL1        0.0622
     40 H          -1.6725   -2.1108   -0.0032 H       1  UNL1        0.0625
     41 H          -3.8609    1.8800   -0.9578 H       1  UNL1        0.0782
     42 H          -3.9002    1.8828    0.8483 H       1  UNL1        0.0782
     43 H          -8.0669    1.3224    0.7460 H       1  UNL1        0.0382
     44 H          -8.0298    1.3233   -1.0308 H       1  UNL1        0.0382
     45 H          -8.4369    3.8052   -1.0390 H       1  UNL1        0.0364
     46 H          -8.4770    3.8038    0.7370 H       1  UNL1        0.0364
     47 H         -10.6856    4.8625   -0.4679 H       1  UNL1        0.1548
     48 H         -12.9165    5.2802   -1.7054 H       1  UNL1        0.0636
     49 H         -15.3530    5.0282   -1.4898 H       1  UNL1        0.0629
     50 H         -18.3940    0.5447   -0.5415 H       1  UNL1        0.0629
     51 H         -19.4169   -0.9926    1.0965 H       1  UNL1        0.0632
     52 H         -17.4200    1.0722    4.2980 H       1  UNL1        0.0632
     53 H         -16.5685    2.7360    2.6990 H       1  UNL1        0.0629
     54 H         -14.7443    1.8289    1.3400 H       1  UNL1        0.0629
     55 H         -12.3818    2.1885    1.2527 H       1  UNL1        0.0636
     56 H          -1.6441    2.2003   -0.0007 H       1  UNL1        0.0692
@<TRIPOS>UNITY_ATOM_ATTR
33 1
charge 1
35 1
charge -1
@<TRIPOS>BOND
     1     1     2    1
     2     2     3   ar
     3     3     4   ar
     4     4     5   ar
     5     5     6    1
     6     6     7    2
     7     6     8    1
     8     8     9    1
     9     9    10    1
    10    10    11    2
    11    10    12    1
    12    12    13    1
    13    13    14    1
    14    14    15    2
    15    14    16   am
    16    16    17    1
    17    17    18   ar
    18    18    19   ar
    19    19    20   ar
    20    20    21    1
    21    21    22    1
    22    22    23   ar
    23    23    24   ar
    24    24    25   ar
    25    25    26    1
    26    25    27   ar
    27    27    28   ar
    28    22    28   ar
    29    20    29   ar
    30    29    30   ar
    31    17    30   ar
    32     5    31   ar
    33    31    32   ar
    34     2    32   ar
    35    32    33    1
    36    33    34    2
    37    33    35    1
    38     1    36    1
    39     1    37    1
    40     1    38    1
    41     3    39    1
    42     4    40    1
    43     8    41    1
    44     8    42    1
    45    12    43    1
    46    12    44    1
    47    13    45    1
    48    13    46    1
    49    16    47    1
    50    18    48    1
    51    19    49    1
    52    23    50    1
    53    24    51    1
    54    27    52    1
    55    28    53    1
    56    29    54    1
    57    30    55    1
    58    31    56    1
