REMARK  5 active torsions:
REMARK  status: ('A' for Active; 'I' for Inactive)
REMARK    1  A    between atoms: C_10  and  C_11 
REMARK       I    between atoms: C_11  and  N_13 
REMARK    2  A    between atoms: N_13  and  C_14 
REMARK    3  A    between atoms: C_14  and  C_15 
REMARK    4  A    between atoms: C_15  and  N_16 
REMARK    5  A    between atoms: C_20  and  N_21 
ROOT
ATOM      1  N   UNL d   1      -5.642  -5.719   0.133  0.00  0.00    -0.250 N 
ATOM      2  N   UNL d   1      -4.731  -6.702   0.027  0.00  0.00    -0.182 NA
ATOM      3  C   UNL d   1      -5.459  -7.804   0.034  0.00  0.00     0.158 A 
ATOM      4  C   UNL d   1      -6.842  -7.573   0.163  0.00  0.00     0.076 A 
ATOM      5  C   UNL d   1      -8.008  -8.373   0.241  0.00  0.00     0.142 A 
ATOM      6  N   UNL d   1      -9.184  -7.697   0.356  0.00  0.00    -0.224 NA
ATOM      7  C   UNL d   1      -9.155  -6.339   0.427  0.00  0.00     0.237 A 
ATOM      8  N   UNL d   1      -8.089  -5.498   0.368  0.00  0.00    -0.222 NA
ATOM      9  C   UNL d   1      -6.941  -6.189   0.230  0.00  0.00     0.163 A 
ENDROOT
BRANCH   1  10
ATOM     10  C   UNL d   1      -5.133  -4.359   0.092  0.00  0.00     0.172 C 
BRANCH  10  11
ATOM     11  C   UNL d   1      -3.581  -4.285   0.104  0.00  0.00     0.145 C 
BRANCH  11  12
ATOM     12  N   UNL d   1      -3.052  -2.928   0.063  0.00  0.00    -0.355 N 
ATOM     13  C   UNL d   1      -1.684  -2.666   0.067  0.00  0.00     0.254 C 
ATOM     14  O   UNL d   1      -0.874  -3.578   0.106  0.00  0.00    -0.268 OA
ATOM     15  H   UNL d   1      -3.708  -2.177   0.027  0.00  0.00     0.162 HD
BRANCH  13  16
ATOM     16  C   UNL d   1      -1.263  -1.242   0.028  0.00  0.00     0.066 A 
ATOM     17  C   UNL d   1       0.111  -0.780   0.010  0.00  0.00     0.008 A 
ATOM     18  C   UNL d   1       1.364  -1.432  -0.000  0.00  0.00     0.015 A 
ATOM     19  C   UNL d   1       0.110   0.616   0.003  0.00  0.00     0.043 A 
ATOM     20  C   UNL d   1       2.550  -0.688  -0.023  0.00  0.00     0.001 A 
ATOM     21  C   UNL d   1       2.511   0.702  -0.014  0.00  0.00     0.002 A 
ATOM     22  C   UNL d   1       1.289   1.382   0.003  0.00  0.00     0.030 A 
ATOM     23  N   UNL d   1      -1.207   1.005  -0.011  0.00  0.00    -0.358 N 
ATOM     24  C   UNL d   1      -2.046  -0.089   0.002  0.00  0.00     0.022 A 
ATOM     25  H   UNL d   1      -1.507   1.971  -0.033  0.00  0.00     0.166 HD
ATOM     26  C   UNL d   1      -3.518   0.093  -0.004  0.00  0.00     0.069 C 
ENDBRANCH  13  16
ENDBRANCH  11  12
ENDBRANCH  10  11
ENDBRANCH   1  10
BRANCH   5  27
ATOM     27  N   UNL d   1      -7.974  -9.765   0.348  0.00  0.00    -0.360 N 
ATOM     28  C   UNL d   1      -6.670 -10.357   0.676  0.00  0.00     0.156 C 
ATOM     29  C   UNL d   1      -6.833 -11.727   1.304  0.00  0.00     0.136 C 
ATOM     30  O   UNL d   1      -7.568 -12.599   0.437  0.00  0.00    -0.378 OA
ATOM     31  C   UNL d   1      -7.473 -11.555   2.673  0.00  0.00     0.041 C 
ATOM     32  C   UNL d   1      -8.842 -12.072  -0.001  0.00  0.00     0.136 C 
ATOM     33  C   UNL d   1      -8.745 -10.620  -0.574  0.00  0.00     0.156 C 
ATOM     34  C   UNL d   1      -9.915 -12.227   1.080  0.00  0.00     0.041 C 
ENDBRANCH   5  27
TORSDOF 5
