@<TRIPOS>MOLECULE
*****
 41 42 0 0 0
SMALL
GASTEIGER

@<TRIPOS>ATOM
      1 C           1.0809    0.0914    0.0282 C.3     1  UNL1       -0.0570
      2 C           2.6062    0.0434    0.0933 C.3     1  UNL1        0.0215
      3 C           3.0380   -0.8814    1.2196 C.2     1  UNL1        0.2169
      4 O           2.2060   -1.4686    1.9102 O.2     1  UNL1       -0.2755
      5 N           4.4063   -0.9797    1.4215 N.am    1  UNL1       -0.2855
      6 C           4.9806   -1.8905    2.3437 C.ar    1  UNL1        0.0341
      7 C           6.1844   -1.5808    2.9769 C.ar    1  UNL1       -0.0404
      8 C           6.8161   -2.5441    3.7714 C.ar    1  UNL1       -0.0593
      9 C           6.2305   -3.8061    3.9576 C.ar    1  UNL1       -0.0495
     10 C           5.0111   -4.1291    3.3408 C.ar    1  UNL1        0.0399
     11 C           4.4510   -5.5227    3.4691 C.2     1  UNL1        0.2602
     12 O           5.0475   -6.3698    4.1450 O.2     1  UNL1       -0.2687
     13 N           3.2823   -5.8314    2.7904 N.am    1  UNL1       -0.2303
     14 N           2.7400   -7.1510    2.8433 N.am    1  UNL1       -0.2320
     15 C           1.5834   -7.3869    2.1251 C.2     1  UNL1        0.2580
     16 O           1.0870   -6.4639    1.4631 O.2     1  UNL1       -0.2714
     17 C           0.8580   -8.7581    2.2636 C.3     1  UNL1        0.1358
     18 C           1.5804  -10.0879    2.4571 C.3     1  UNL1       -0.0159
     19 C           0.6488  -11.0781    1.7715 C.3     1  UNL1       -0.0266
     20 C           0.1136  -10.2760    0.6153 C.3     1  UNL1        0.0487
     21 O           0.0369   -8.9298    1.0804 O.3     1  UNL1       -0.3673
     22 C           4.3945   -3.1494    2.5549 C.ar    1  UNL1       -0.0283
     23 H           0.7312    0.7522   -0.7689 H       1  UNL1        0.0234
     24 H           0.6651    0.4508    0.9771 H       1  UNL1        0.0234
     25 H           0.6671   -0.9084   -0.1502 H       1  UNL1        0.0234
     26 H           2.9982    1.0499    0.2709 H       1  UNL1        0.0356
     27 H           3.0011   -0.3262   -0.8595 H       1  UNL1        0.0356
     28 H           5.0288   -0.3344    0.9499 H       1  UNL1        0.1548
     29 H           6.6191   -0.5861    2.9045 H       1  UNL1        0.0636
     30 H           7.7767   -2.3201    4.2335 H       1  UNL1        0.0618
     31 H           6.7417   -4.5389    4.5807 H       1  UNL1        0.0625
     32 H           2.7409   -5.1740    2.2269 H       1  UNL1        0.1731
     33 H           3.2269   -7.8170    3.4355 H       1  UNL1        0.1729
     34 H           0.1643   -8.6339    3.1036 H       1  UNL1        0.0693
     35 H           1.6944  -10.3454    3.5163 H       1  UNL1        0.0296
     36 H           2.5738  -10.1092    1.9986 H       1  UNL1        0.0296
     37 H          -0.1838  -11.3371    2.4388 H       1  UNL1        0.0288
     38 H           1.1237  -12.0129    1.4590 H       1  UNL1        0.0288
     39 H          -0.8822  -10.5979    0.2961 H       1  UNL1        0.0560
     40 H           0.7841  -10.3205   -0.2503 H       1  UNL1        0.0560
     41 H           3.4695   -3.3724    2.0417 H       1  UNL1        0.0644
@<TRIPOS>BOND
     1     1     2    1
     2     2     3    1
     3     3     4    2
     4     3     5   am
     5     5     6    1
     6     6     7   ar
     7     7     8   ar
     8     8     9   ar
     9     9    10   ar
    10    10    11    1
    11    11    12    2
    12    11    13   am
    13    13    14    1
    14    14    15   am
    15    15    16    2
    16    15    17    1
    17    17    18    1
    18    18    19    1
    19    19    20    1
    20    20    21    1
    21    17    21    1
    22    10    22   ar
    23     6    22   ar
    24     1    23    1
    25     1    24    1
    26     1    25    1
    27     2    26    1
    28     2    27    1
    29     5    28    1
    30     7    29    1
    31     8    30    1
    32     9    31    1
    33    13    32    1
    34    14    33    1
    35    17    34    1
    36    18    35    1
    37    18    36    1
    38    19    37    1
    39    19    38    1
    40    20    39    1
    41    20    40    1
    42    22    41    1
