@<TRIPOS>MOLECULE
*****
 61 65 0 0 0
SMALL
GASTEIGER

@<TRIPOS>ATOM
      1 O           0.8564   -0.7643    0.0306 O.2     1  UNL1       -0.2702
      2 C           0.2295   -0.6749    1.0770 C.2     1  UNL1        0.2445
      3 N           0.7828   -0.4116    2.3033 N.am    1  UNL1       -0.3045
      4 C           2.1988   -0.1292    2.4829 C.3     1  UNL1        0.0489
      5 C           2.2923    1.2518    3.1322 C.3     1  UNL1       -0.0300
      6 C           3.6870    1.5007    3.6763 C.3     1  UNL1       -0.0471
      7 C           4.0343    0.4827    4.7656 C.3     1  UNL1       -0.0273
      8 C           3.7490   -0.9418    4.3486 C.ar    1  UNL1       -0.0424
      9 C           4.3496   -2.0056    5.0448 C.ar    1  UNL1       -0.0583
     10 C           4.1204   -3.3302    4.6624 C.ar    1  UNL1       -0.0615
     11 C           3.2842   -3.6096    3.5878 C.ar    1  UNL1       -0.0614
     12 C           2.6676   -2.5655    2.9061 C.ar    1  UNL1       -0.0565
     13 C           2.8692   -1.2271    3.2872 C.ar    1  UNL1       -0.0240
     14 C          -1.2281   -0.9319    1.0883 C.ar    1  UNL1        0.0367
     15 C          -2.1159   -0.1641    1.8452 C.ar    1  UNL1       -0.0493
     16 C          -3.4677   -0.5241    1.8998 C.ar    1  UNL1       -0.0564
     17 C          -3.9662   -1.5921    1.1241 C.ar    1  UNL1       -0.0304
     18 C          -5.4578   -1.8422    1.1204 C.3     1  UNL1        0.0347
     19 N          -5.9219   -2.7409    0.0480 N.pl3   1  UNL1       -0.3316
     20 C          -7.1717   -3.1235   -0.1280 C.2     1  UNL1        0.1493
     21 C          -7.8263   -4.3250   -0.2640 C.2     1  UNL1        0.1983
     22 O          -7.4948   -5.5693   -0.2296 O.2     1  UNL1       -0.5017
     23 C          -9.1142   -3.6299   -0.4762 C.2     1  UNL1        0.2940
     24 O         -10.2671   -3.9008   -0.7331 O.2     1  UNL1       -0.2768
     25 C          -8.4352   -2.3350   -0.3367 C.2     1  UNL1        0.2782
     26 N          -8.8098   -1.0928   -0.4230 N.2     1  UNL1       -0.2191
     27 C         -10.2438   -0.5648   -0.5271 C.3     1  UNL1        0.1690
     28 C         -10.3036    0.5963   -1.5376 C.3     1  UNL1        0.1068
     29 O          -9.3705    1.6215   -1.1865 O.3     1  UNL1       -0.3673
     30 C          -8.0451    1.1355   -1.3185 C.3     1  UNL1        0.1068
     31 C          -7.7965    0.0328   -0.3062 C.3     1  UNL1        0.1690
     32 C          -3.0566   -2.3261    0.3523 C.ar    1  UNL1       -0.0564
     33 C          -1.7038   -1.9971    0.3296 C.ar    1  UNL1       -0.0493
     34 H           0.2487   -0.5695    3.1469 H       1  UNL1        0.1496
     35 H           2.7093   -0.0888    1.5113 H       1  UNL1        0.0548
     36 H           1.5555    1.3480    3.9420 H       1  UNL1        0.0286
     37 H           2.0270    2.0129    2.3871 H       1  UNL1        0.0286
     38 H           3.7506    2.5191    4.0746 H       1  UNL1        0.0269
     39 H           4.4092    1.4275    2.8540 H       1  UNL1        0.0269
     40 H           3.4587    0.7005    5.6740 H       1  UNL1        0.0313
     41 H           5.0971    0.5918    5.0136 H       1  UNL1        0.0313
     42 H           5.0149   -1.8115    5.8843 H       1  UNL1        0.0620
     43 H           4.6050   -4.1457    5.1937 H       1  UNL1        0.0618
     44 H           3.1149   -4.6349    3.2708 H       1  UNL1        0.0618
     45 H           2.0301   -2.7942    2.0549 H       1  UNL1        0.0621
     46 H          -1.7683    0.7240    2.3692 H       1  UNL1        0.0625
     47 H          -4.1304    0.0476    2.5498 H       1  UNL1        0.0621
     48 H          -5.8829   -0.8566    0.9622 H       1  UNL1        0.0511
     49 H          -5.8161   -2.1676    2.1024 H       1  UNL1        0.0511
     50 H          -5.2052   -3.4324   -0.1718 H       1  UNL1        0.1467
     51 H          -6.5555   -5.7145   -0.0023 H       1  UNL1        0.2924
     52 H         -10.4892   -0.1730    0.4692 H       1  UNL1        0.1050
     53 H         -10.9420   -1.3604   -0.7923 H       1  UNL1        0.1050
     54 H         -11.2909    1.0701   -1.5444 H       1  UNL1        0.0623
     55 H         -10.0928    0.2591   -2.5586 H       1  UNL1        0.0623
     56 H          -7.3499    1.9665   -1.1470 H       1  UNL1        0.0623
     57 H          -7.8718    0.7776   -2.3399 H       1  UNL1        0.0623
     58 H          -7.8739    0.4155    0.7197 H       1  UNL1        0.1050
     59 H          -6.8090   -0.3420   -0.5428 H       1  UNL1        0.1050
     60 H          -3.3500   -3.1704   -0.2588 H       1  UNL1        0.0621
     61 H          -1.0212   -2.5810   -0.2840 H       1  UNL1        0.0625
@<TRIPOS>UNITY_ATOM_ATTR
26 1
charge 1
@<TRIPOS>BOND
     1     1     2    2
     2     2     3   am
     3     4     5    1
     4     5     6    1
     5     6     7    1
     6     7     8    1
     7     8     9   ar
     8     9    10   ar
     9    10    11   ar
    10    11    12   ar
    11    12    13   ar
    12     8    13   ar
    13     4    13    1
    14     2    14    1
    15    14    15   ar
    16    15    16   ar
    17    16    17   ar
    18    17    18    1
    19    18    19    1
    20    19    20    1
    21    20    21    2
    22    21    22    1
    23    21    23    1
    24    23    24    2
    25    23    25    1
    26    20    25    1
    27    25    26    2
    28    26    27    1
    29    27    28    1
    30    28    29    1
    31    29    30    1
    32    30    31    1
    33    26    31    1
    34    17    32   ar
    35    32    33   ar
    36    14    33   ar
    37     4     3    1
    38     3    34    1
    39     4    35    1
    40     5    36    1
    41     5    37    1
    42     6    38    1
    43     6    39    1
    44     7    40    1
    45     7    41    1
    46     9    42    1
    47    10    43    1
    48    11    44    1
    49    12    45    1
    50    15    46    1
    51    16    47    1
    52    18    48    1
    53    18    49    1
    54    19    50    1
    55    22    51    1
    56    27    52    1
    57    27    53    1
    58    28    54    1
    59    28    55    1
    60    30    56    1
    61    30    57    1
    62    31    58    1
    63    31    59    1
    64    32    60    1
    65    33    61    1
