REMARK  3 active torsions:
REMARK  status: ('A' for Active; 'I' for Inactive)
REMARK    1  A    between atoms: N_6  and  C_7 
REMARK    2  A    between atoms: C_7  and  C_8 
REMARK       I    between atoms: C_8  and  N_10 
REMARK    3  A    between atoms: N_10  and  C_11 
ROOT
ATOM      1  C   UNL d   1       4.219  -3.607  -0.016  0.00  0.00     0.240 C 
ATOM      2  O   UNL d   1       5.382  -3.188  -0.056  0.00  0.00    -0.271 OA
ATOM      3  N   UNL d   1       3.991  -4.974  -0.002  0.00  0.00    -0.326 N 
ATOM      4  H   UNL d   1       3.096  -5.341  -0.307  0.00  0.00     0.169 HD
ENDROOT
BRANCH   3   5
ATOM      5  C   UNL d   1       5.102  -5.880  -0.036  0.00  0.00     0.037 A 
ATOM      6  C   UNL d   1       6.247  -5.680   0.774  0.00  0.00     0.032 A 
ATOM      7  C   UNL d   1       7.346  -6.556   0.729  0.00  0.00     0.042 A 
ATOM      8  C   UNL d   1       7.289  -7.615  -0.152  0.00  0.00     0.111 A 
ATOM      9  C   UNL d   1       6.184  -7.806  -0.950  0.00  0.00     0.113 A 
ATOM     10  O   UNL d   1       8.245  -8.563  -0.355  0.00  0.00    -0.256 OA
ATOM     11  C   UNL d   1       5.074  -6.974  -0.903  0.00  0.00     0.069 A 
ATOM     12  O   UNL d   1       6.317  -8.881  -1.775  0.00  0.00    -0.256 OA
ATOM     13  C   UNL d   1       7.620  -9.345  -1.389  0.00  0.00     0.498 A 
ATOM     14  F   UNL d   1       7.508 -10.629  -0.970  0.00  0.00    -0.147 F 
ATOM     15  F   UNL d   1       8.419  -9.342  -2.486  0.00  0.00    -0.147 F 
ENDBRANCH   3   5
BRANCH   1  16
ATOM     16  C   UNL d   1       3.006  -2.622  -0.041  0.00  0.00     0.232 C 
BRANCH  16  17
ATOM     17  N   UNL d   1       3.387  -1.149  -0.040  0.00  0.00    -0.337 N 
ATOM     18  C   UNL d   1       4.689  -0.624  -0.036  0.00  0.00     0.110 A 
ATOM     19  C   UNL d   1       4.600   0.730  -0.042  0.00  0.00     0.106 A 
ATOM     20  N   UNL d   1       3.267   1.014  -0.048  0.00  0.00    -0.355 N 
ATOM     21  C   UNL d   1       2.522  -0.103  -0.046  0.00  0.00     0.079 A 
ATOM     22  H   UNL d   1       2.888   1.958  -0.052  0.00  0.00     0.166 HD
ATOM     23  C   UNL d   1       1.032  -0.111  -0.049  0.00  0.00     0.089 C 
ENDBRANCH  16  17
ENDBRANCH   1  16
TORSDOF 3
