REMARK  12 active torsions:
REMARK  status: ('A' for Active; 'I' for Inactive)
REMARK    1  A    between atoms: C_2  and  C_3 
REMARK    2  A    between atoms: C_3  and  C_4 
REMARK    3  A    between atoms: C_6  and  C_7 
REMARK    4  A    between atoms: N_8  and  N_9 
REMARK       I    between atoms: N_9  and  C_10 
REMARK    5  A    between atoms: C_10  and  C_12 
REMARK    6  A    between atoms: C_12  and  C_13 
REMARK    7  A    between atoms: C_14  and  C_13 
REMARK    8  A    between atoms: C_14  and  C_16 
REMARK    9  A    between atoms: C_14  and  O_15 
REMARK   10  A    between atoms: C_19  and  O_20 
REMARK   11  A    between atoms: O_20  and  C_21 
REMARK   12  A    between atoms: C_27  and  O_28 
ROOT
ATOM      1  N   UNL d   1      12.412   5.422   3.069  0.00  0.00    -0.247 N 
ATOM      2  C   UNL d   1      12.461   4.059   3.186  0.00  0.00     0.237 C 
ATOM      3  O   UNL d   1      12.187   3.413   4.196  0.00  0.00    -0.272 OA
ATOM      4  H   UNL d   1      12.584   5.728   2.151  0.00  0.00     0.192 HD
ENDROOT
BRANCH   2   5
ATOM      5  C   UNL d   1      12.935   3.420   1.871  0.00  0.00     0.107 C 
BRANCH   5   6
ATOM      6  C   UNL d   1      13.017   1.910   2.041  0.00  0.00     0.046 C 
BRANCH   6   7
ATOM      7  C   UNL d   1      13.675   1.169   0.872  0.00  0.00     0.151 C 
BRANCH   7   8
ATOM      8  C   UNL d   1      15.153   0.931   1.123  0.00  0.00    -0.029 A 
ATOM      9  C   UNL d   1      16.024   2.017   1.294  0.00  0.00     0.012 A 
ATOM     10  C   UNL d   1      17.372   1.828   1.590  0.00  0.00     0.037 A 
ATOM     11  C   UNL d   1      17.886   0.541   1.699  0.00  0.00     0.068 A 
ATOM     12  C   UNL d   1      17.043  -0.550   1.502  0.00  0.00     0.037 A 
ATOM     13  C   UNL d   1      15.691  -0.359   1.214  0.00  0.00     0.012 A 
BRANCH  11  14
ATOM     14  O   UNL d   1      19.184   0.229   1.984  0.00  0.00    -0.352 OA
BRANCH  14  15
ATOM     15  C   UNL d   1      20.057   1.333   2.205  0.00  0.00     0.171 C 
ATOM     16  C   UNL d   1      21.434   0.778   2.498  0.00  0.00     0.034 C 
ENDBRANCH  14  15
ENDBRANCH  11  14
ENDBRANCH   7   8
BRANCH   7  17
ATOM     17  O   UNL d   1      12.980  -0.071   0.713  0.00  0.00    -0.391 OA
ATOM     18  H   UNL d   1      13.066  -0.553   1.555  0.00  0.00     0.210 HD
ENDBRANCH   7  17
ENDBRANCH   6   7
ENDBRANCH   5   6
ENDBRANCH   2   5
BRANCH   1  19
ATOM     19  N   UNL d   1      12.036   6.307   4.019  0.00  0.00    -0.184 NA
ATOM     20  C   UNL d   1      12.013   7.593   3.764  0.00  0.00     0.150 C 
BRANCH  20  21
ATOM     21  C   UNL d   1      12.354   8.386   2.531  0.00  0.00    -0.016 A 
ATOM     22  C   UNL d   1      12.221   9.783   2.547  0.00  0.00     0.023 A 
ATOM     23  C   UNL d   1      12.521  10.535   1.382  0.00  0.00    -0.021 A 
ATOM     24  C   UNL d   1      12.940   9.890   0.213  0.00  0.00     0.072 A 
ATOM     25  C   UNL d   1      13.094   8.534   0.193  0.00  0.00     0.038 A 
ATOM     26  C   UNL d   1      12.816   7.817   1.339  0.00  0.00     0.015 A 
BRANCH  23  27
ATOM     27  C   UNL d   1      12.467  12.039   1.379  0.00  0.00     0.067 C 
BRANCH  27  28
ATOM     28  C   UNL d   1      13.846  12.637   1.419  0.00  0.00    -0.032 C 
ATOM     29  C   UNL d   1      14.056  13.956   1.353  0.00  0.00     0.007 C 
ENDBRANCH  27  28
ENDBRANCH  23  27
BRANCH  24  30
ATOM     30  O   UNL d   1      13.229  10.595  -0.915  0.00  0.00    -0.360 OA
ATOM     31  H   UNL d   1      13.506   9.975  -1.610  0.00  0.00     0.217 HD
ENDBRANCH  24  30
ENDBRANCH  20  21
ENDBRANCH   1  19
TORSDOF 12
