@<TRIPOS>MOLECULE
*****
 67 68 0 0 0
SMALL
GASTEIGER

@<TRIPOS>ATOM
      1 C           0.9713    0.1287    0.0397 C.3     1  UNL1       -0.0652
      2 C           2.4809    0.1055    0.0100 C.3     1  UNL1       -0.0545
      3 C           2.8923   -0.9211   -1.0276 C.3     1  UNL1       -0.0376
      4 C           4.3703   -0.9518   -1.1717 C.3     1  UNL1        0.0116
      5 N           4.7542   -1.8727   -2.2355 N.am    1  UNL1       -0.3135
      6 C           6.0667   -1.7389   -2.5922 C.2     1  UNL1        0.2384
      7 O           6.5171   -0.6279   -2.4022 O.2     1  UNL1       -0.2734
      8 C           6.8997   -2.8954   -3.3316 C.3     1  UNL1        0.1347
      9 C           6.4294   -2.6462   -4.7389 C.ar    1  UNL1        0.0648
     10 C           6.5205   -1.3439   -5.2695 C.ar    1  UNL1        0.1292
     11 O           7.0293   -0.2265   -4.6668 O.3     1  UNL1       -0.5062
     12 C           6.1004   -1.0813   -6.5450 C.ar    1  UNL1        0.0219
     13 C           5.7002   -2.1320   -7.3470 C.ar    1  UNL1        0.1238
     14 O           5.4101   -1.8949   -8.6534 O.3     1  UNL1       -0.5065
     15 C           5.6071   -3.4336   -6.8689 C.ar    1  UNL1        0.0219
     16 C           5.8972   -3.6786   -5.5352 C.ar    1  UNL1        0.1292
     17 O           5.8128   -4.9554   -5.0469 O.3     1  UNL1       -0.5062
     18 N           8.4906   -2.9639   -3.2341 N.am    1  UNL1       -0.2782
     19 C           9.2802   -2.2977   -2.2457 C.2     1  UNL1        0.2503
     20 O          10.5147   -2.2672   -2.2592 O.2     1  UNL1       -0.2723
     21 C           8.6209   -1.4823   -1.1481 C.3     1  UNL1        0.1591
     22 O           7.8429   -2.0985   -0.1288 O.3     1  UNL1       -0.3659
     23 C           7.0286   -3.2115   -0.4155 C.3     1  UNL1        0.0379
     24 C           9.5309   -0.5162   -0.4050 C.ar    1  UNL1       -0.0101
     25 C          10.4740   -1.0394    0.4682 C.ar    1  UNL1       -0.0556
     26 C          11.1456   -0.1894    1.3259 C.ar    1  UNL1       -0.0614
     27 C          10.9567    1.1926    1.2409 C.ar    1  UNL1       -0.0617
     28 C          10.0670    1.7371    0.3176 C.ar    1  UNL1       -0.0614
     29 C           9.3438    0.8837   -0.5026 C.ar    1  UNL1       -0.0556
     30 C           9.2532   -4.0030   -4.0849 C.3     1  UNL1        0.0302
     31 C           8.8606   -5.4472   -3.7017 C.3     1  UNL1       -0.0440
     32 C           9.0506   -3.7721   -5.5844 C.3     1  UNL1       -0.0440
     33 C          10.8033   -3.9616   -3.9602 C.3     1  UNL1       -0.0440
     34 H           0.6097    0.8623    0.7599 H       1  UNL1        0.0230
     35 H           0.5876   -0.8604    0.3103 H       1  UNL1        0.0230
     36 H           0.5831    0.3834   -0.9524 H       1  UNL1        0.0230
     37 H           2.8860   -0.1523    0.9967 H       1  UNL1        0.0263
     38 H           2.8716    1.0981   -0.2488 H       1  UNL1        0.0263
     39 H           2.4615   -0.6740   -2.0031 H       1  UNL1        0.0280
     40 H           2.5513   -1.9215   -0.7441 H       1  UNL1        0.0280
     41 H           4.8486   -1.2763   -0.2385 H       1  UNL1        0.0462
     42 H           4.7504    0.0641   -1.3560 H       1  UNL1        0.0462
     43 H           4.2044   -2.6855   -2.4704 H       1  UNL1        0.1487
     44 H           6.5357   -3.8711   -2.9821 H       1  UNL1        0.0650
     45 H           7.1240   -0.2909   -3.6941 H       1  UNL1        0.2922
     46 H           6.1482   -0.0516   -6.8776 H       1  UNL1        0.0691
     47 H           5.5139   -0.9368   -8.7904 H       1  UNL1        0.2921
     48 H           5.3555   -4.2345   -7.5541 H       1  UNL1        0.0691
     49 H           5.7029   -5.5775   -5.7918 H       1  UNL1        0.2922
     50 H           8.1879   -0.7160   -1.7492 H       1  UNL1        0.0744
     51 H           6.6981   -3.7654    0.4615 H       1  UNL1        0.0524
     52 H           7.4663   -3.9147   -1.1206 H       1  UNL1        0.0524
     53 H           6.0744   -2.8598   -0.7515 H       1  UNL1        0.0524
     54 H          10.6403   -2.1127    0.4825 H       1  UNL1        0.0621
     55 H          11.7975   -0.6199    2.0756 H       1  UNL1        0.0618
     56 H          11.5110    1.8464    1.9039 H       1  UNL1        0.0618
     57 H           9.9124    2.8113    0.2597 H       1  UNL1        0.0618
     58 H           8.6217    1.3125   -1.1998 H       1  UNL1        0.0621
     59 H           7.7961   -5.6470   -3.8204 H       1  UNL1        0.0250
     60 H           9.1174   -5.6727   -2.6602 H       1  UNL1        0.0250
     61 H           9.3905   -6.1719   -4.3347 H       1  UNL1        0.0250
     62 H           8.0734   -4.0758   -5.9077 H       1  UNL1        0.0250
     63 H           9.7035   -4.3971   -6.1997 H       1  UNL1        0.0250
     64 H           9.2116   -2.7207   -5.8437 H       1  UNL1        0.0250
     65 H          11.1344   -4.2311   -2.9500 H       1  UNL1        0.0250
     66 H          11.1798   -2.9685   -4.2398 H       1  UNL1        0.0250
     67 H          11.2998   -4.6696   -4.6294 H       1  UNL1        0.0250
@<TRIPOS>BOND
     1     1     2    1
     2     2     3    1
     3     3     4    1
     4     4     5    1
     5     5     6   am
     6     6     7    2
     7     6     8    1
     8     8     9    1
     9     9    10   ar
    10    10    11    1
    11    10    12   ar
    12    12    13   ar
    13    13    14    1
    14    13    15   ar
    15    15    16   ar
    16     9    16   ar
    17    16    17    1
    18     8    18    1
    19    18    19   am
    20    19    20    2
    21    19    21    1
    22    21    22    1
    23    22    23    1
    24    21    24    1
    25    24    25   ar
    26    25    26   ar
    27    26    27   ar
    28    27    28   ar
    29    28    29   ar
    30    24    29   ar
    31    18    30    1
    32    30    31    1
    33    30    32    1
    34    30    33    1
    35     1    34    1
    36     1    35    1
    37     1    36    1
    38     2    37    1
    39     2    38    1
    40     3    39    1
    41     3    40    1
    42     4    41    1
    43     4    42    1
    44     5    43    1
    45     8    44    1
    46    11    45    1
    47    12    46    1
    48    14    47    1
    49    15    48    1
    50    17    49    1
    51    21    50    1
    52    23    51    1
    53    23    52    1
    54    23    53    1
    55    25    54    1
    56    26    55    1
    57    27    56    1
    58    28    57    1
    59    29    58    1
    60    31    59    1
    61    31    60    1
    62    31    61    1
    63    32    62    1
    64    32    63    1
    65    32    64    1
    66    33    65    1
    67    33    66    1
    68    33    67    1
