@<TRIPOS>MOLECULE
*****
 49 51 0 0 0
SMALL
GASTEIGER

@<TRIPOS>ATOM
      1 C           1.0623   -0.0120    0.0778 C.3     1  UNL1        0.0788
      2 O           2.4896   -0.0502    0.1269 O.3     1  UNL1       -0.4944
      3 C           3.0806    0.6237   -0.9096 C.ar    1  UNL1        0.1323
      4 C           2.6978    1.9334   -1.2537 C.ar    1  UNL1       -0.0182
      5 C           3.3147    2.6208   -2.3048 C.ar    1  UNL1       -0.0443
      6 C           4.3409    2.0142   -3.0098 C.ar    1  UNL1        0.0188
      7 BR          5.1810    2.9354   -4.4309 Br      1  UNL1       -0.0503
      8 C           4.7515    0.7322   -2.6594 C.ar    1  UNL1       -0.0321
      9 C           4.1341    0.0188   -1.5959 C.ar    1  UNL1        0.0796
     10 C           4.6643   -1.3495   -1.3279 C.2     1  UNL1        0.2531
     11 O           5.5953   -1.6689   -2.0785 O.2     1  UNL1       -0.2697
     12 N           4.1611   -2.1790   -0.3038 N.am    1  UNL1       -0.2635
     13 C           4.5556   -3.5203   -0.0782 C.2     1  UNL1        0.1411
     14 S           5.6327   -4.3350   -1.1056 S.2     1  UNL1       -0.0182
     15 N           3.9409   -4.1462    1.0383 N.am    1  UNL1       -0.2966
     16 C           4.3074   -5.4599    1.5112 C.ar    1  UNL1        0.0335
     17 C           3.3754   -6.4168    1.9047 C.ar    1  UNL1       -0.0370
     18 C           3.8193   -7.6798    2.3682 C.ar    1  UNL1       -0.0175
     19 C           5.1884   -8.0379    2.4003 C.ar    1  UNL1        0.1308
     20 O           5.4032   -9.3055    2.8913 O.3     1  UNL1       -0.4944
     21 C           6.7289   -9.8196    2.8475 C.3     1  UNL1        0.0788
     22 C           6.1302   -7.0761    2.0107 C.ar    1  UNL1        0.0606
     23 C           7.5773   -7.1557    2.1784 C.ar    1  UNL1        0.1389
     24 C           8.4080   -6.4597    3.0279 C.ar    1  UNL1       -0.0154
     25 C           9.6836   -7.0355    2.9025 C.ar    1  UNL1       -0.0178
     26 C           9.5830   -8.0341    1.9554 C.ar    1  UNL1        0.1310
     27 C          10.5534   -9.0493    1.4693 C.3     1  UNL1        0.1019
     28 O          11.8244   -8.7440    2.0460 O.3     1  UNL1       -0.3873
     29 O           8.3102   -8.0483    1.4401 O.2     1  UNL1       -0.4573
     30 C           5.6593   -5.8046    1.6251 C.ar    1  UNL1       -0.0263
     31 H           0.6929   -0.6033    0.9194 H       1  UNL1        0.0660
     32 H           0.6983   -0.4672   -0.8496 H       1  UNL1        0.0660
     33 H           0.6673    1.0009    0.1946 H       1  UNL1        0.0660
     34 H           1.9255    2.4579   -0.6998 H       1  UNL1        0.0655
     35 H           2.9922    3.6278   -2.5582 H       1  UNL1        0.0630
     36 H           5.5666    0.2767   -3.2251 H       1  UNL1        0.0637
     37 H           3.4429   -1.7669    0.2818 H       1  UNL1        0.1568
     38 H           3.0719   -3.7754    1.4041 H       1  UNL1        0.1538
     39 H           2.3061   -6.2469    1.8079 H       1  UNL1        0.0637
     40 H           3.0832   -8.4031    2.7232 H       1  UNL1        0.0655
     41 H           6.7517  -10.8499    3.2097 H       1  UNL1        0.0660
     42 H           7.3810   -9.2547    3.5210 H       1  UNL1        0.0660
     43 H           7.0862   -9.8651    1.8150 H       1  UNL1        0.0660
     44 H           8.0900   -5.6793    3.7020 H       1  UNL1        0.0655
     45 H          10.5706   -6.7904    3.4655 H       1  UNL1        0.0653
     46 H          10.6562   -9.0363    0.3823 H       1  UNL1        0.0638
     47 H          10.2817  -10.0601    1.7922 H       1  UNL1        0.0638
     48 H          12.0222   -7.8245    1.7974 H       1  UNL1        0.2100
     49 H           6.4101   -5.0434    1.4242 H       1  UNL1        0.0644
@<TRIPOS>BOND
     1     1     2    1
     2     2     3    1
     3     3     4   ar
     4     4     5   ar
     5     5     6   ar
     6     6     7    1
     7     6     8   ar
     8     8     9   ar
     9     3     9   ar
    10     9    10    1
    11    10    11    2
    12    10    12   am
    13    12    13    1
    14    13    14    2
    15    13    15    1
    16    15    16    1
    17    16    17   ar
    18    17    18   ar
    19    18    19   ar
    20    19    20    1
    21    20    21    1
    22    19    22   ar
    23    22    23    1
    24    23    24   ar
    25    24    25   ar
    26    25    26   ar
    27    26    27    1
    28    27    28    1
    29    26    29   ar
    30    23    29   ar
    31    22    30   ar
    32    16    30   ar
    33     1    31    1
    34     1    32    1
    35     1    33    1
    36     4    34    1
    37     5    35    1
    38     8    36    1
    39    12    37    1
    40    15    38    1
    41    17    39    1
    42    18    40    1
    43    21    41    1
    44    21    42    1
    45    21    43    1
    46    24    44    1
    47    25    45    1
    48    27    46    1
    49    27    47    1
    50    28    48    1
    51    30    49    1
