REMARK  14 active torsions:
REMARK  status: ('A' for Active; 'I' for Inactive)
REMARK    1  A    between atoms: C_2  and  C_3 
REMARK    2  A    between atoms: C_3  and  O_4 
REMARK    3  A    between atoms: O_4  and  C_5 
REMARK    4  A    between atoms: C_8  and  C_9 
REMARK    5  A    between atoms: C_9  and  O_11 
REMARK    6  A    between atoms: O_11  and  C_12 
REMARK    7  A    between atoms: C_15  and  C_16 
REMARK    8  A    between atoms: N_17  and  N_18 
REMARK       I    between atoms: N_18  and  C_19 
REMARK    9  A    between atoms: C_19  and  C_21 
REMARK   10  A    between atoms: C_21  and  O_22 
REMARK   11  A    between atoms: O_22  and  C_23 
REMARK   12  A    between atoms: C_26  and  N_27 
REMARK   13  A    between atoms: C_33  and  O_34 
REMARK   14  A    between atoms: O_34  and  C_35 
ROOT
ATOM      1  C   UNL d   1       7.799  -3.666   7.727  0.00  0.00     0.112 A 
ATOM      2  C   UNL d   1       7.918  -5.025   8.087  0.00  0.00     0.041 A 
ATOM      3  C   UNL d   1       8.447  -5.406   9.344  0.00  0.00     0.016 A 
ATOM      4  C   UNL d   1       8.932  -4.436  10.229  0.00  0.00    -0.014 A 
ATOM      5  C   UNL d   1       8.785  -3.083   9.873  0.00  0.00     0.052 A 
ATOM      6  C   UNL d   1       8.198  -2.671   8.645  0.00  0.00     0.103 A 
ENDROOT
BRANCH   4   7
ATOM      7  C   UNL d   1       9.640  -4.841  11.502  0.00  0.00     0.150 C 
ATOM      8  N   UNL d   1      10.149  -3.961  12.312  0.00  0.00    -0.184 NA
BRANCH   8   9
ATOM      9  N   UNL d   1      10.830  -4.368  13.454  0.00  0.00    -0.246 N 
ATOM     10  C   UNL d   1      11.361  -3.370  14.293  0.00  0.00     0.261 C 
ATOM     11  O   UNL d   1      11.254  -2.167  14.042  0.00  0.00    -0.269 OA
ATOM     12  H   UNL d   1      10.940  -5.357  13.647  0.00  0.00     0.192 HD
BRANCH  10  13
ATOM     13  C   UNL d   1      12.105  -3.859  15.569  0.00  0.00     0.280 C 
BRANCH  13  14
ATOM     14  O   UNL d   1      12.474  -2.735  16.389  0.00  0.00    -0.342 OA
BRANCH  14  15
ATOM     15  C   UNL d   1      13.275  -2.927  17.481  0.00  0.00     0.069 A 
ATOM     16  C   UNL d   1      13.069  -2.047  18.556  0.00  0.00     0.039 A 
ATOM     17  C   UNL d   1      13.902  -2.069  19.684  0.00  0.00     0.039 A 
ATOM     18  C   UNL d   1      14.917  -3.026  19.764  0.00  0.00     0.103 A 
ATOM     19  C   UNL d   1      15.147  -3.896  18.690  0.00  0.00     0.039 A 
ATOM     20  C   UNL d   1      14.331  -3.836  17.548  0.00  0.00     0.039 A 
BRANCH  18  21
ATOM     21  N   UNL d   1      15.706  -3.162  20.999  0.00  0.00    -0.116 N 
ATOM     22  O   UNL d   1      15.451  -2.393  21.937  0.00  0.00    -0.532 OA
ATOM     23  O   UNL d   1      16.559  -4.060  21.041  0.00  0.00    -0.532 OA
ENDBRANCH  18  21
ENDBRANCH  14  15
ENDBRANCH  13  14
ENDBRANCH  10  13
ENDBRANCH   8   9
ENDBRANCH   4   7
BRANCH   6  24
ATOM     24  O   UNL d   1       8.092  -1.295   8.559  0.00  0.00    -0.349 OA
BRANCH  24  25
ATOM     25  C   UNL d   1       7.443  -0.757   7.423  0.00  0.00     0.171 C 
ATOM     26  C   UNL d   1       7.572   0.731   7.213  0.00  0.00     0.034 C 
ENDBRANCH  24  25
ENDBRANCH   6  24
BRANCH   1  27
ATOM     27  O   UNL d   1       7.111  -3.405   6.497  0.00  0.00    -0.272 OA
BRANCH  27  28
ATOM     28  C   UNL d   1       7.782  -2.776   5.431  0.00  0.00     0.298 C 
ATOM     29  O   UNL d   1       8.982  -2.607   5.357  0.00  0.00    -0.259 OA
BRANCH  28  30
ATOM     30  C   UNL d   1       6.793  -2.070   4.518  0.00  0.00     0.040 C 
ATOM     31  C   UNL d   1       7.146  -0.863   3.877  0.00  0.00     0.020 C 
ATOM     32  C   UNL d   1       6.278  -0.255   2.948  0.00  0.00     0.038 C 
ATOM     33  C   UNL d   1       5.074  -0.870   2.605  0.00  0.00     0.068 C 
ATOM     34  C   UNL d   1       4.685  -2.012   3.307  0.00  0.00     0.038 C 
ATOM     35  C   UNL d   1       5.521  -2.587   4.283  0.00  0.00     0.020 C 
BRANCH  33  36
ATOM     36  O   UNL d   1       4.431  -0.358   1.508  0.00  0.00    -0.351 OA
BRANCH  36  37
ATOM     37  C   UNL d   1       3.008  -0.483   1.472  0.00  0.00     0.175 C 
BRANCH  37  38
ATOM     38  C   UNL d   1       2.490  -0.063   0.093  0.00  0.00     0.022 C 
ATOM     39  C   UNL d   1       0.969  -0.067   0.059  0.00  0.00     0.007 C 
ENDBRANCH  37  38
ENDBRANCH  36  37
ENDBRANCH  33  36
ENDBRANCH  28  30
ENDBRANCH  27  28
ENDBRANCH   1  27
TORSDOF 14
