REMARK  10 active torsions:
REMARK  status: ('A' for Active; 'I' for Inactive)
REMARK    1  A    between atoms: C_2  and  O_3 
REMARK    2  A    between atoms: O_3  and  C_4 
REMARK    3  A    between atoms: C_4  and  C_6 
REMARK    4  A    between atoms: C_9  and  N_10 
REMARK    5  A    between atoms: N_13  and  C_14 
REMARK    6  A    between atoms: C_18  and  N_19 
REMARK    7  A    between atoms: N_19  and  C_20 
REMARK    8  A    between atoms: C_20  and  N_22 
REMARK       I    between atoms: N_22  and  C_23 
REMARK    9  A    between atoms: C_23  and  C_25 
REMARK   10  A    between atoms: C_30  and  O_31 
ROOT
ATOM      1  C   UNL d   1       4.989   1.774   2.250  0.00  0.00     0.041 A 
ATOM      2  C   UNL d   1       6.152   2.507   2.293  0.00  0.00     0.020 A 
ATOM      3  C   UNL d   1       6.657   2.946   3.549  0.00  0.00     0.033 A 
ATOM      4  C   UNL d   1       6.017   2.691   4.811  0.00  0.00     0.057 A 
ATOM      5  C   UNL d   1       4.834   1.891   4.748  0.00  0.00     0.062 A 
ATOM      6  C   UNL d   1       4.382   1.537   3.464  0.00  0.00     0.049 A 
ENDROOT
BRANCH   5   7
ATOM      7  N   UNL d   1       4.099   1.352   5.890  0.00  0.00    -0.331 N 
ATOM      8  H   UNL d   1       4.511   1.593   6.765  0.00  0.00     0.168 HD
BRANCH   7   9
ATOM      9  C   UNL d   1       2.926   0.515   5.891  0.00  0.00     0.179 C 
ATOM     10  S   UNL d   1       1.883   0.201   4.601  0.00  0.00    -0.040 SA
BRANCH   9  11
ATOM     11  N   UNL d   1       2.595  -0.027   7.155  0.00  0.00    -0.299 N 
ATOM     12  C   UNL d   1       1.304  -0.523   7.455  0.00  0.00     0.260 C 
ATOM     13  O   UNL d   1       0.479  -0.929   6.639  0.00  0.00    -0.267 OA
ATOM     14  H   UNL d   1       3.248   0.033   7.919  0.00  0.00     0.171 HD
BRANCH  12  15
ATOM     15  C   UNL d   1       0.792  -0.626   8.830  0.00  0.00     0.065 A 
ATOM     16  C   UNL d   1       0.138  -1.866   9.059  0.00  0.00     0.020 A 
ATOM     17  C   UNL d   1      -0.691  -2.062  10.156  0.00  0.00     0.001 A 
ATOM     18  C   UNL d   1      -0.813  -1.048  11.090  0.00  0.00     0.003 A 
ATOM     19  C   UNL d   1      -0.187   0.184  10.871  0.00  0.00     0.038 A 
ATOM     20  C   UNL d   1       0.588   0.436   9.723  0.00  0.00     0.084 A 
BRANCH  20  21
ATOM     21  O   UNL d   1       0.957   1.757   9.650  0.00  0.00    -0.355 OA
ATOM     22  C   UNL d   1       1.731   2.174   8.552  0.00  0.00     0.210 C 
ENDBRANCH  20  21
ENDBRANCH  12  15
ENDBRANCH   9  11
ENDBRANCH   7   9
ENDBRANCH   5   7
BRANCH   4  23
ATOM     23  N   UNL d   1       6.606   3.244   5.950  0.00  0.00    -0.376 N 
ATOM     24  C   UNL d   1       6.992   2.513   7.155  0.00  0.00     0.150 C 
ATOM     25  C   UNL d   1       6.078   2.912   8.343  0.00  0.00     0.254 C 
ATOM     26  N   UNL d   1       5.981   4.439   8.549  0.00  0.00    -0.068 N 
ATOM     27  C   UNL d   1       5.766   5.191   7.199  0.00  0.00     0.254 C 
ATOM     28  H   UNL d   1       6.883   4.746   8.940  0.00  0.00     0.280 HD
ATOM     29  C   UNL d   1       6.752   4.708   6.103  0.00  0.00     0.150 C 
BRANCH  26  30
ATOM     30  C   UNL d   1       4.902   4.769   9.580  0.00  0.00     0.230 C 
ATOM     31  C   UNL d   1       4.922   6.234   9.976  0.00  0.00     0.034 C 
ENDBRANCH  26  30
ENDBRANCH   4  23
BRANCH   1  32
ATOM     32  C   UNL d   1       4.478   0.999   1.069  0.00  0.00     0.293 C 
ATOM     33  O   UNL d   1       5.261   0.467   0.278  0.00  0.00    -0.259 OA
BRANCH  32  34
ATOM     34  O   UNL d   1       3.117   0.879   1.027  0.00  0.00    -0.318 OA
BRANCH  34  35
ATOM     35  C   UNL d   1       2.596   0.064  -0.052  0.00  0.00     0.174 C 
ATOM     36  C   UNL d   1       1.069   0.041  -0.060  0.00  0.00     0.034 C 
ENDBRANCH  34  35
ENDBRANCH  32  34
ENDBRANCH   1  32
TORSDOF 10
