REMARK  10 active torsions:
REMARK  status: ('A' for Active; 'I' for Inactive)
REMARK    1  A    between atoms: C_2  and  C_3 
REMARK       I    between atoms: C_2  and  N_26 
REMARK    2  A    between atoms: C_3  and  O_4 
REMARK    3  A    between atoms: O_4  and  C_5 
REMARK    4  A    between atoms: C_7  and  C_5 
REMARK    5  A    between atoms: C_7  and  N_18 
REMARK    6  A    between atoms: C_7  and  C_8 
REMARK    7  A    between atoms: C_8  and  C_9 
REMARK       I    between atoms: N_18  and  C_19 
REMARK    8  A    between atoms: C_19  and  C_21 
REMARK    9  A    between atoms: N_26  and  C_27 
REMARK   10  A    between atoms: C_30  and  N_31 
ROOT
ATOM      1  C   UNL d   1       1.494   2.572  -4.196  0.00  0.00     0.188 C 
ENDROOT
BRANCH   1   2
ATOM      2  N   UNL d   1       2.196   3.287  -5.341  0.00  0.00    -0.342 N 
ATOM      3  C   UNL d   1       1.583   3.925  -6.399  0.00  0.00     0.259 C 
ATOM      4  O   UNL d   1       0.342   4.016  -6.434  0.00  0.00    -0.267 OA
ATOM      5  H   UNL d   1       3.213   3.302  -5.353  0.00  0.00     0.163 HD
BRANCH   3   6
ATOM      6  C   UNL d   1       2.464   4.555  -7.376  0.00  0.00     0.072 A 
ATOM      7  C   UNL d   1       3.560   4.019  -8.032  0.00  0.00     0.025 A 
ATOM      8  C   UNL d   1       4.156   4.928  -8.962  0.00  0.00     0.009 A 
ATOM      9  C   UNL d   1       3.512   6.145  -8.981  0.00  0.00     0.050 A 
ATOM     10  S   UNL d   1       2.176   6.168  -7.904  0.00  0.00    -0.097 SA
ENDBRANCH   3   6
ENDBRANCH   1   2
BRANCH   1  11
ATOM     11  C   UNL d   1       2.633   2.139  -3.243  0.00  0.00     0.072 C 
BRANCH  11  12
ATOM     12  C   UNL d   1       3.183   3.286  -2.407  0.00  0.00    -0.048 C 
ATOM     13  C   UNL d   1       2.932   4.615  -2.497  0.00  0.00    -0.006 A 
ATOM     14  C   UNL d   1       2.106   5.428  -3.357  0.00  0.00     0.014 A 
ATOM     15  C   UNL d   1       3.274   5.135  -1.157  0.00  0.00     0.038 A 
ATOM     16  C   UNL d   1       1.556   6.566  -2.930  0.00  0.00     0.001 A 
ATOM     17  C   UNL d   1       1.900   7.101  -1.645  0.00  0.00     0.002 A 
ATOM     18  C   UNL d   1       2.761   6.492  -0.802  0.00  0.00     0.030 A 
ATOM     19  N   UNL d   1       3.801   4.240  -0.407  0.00  0.00    -0.385 N 
ATOM     20  C   UNL d   1       3.878   2.946  -1.111  0.00  0.00     0.155 C 
ATOM     21  H   UNL d   1       3.915   4.361   0.599  0.00  0.00     0.160 HD
ENDBRANCH  11  12
ENDBRANCH   1  11
BRANCH   1  22
ATOM     22  C   UNL d   1       0.266   3.279  -3.324  0.00  0.00     0.282 C 
ATOM     23  O   UNL d   1      -0.750   3.738  -3.822  0.00  0.00    -0.263 OA
BRANCH  22  24
ATOM     24  O   UNL d   1       0.551   3.473  -1.963  0.00  0.00    -0.310 OA
BRANCH  24  25
ATOM     25  C   UNL d   1      -0.195   4.518  -1.258  0.00  0.00     0.281 C 
BRANCH  25  26
ATOM     26  C   UNL d   1       0.356   5.175   0.147  0.00  0.00     0.246 C 
ATOM     27  O   UNL d   1       1.280   4.654   0.786  0.00  0.00    -0.271 OA
ATOM     28  N   UNL d   1      -0.089   6.450   0.555  0.00  0.00    -0.325 N 
ATOM     29  H   UNL d   1       0.488   6.973   1.211  0.00  0.00     0.169 HD
BRANCH  28  30
ATOM     30  C   UNL d   1      -1.302   7.039   0.173  0.00  0.00     0.034 C 
ATOM     31  C   UNL d   1      -2.307   6.173  -0.224  0.00  0.00     0.032 C 
ATOM     32  C   UNL d   1      -3.426   6.609  -0.885  0.00  0.00     0.038 C 
ATOM     33  C   UNL d   1      -3.691   7.968  -0.887  0.00  0.00     0.103 C 
ATOM     34  C   UNL d   1      -2.807   8.871  -0.269  0.00  0.00     0.038 C 
ATOM     35  C   UNL d   1      -1.564   8.412   0.208  0.00  0.00     0.032 C 
BRANCH  33  36
ATOM     36  N   UNL d   1      -4.931   8.415  -1.517  0.00  0.00    -0.116 N 
ATOM     37  O   UNL d   1      -5.622   7.556  -2.085  0.00  0.00    -0.532 OA
ATOM     38  O   UNL d   1      -5.205   9.618  -1.450  0.00  0.00    -0.532 OA
ENDBRANCH  33  36
ENDBRANCH  28  30
ENDBRANCH  25  26
ENDBRANCH  24  25
ENDBRANCH  22  24
ENDBRANCH   1  22
TORSDOF 10
