REMARK  11 active torsions:
REMARK  status: ('A' for Active; 'I' for Inactive)
REMARK    1  A    between atoms: C_2  and  C_3 
REMARK    2  A    between atoms: C_3  and  C_4 
REMARK    3  A    between atoms: C_4  and  C_5 
REMARK    4  A    between atoms: C_5  and  O_6 
REMARK    5  A    between atoms: O_6  and  C_7 
REMARK    6  A    between atoms: C_10  and  C_11 
REMARK    7  A    between atoms: N_12  and  N_13 
REMARK       I    between atoms: N_13  and  C_14 
REMARK    8  A    between atoms: C_14  and  C_16 
REMARK    9  A    between atoms: C_16  and  S_17 
REMARK   10  A    between atoms: S_17  and  C_18 
REMARK   11  A    between atoms: N_27  and  C_28 
ROOT
ATOM      1  C   UNL d   1      10.169  14.749   3.934  0.00  0.00     0.177 A 
ATOM      2  N   UNL d   1       9.480  15.850   3.799  0.00  0.00    -0.216 NA
ATOM      3  C   UNL d   1      10.174  17.011   3.942  0.00  0.00     0.117 A 
ATOM      4  S   UNL d   1       9.433  18.554   3.849  0.00  0.00    -0.073 SA
ATOM      5  C   UNL d   1      10.921  19.358   4.072  0.00  0.00    -0.008 A 
ATOM      6  C   UNL d   1      11.981  18.485   4.212  0.00  0.00    -0.026 A 
ATOM      7  C   UNL d   1      11.523  17.133   4.182  0.00  0.00     0.076 A 
ATOM      8  C   UNL d   1      12.290  15.930   4.333  0.00  0.00     0.268 A 
ATOM      9  O   UNL d   1      13.518  15.984   4.485  0.00  0.00    -0.267 OA
ATOM     10  N   UNL d   1      11.549  14.743   4.240  0.00  0.00    -0.256 N 
ATOM     11  C   UNL d   1      13.399  18.958   4.393  0.00  0.00     0.041 C 
ATOM     12  C   UNL d   1      13.538  20.433   3.994  0.00  0.00     0.005 C 
ATOM     13  C   UNL d   1      12.419  21.260   4.641  0.00  0.00     0.005 C 
ATOM     14  C   UNL d   1      11.047  20.853   4.071  0.00  0.00     0.047 C 
ENDROOT
BRANCH   1  15
ATOM     15  S   UNL d   1       9.177  13.260   3.942  0.00  0.00    -0.082 SA
BRANCH  15  16
ATOM     16  C   UNL d   1       9.789  12.084   2.693  0.00  0.00     0.186 C 
BRANCH  16  17
ATOM     17  C   UNL d   1       9.029  10.764   2.593  0.00  0.00     0.247 C 
ATOM     18  N   UNL d   1       9.615   9.815   1.720  0.00  0.00    -0.247 N 
ATOM     19  H   UNL d   1      10.459   9.991   1.184  0.00  0.00     0.192 HD
ATOM     20  O   UNL d   1       8.042  10.516   3.283  0.00  0.00    -0.271 OA
BRANCH  18  21
ATOM     21  N   UNL d   1       9.010   8.584   1.643  0.00  0.00    -0.184 NA
ATOM     22  C   UNL d   1       9.461   7.663   0.849  0.00  0.00     0.150 C 
BRANCH  22  23
ATOM     23  C   UNL d   1       8.730   6.362   0.721  0.00  0.00    -0.017 A 
ATOM     24  C   UNL d   1       9.138   5.390  -0.198  0.00  0.00     0.015 A 
ATOM     25  C   UNL d   1       8.348   4.244  -0.409  0.00  0.00     0.037 A 
ATOM     26  C   UNL d   1       7.189   4.022   0.341  0.00  0.00     0.068 A 
ATOM     27  C   UNL d   1       6.814   4.966   1.294  0.00  0.00     0.037 A 
ATOM     28  C   UNL d   1       7.574   6.131   1.477  0.00  0.00     0.015 A 
BRANCH  26  29
ATOM     29  O   UNL d   1       6.560   2.819   0.148  0.00  0.00    -0.351 OA
BRANCH  29  30
ATOM     30  C   UNL d   1       5.132   2.833   0.250  0.00  0.00     0.175 C 
BRANCH  30  31
ATOM     31  C   UNL d   1       4.614   1.397   0.155  0.00  0.00     0.027 C 
BRANCH  31  32
ATOM     32  C   UNL d   1       3.087   1.367   0.165  0.00  0.00     0.002 C 
BRANCH  32  33
ATOM     33  C   UNL d   1       2.557  -0.061   0.064  0.00  0.00    -0.004 C 
ATOM     34  C   UNL d   1       1.037  -0.072   0.064  0.00  0.00     0.005 C 
ENDBRANCH  32  33
ENDBRANCH  31  32
ENDBRANCH  30  31
ENDBRANCH  29  30
ENDBRANCH  26  29
ENDBRANCH  22  23
ENDBRANCH  18  21
ENDBRANCH  16  17
ENDBRANCH  15  16
ENDBRANCH   1  15
BRANCH  10  35
ATOM     35  C   UNL d   1      12.337  13.576   4.326  0.00  0.00     0.044 C 
ATOM     36  C   UNL d   1      13.053  13.273   5.485  0.00  0.00     0.030 C 
ATOM     37  C   UNL d   1      13.885  12.155   5.499  0.00  0.00     0.002 C 
ATOM     38  C   UNL d   1      13.888  11.275   4.418  0.00  0.00     0.000 C 
ATOM     39  C   UNL d   1      13.214  11.608   3.252  0.00  0.00     0.002 C 
ATOM     40  C   UNL d   1      12.554  12.829   3.174  0.00  0.00     0.030 C 
ENDBRANCH  10  35
TORSDOF 11
