@<TRIPOS>MOLECULE
*****
 59 64 0 0 0
SMALL
GASTEIGER

@<TRIPOS>ATOM
      1 C           1.0527    0.0588   -0.1068 C.3     1  UNL1        0.0788
      2 O           2.4791   -0.0078   -0.0864 O.3     1  UNL1       -0.4951
      3 C           3.0931    0.2480   -1.2821 C.ar    1  UNL1        0.1207
      4 C           2.6928    1.2761   -2.1543 C.ar    1  UNL1       -0.0182
      5 C           3.4027    1.5297   -3.3211 C.ar    1  UNL1       -0.0365
      6 C           4.5153    0.7586   -3.5493 C.ar    1  UNL1        0.0432
      7 C           4.9588   -0.2667   -2.7010 C.ar    1  UNL1        0.0377
      8 C           4.2340   -0.5305   -1.5521 C.ar    1  UNL1       -0.0089
      9 C           6.1944   -0.9087   -3.3199 C.3     1  UNL1        0.1069
     10 C           6.4770    0.1133   -4.4491 C.2     1  UNL1        0.2741
     11 O           7.5116    0.2046   -5.0720 O.2     1  UNL1       -0.2685
     12 N           5.3910    0.9355   -4.5906 N.am    1  UNL1       -0.2798
     13 C           5.9122   -2.3773   -3.7106 C.3     1  UNL1        0.0927
     14 C           6.3648   -2.7729   -5.1589 C.2     1  UNL1        0.1750
     15 O           7.2673   -3.5873   -5.3209 O.2     1  UNL1       -0.2914
     16 C           5.6271   -2.2603   -6.3767 C.ar    1  UNL1        0.0360
     17 C           5.7074   -0.9601   -6.8704 C.ar    1  UNL1       -0.0484
     18 C           4.8668   -0.4278   -7.8283 C.ar    1  UNL1       -0.0429
     19 C           4.0026   -1.2997   -8.4127 C.ar    1  UNL1        0.0276
     20 N           4.0289   -2.6282   -8.1465 N.ar    1  UNL1       -0.2626
     21 C           4.8682   -3.0889   -7.1691 C.ar    1  UNL1        0.0380
     22 C           6.6432   -3.2135   -2.5612 C.3     1  UNL1        0.0443
     23 C           5.7249   -4.0721   -1.6906 C.ar    1  UNL1       -0.0316
     24 C           4.9828   -5.1054   -2.2739 C.ar    1  UNL1       -0.0577
     25 C           4.1085   -5.8826   -1.5020 C.ar    1  UNL1       -0.0551
     26 C           3.8662   -5.5685   -0.1629 C.ar    1  UNL1        0.0156
     27 C           4.6162   -4.5657    0.4357 C.ar    1  UNL1        0.2734
     28 N           4.3474   -4.1296    1.8141 N.pl3   1  UNL1        0.0796
     29 O           3.4269   -4.6822    2.4259 O.2     1  UNL1        0.0414
     30 O           5.0365   -3.1961    2.2552 O.co2   1  UNL1       -0.5760
     31 C           5.6075   -3.9046   -0.2965 C.ar    1  UNL1        0.0192
     32 C           7.4379   -2.1943   -1.7017 C.3     1  UNL1       -0.0015
     33 C           8.8681   -2.6347   -1.3729 C.3     1  UNL1        0.0422
     34 S           9.9576   -1.3910   -2.0557 S.3     1  UNL1       -0.1061
     35 C           8.7525   -0.8639   -3.2328 C.3     1  UNL1        0.0175
     36 N           7.4527   -0.9344   -2.4710 N.4     1  UNL1        0.2605
     37 H           0.6970   -0.1286    0.9108 H       1  UNL1        0.0660
     38 H           0.6495   -0.7230   -0.7585 H       1  UNL1        0.0660
     39 H           0.6741    1.0416   -0.4024 H       1  UNL1        0.0660
     40 H           1.8538    1.9248   -1.9209 H       1  UNL1        0.0655
     41 H           3.1133    2.3299   -3.9946 H       1  UNL1        0.0637
     42 H           4.5036   -1.3093   -0.8484 H       1  UNL1        0.0660
     43 H           5.3295    1.6385   -5.3152 H       1  UNL1        0.1550
     44 H           4.8380   -2.6189   -3.6797 H       1  UNL1        0.0457
     45 H           6.4668   -0.2547   -6.6267 H       1  UNL1        0.0625
     46 H           4.9485    0.6223   -8.0940 H       1  UNL1        0.0633
     47 H           3.2910   -0.9400   -9.1472 H       1  UNL1        0.0829
     48 H           4.9199   -4.1705   -7.0871 H       1  UNL1        0.0836
     49 H           7.3492   -3.9211   -3.0105 H       1  UNL1        0.0414
     50 H           5.0865   -5.3379   -3.3339 H       1  UNL1        0.0620
     51 H           3.5973   -6.7309   -1.9541 H       1  UNL1        0.0620
     52 H           3.1114   -6.1159    0.3958 H       1  UNL1        0.0685
     53 H           6.2620   -3.2558    0.2763 H       1  UNL1        0.0688
     54 H           6.9337   -1.8803   -0.7879 H       1  UNL1        0.0866
     55 H           9.1112   -3.6070   -1.8069 H       1  UNL1        0.0434
     56 H           9.0332   -2.6763   -0.2961 H       1  UNL1        0.0434
     57 H           8.7034   -1.5612   -4.0763 H       1  UNL1        0.0938
     58 H           8.9491    0.1716   -3.5102 H       1  UNL1        0.0938
     59 H           7.4428   -0.1160   -1.8477 H       1  UNL1        0.2060
@<TRIPOS>UNITY_ATOM_ATTR
28 1
charge 1
30 1
charge -1
36 1
charge 1
@<TRIPOS>BOND
     1     1     2    1
     2     2     3    1
     3     3     4   ar
     4     4     5   ar
     5     5     6   ar
     6     6     7   ar
     7     7     8   ar
     8     3     8   ar
     9     7     9    1
    10     9    10    1
    11    10    11    2
    12    10    12   am
    13     6    12    1
    14     9    13    1
    15    13    14    1
    16    14    15    2
    17    14    16    1
    18    16    17   ar
    19    17    18   ar
    20    18    19   ar
    21    19    20   ar
    22    20    21   ar
    23    16    21   ar
    24    13    22    1
    25    23    24   ar
    26    24    25   ar
    27    25    26   ar
    28    26    27   ar
    29    27    28    1
    30    28    29    2
    31    28    30    1
    32    27    31   ar
    33    23    31   ar
    34    22    32    1
    35    32    33    1
    36    33    34    1
    37    34    35    1
    38    35    36    1
    39    32    36    1
    40     9    36    1
    41    22    23    1
    42     1    37    1
    43     1    38    1
    44     1    39    1
    45     4    40    1
    46     5    41    1
    47     8    42    1
    48    12    43    1
    49    13    44    1
    50    17    45    1
    51    18    46    1
    52    19    47    1
    53    21    48    1
    54    22    49    1
    55    24    50    1
    56    25    51    1
    57    26    52    1
    58    31    53    1
    59    32    54    1
    60    33    55    1
    61    33    56    1
    62    35    57    1
    63    35    58    1
    64    36    59    1
