@<TRIPOS>MOLECULE
*****
 29 30 0 0 0
SMALL
GASTEIGER

@<TRIPOS>ATOM
      1 N           1.0182   -0.0931    0.1889 N.am    1  UNL1       -0.3253
      2 C           2.3823   -0.0668    0.1208 C.2     1  UNL1        0.2444
      3 O           2.9746   -0.6251   -0.7930 O.2     1  UNL1       -0.2703
      4 C           3.1015    0.6951    1.1671 C.ar    1  UNL1        0.0735
      5 C           2.8150    0.5827    2.5534 C.ar    1  UNL1       -0.0228
      6 C           3.5515    1.3382    3.5008 C.ar    1  UNL1        0.0702
      7 N           3.2473    1.2104    4.9010 N.am    1  UNL1       -0.2779
      8 C           3.8565    1.9350    5.9353 C.2     1  UNL1        0.2667
      9 O           4.7623    2.7576    5.8358 O.2     1  UNL1       -0.2682
     10 C           3.3981    1.7243    7.3341 C.ar    1  UNL1        0.1270
     11 C           3.2799    0.4579    7.8675 C.ar    1  UNL1       -0.0128
     12 C           2.9930    0.3775    9.2258 C.ar    1  UNL1        0.0446
     13 CL          2.8155   -1.1678    9.9610 Cl      1  UNL1       -0.0834
     14 C           2.8560    1.5223   10.0060 C.ar    1  UNL1       -0.0252
     15 C           3.0183    2.7422    9.3871 C.ar    1  UNL1        0.0298
     16 N           3.2707    2.8634    8.0726 N.ar    1  UNL1       -0.2503
     17 C           4.5537    2.1880    2.9903 C.ar    1  UNL1        0.1472
     18 F           5.3251    2.9663    3.7468 F       1  UNL1       -0.2035
     19 C           4.8317    2.2920    1.6365 C.ar    1  UNL1        0.0114
     20 C           4.1172    1.5432    0.7299 C.ar    1  UNL1        0.1383
     21 F           4.4071    1.6923   -0.5691 F       1  UNL1       -0.2046
     22 H           0.5452   -0.4913   -0.6161 H       1  UNL1        0.1453
     23 H           0.4759    0.4854    0.8125 H       1  UNL1        0.1453
     24 H           2.0388   -0.1130    2.8663 H       1  UNL1        0.0645
     25 H           2.4879    0.5867    5.1506 H       1  UNL1        0.1553
     26 H           3.4577   -0.4280    7.2725 H       1  UNL1        0.0655
     27 H           2.6357    1.4711   11.0660 H       1  UNL1        0.0647
     28 H           2.9513    3.6770    9.9380 H       1  UNL1        0.0830
     29 H           5.6115    2.9730    1.3163 H       1  UNL1        0.0676
@<TRIPOS>BOND
     1     1     2   am
     2     2     3    2
     3     2     4    1
     4     4     5   ar
     5     5     6   ar
     6     6     7    1
     7     7     8   am
     8     8     9    2
     9     8    10    1
    10    10    11   ar
    11    11    12   ar
    12    12    13    1
    13    12    14   ar
    14    14    15   ar
    15    15    16   ar
    16    10    16   ar
    17     6    17   ar
    18    17    18    1
    19    17    19   ar
    20    19    20   ar
    21     4    20   ar
    22    20    21    1
    23     1    22    1
    24     1    23    1
    25     5    24    1
    26     7    25    1
    27    11    26    1
    28    14    27    1
    29    15    28    1
    30    19    29    1
