@<TRIPOS>MOLECULE
*****
 62 65 0 0 0
SMALL
GASTEIGER

@<TRIPOS>ATOM
      1 C           0.9369   -0.1248   -0.1249 C.3     1  UNL1       -0.0307
      2 C           2.4566   -0.2043   -0.1906 C.3     1  UNL1        0.0868
      3 O           2.9243   -0.6456    1.0868 O.3     1  UNL1       -0.4916
      4 C           4.2848   -0.6754    1.2613 C.ar    1  UNL1        0.1295
      5 C           4.8203   -1.8617    1.7941 C.ar    1  UNL1       -0.0193
      6 C           6.1628   -1.9350    2.1872 C.ar    1  UNL1       -0.0583
      7 C           6.9956   -0.8341    2.0084 C.ar    1  UNL1       -0.0609
      8 C           6.4776    0.3483    1.4615 C.ar    1  UNL1       -0.0491
      9 C           5.1185    0.4351    1.0920 C.ar    1  UNL1        0.0447
     10 C           4.5855    1.7416    0.5850 C.2     1  UNL1        0.1247
     11 N           5.1548    2.2725   -0.4591 N.2     1  UNL1       -0.2393
     12 C           4.6837    3.5134   -0.8158 C.2     1  UNL1        0.1264
     13 C           4.9574    4.0461   -2.2159 C.2     1  UNL1        0.2631
     14 O           4.2069    4.8889   -2.7000 O.2     1  UNL1       -0.2685
     15 N           6.1183    3.6157   -2.8221 N.am    1  UNL1       -0.2970
     16 C           6.7515    4.3110   -3.9803 C.3     1  UNL1        0.1214
     17 C           7.3420    5.6929   -3.5835 C.3     1  UNL1       -0.0151
     18 C           6.3259    6.6608   -2.9650 C.3     1  UNL1       -0.0044
     19 S           7.0269    8.2873   -2.5571 S.3     1  UNL1       -0.1641
     20 C           5.5650    9.0525   -1.7845 C.3     1  UNL1       -0.0181
     21 C           7.8772    3.4250   -4.5783 C.2     1  UNL1        0.3274
     22 O           8.2061    2.3249   -4.0912 O.2     1  UNL1       -0.2488
     23 O           8.4523    3.9658   -5.6860 O.3     1  UNL1       -0.4666
     24 C           9.5177    3.1976   -6.2774 C.3     1  UNL1        0.0817
     25 C           3.9768    4.3129    0.0291 C.2     1  UNL1       -0.0206
     26 C           3.6345    3.8849    1.4560 C.2     1  UNL1        0.0416
     27 C           2.5349    4.3009    2.1631 C.ar    1  UNL1        0.0556
     28 C           1.8332    3.5937    3.4088 C.ar    1  UNL1       -0.0478
     29 C           0.4815    3.7232    3.5280 C.ar    1  UNL1       -0.0608
     30 C          -0.1571    4.6531    2.6334 C.ar    1  UNL1       -0.0555
     31 C           0.3185    4.6857    1.3665 C.ar    1  UNL1        0.0099
     32 C           1.5564    3.8194    1.1450 C.ar    1  UNL1        0.2094
     33 N           1.9427    2.5832    0.9313 N.2     1  UNL1       -0.2284
     34 C           3.4785    2.4112    1.4183 C.3     1  UNL1        0.2224
     35 H           0.5523    0.4762   -0.9546 H       1  UNL1        0.0262
     36 H           0.5656    0.3161    0.8071 H       1  UNL1        0.0262
     37 H           0.5021   -1.1215   -0.1422 H       1  UNL1        0.0262
     38 H           2.8052    0.7948   -0.4290 H       1  UNL1        0.0694
     39 H           2.8130   -0.8384   -1.0022 H       1  UNL1        0.0694
     40 H           4.1997   -2.7496    1.9065 H       1  UNL1        0.0654
     41 H           6.5582   -2.8460    2.6397 H       1  UNL1        0.0619
     42 H           8.0468   -0.9031    2.2931 H       1  UNL1        0.0618
     43 H           7.1461    1.2017    1.3592 H       1  UNL1        0.0625
     44 H           6.6021    2.7993   -2.4496 H       1  UNL1        0.1499
     45 H           5.9761    4.4266   -4.7468 H       1  UNL1        0.0615
     46 H           7.7795    6.1606   -4.4754 H       1  UNL1        0.0296
     47 H           8.1649    5.5342   -2.8749 H       1  UNL1        0.0296
     48 H           5.9957    6.2710   -2.0021 H       1  UNL1        0.0377
     49 H           5.4737    6.7960   -3.6391 H       1  UNL1        0.0377
     50 H           5.8516   10.0450   -1.4267 H       1  UNL1        0.0340
     51 H           5.2007    8.4785   -0.9251 H       1  UNL1        0.0340
     52 H           4.7549    9.1712   -2.5098 H       1  UNL1        0.0340
     53 H           9.9043    3.7403   -7.1476 H       1  UNL1        0.0661
     54 H           9.1501    2.2254   -6.6223 H       1  UNL1        0.0661
     55 H          10.3435    3.0660   -5.5697 H       1  UNL1        0.0661
     56 H           3.4836    5.1934   -0.3901 H       1  UNL1        0.0646
     57 H           2.2093    2.6497    3.8139 H       1  UNL1        0.0626
     58 H          -0.1853    3.0636    4.0892 H       1  UNL1        0.0618
     59 H          -0.8031    5.4113    3.0918 H       1  UNL1        0.0620
     60 H           0.2369    5.6802    0.9050 H       1  UNL1        0.0683
     61 H           1.3866    1.8335    1.3415 H       1  UNL1        0.4466
     62 H           3.5358    1.9997    2.4310 H       1  UNL1        0.1189
@<TRIPOS>UNITY_ATOM_ATTR
33 1
charge 1
@<TRIPOS>BOND
     1     1     2    1
     2     2     3    1
     3     3     4    1
     4     4     5   ar
     5     5     6   ar
     6     6     7   ar
     7     7     8   ar
     8     8     9   ar
     9     4     9   ar
    10     9    10    1
    11    10    11    2
    12    11    12    1
    13    12    13    1
    14    13    14    2
    15    13    15   am
    16    15    16    1
    17    16    17    1
    18    17    18    1
    19    18    19    1
    20    19    20    1
    21    16    21    1
    22    21    22    2
    23    21    23    1
    24    23    24    1
    25    12    25    2
    26    25    26    1
    27    26    27    2
    28    27    28   ar
    29    28    29   ar
    30    29    30   ar
    31    30    31   ar
    32    31    32   ar
    33    27    32   ar
    34    32    33    2
    35    33    34    1
    36    10    34    1
    37    26    34    1
    38     1    35    1
    39     1    36    1
    40     1    37    1
    41     2    38    1
    42     2    39    1
    43     5    40    1
    44     6    41    1
    45     7    42    1
    46     8    43    1
    47    15    44    1
    48    16    45    1
    49    17    46    1
    50    17    47    1
    51    18    48    1
    52    18    49    1
    53    20    50    1
    54    20    51    1
    55    20    52    1
    56    24    53    1
    57    24    54    1
    58    24    55    1
    59    25    56    1
    60    28    57    1
    61    29    58    1
    62    30    59    1
    63    31    60    1
    64    33    61    1
    65    34    62    1
