REMARK  4 active torsions:
REMARK  status: ('A' for Active; 'I' for Inactive)
REMARK    1  A    between atoms: C_8  and  C_9 
REMARK    2  A    between atoms: C_10  and  C_11 
REMARK       I    between atoms: C_11  and  N_13 
REMARK    3  A    between atoms: N_13  and  N_14 
REMARK       I    between atoms: N_14  and  C_15 
REMARK       I    between atoms: C_15  and  N_17 
REMARK    4  A    between atoms: N_17  and  C_18 
ROOT
ATOM      1  N   UNL d   1      -3.082   0.379   0.092  0.00  0.00    -0.191 NA
ATOM      2  C   UNL d   1      -1.933   0.255   0.026  0.00  0.00     0.100 C 
ATOM      3  C   UNL d   1      -0.512   0.061  -0.040  0.00  0.00     0.054 A 
ATOM      4  C   UNL d   1       0.249   1.242  -0.038  0.00  0.00     0.023 A 
ATOM      5  C   UNL d   1       1.635   1.197   0.011  0.00  0.00     0.002 A 
ATOM      6  C   UNL d   1       2.273  -0.037   0.056  0.00  0.00     0.001 A 
ATOM      7  C   UNL d   1       1.521  -1.227   0.010  0.00  0.00     0.013 A 
ATOM      8  C   UNL d   1       0.105  -1.213  -0.057  0.00  0.00    -0.015 A 
ENDROOT
BRANCH   8   9
ATOM      9  C   UNL d   1      -0.625  -2.529  -0.127  0.00  0.00     0.018 C 
ATOM     10  C   UNL d   1      -1.960  -2.708  -0.242  0.00  0.00     0.076 C 
BRANCH  10  11
ATOM     11  C   UNL d   1      -2.693  -4.010  -0.297  0.00  0.00     0.259 C 
ATOM     12  O   UNL d   1      -2.101  -5.083  -0.281  0.00  0.00    -0.267 OA
ATOM     13  N   UNL d   1      -4.080  -3.888  -0.366  0.00  0.00    -0.263 N 
ATOM     14  H   UNL d   1      -4.591  -3.002  -0.376  0.00  0.00     0.190 HD
BRANCH  13  15
ATOM     15  N   UNL d   1      -4.882  -5.069  -0.455  0.00  0.00    -0.249 N 
ATOM     16  C   UNL d   1      -6.265  -4.966  -0.534  0.00  0.00     0.335 C 
ATOM     17  O   UNL d   1      -6.840  -3.880  -0.505  0.00  0.00    -0.246 OA
ATOM     18  N   UNL d   1      -6.931  -6.178  -0.681  0.00  0.00    -0.337 N 
ATOM     19  H   UNL d   1      -6.423  -7.047  -0.579  0.00  0.00     0.164 HD
ATOM     20  H   UNL d   1      -4.371  -5.945  -0.444  0.00  0.00     0.192 HD
BRANCH  18  21
ATOM     21  C   UNL d   1      -8.375  -6.259  -0.747  0.00  0.00     0.086 A 
ATOM     22  C   UNL d   1      -9.122  -5.526  -1.835  0.00  0.00     0.027 A 
ATOM     23  C   UNL d   1      -9.085  -7.025  -1.843  0.00  0.00     0.027 A 
ENDBRANCH  18  21
ENDBRANCH  13  15
ENDBRANCH  10  11
ENDBRANCH   8   9
TORSDOF 4
