@<TRIPOS>MOLECULE
*****
 58 62 0 0 0
SMALL
GASTEIGER

@<TRIPOS>ATOM
      1 O           1.1359   -0.0245    0.1465 O.2     1  UNL1       -0.2737
      2 C           2.3638   -0.0322    0.0304 C.2     1  UNL1        0.2351
      3 C           3.0684    0.1610   -1.3141 C.3     1  UNL1        0.1004
      4 N           2.1288    0.3616   -2.3749 N.am    1  UNL1       -0.2156
      5 C           1.5595   -0.6469   -3.0662 C.2     1  UNL1        0.3096
      6 O           1.6830   -1.8505   -2.8756 O.2     1  UNL1       -0.2522
      7 N           0.8464   -0.0959   -4.0897 N.am    1  UNL1       -0.2873
      8 C           0.7919    1.3468   -4.0395 C.3     1  UNL1        0.1055
      9 C          -0.5812    1.9316   -3.6846 C.3     1  UNL1        0.0014
     10 C          -1.6067    1.6673   -4.7501 C.ar    1  UNL1       -0.0201
     11 C          -2.2466    2.6041   -5.5385 C.ar    1  UNL1        0.0060
     12 N          -3.0550    1.9398   -6.4263 N.ar    1  UNL1       -0.3604
     13 C          -2.9877    0.5820   -6.2095 C.ar    1  UNL1        0.0467
     14 C          -3.6428   -0.4859   -6.8406 C.ar    1  UNL1       -0.0378
     15 C          -3.3719   -1.7851   -6.3870 C.ar    1  UNL1       -0.0598
     16 C          -2.5020   -2.0098   -5.3309 C.ar    1  UNL1       -0.0611
     17 C          -1.9265   -0.9302   -4.6709 C.ar    1  UNL1       -0.0523
     18 C          -2.1209    0.3869   -5.1370 C.ar    1  UNL1        0.0029
     19 C           1.7910    1.5754   -2.9099 C.2     1  UNL1        0.2441
     20 O           2.2187    2.6670   -2.5590 O.2     1  UNL1       -0.2731
     21 N           3.1473   -0.3135    1.1313 N.am    1  UNL1       -0.2842
     22 C           4.5499   -0.2626    1.2253 C.ar    1  UNL1        0.0335
     23 C           5.2348   -1.1966    1.9956 C.ar    1  UNL1       -0.0387
     24 C           6.6359   -1.1186    2.1045 C.ar    1  UNL1       -0.0389
     25 C           7.3868   -0.1461    1.4259 C.ar    1  UNL1        0.0299
     26 N           8.7592   -0.1442    1.4927 N.pl3   1  UNL1       -0.3255
     27 C           9.5466    1.0413    1.8433 C.3     1  UNL1        0.0357
     28 C          10.4960    1.4258    0.6985 C.3     1  UNL1        0.0634
     29 O          11.3123    0.3141    0.2894 O.3     1  UNL1       -0.3767
     30 C          10.4773   -0.7684   -0.1603 C.3     1  UNL1        0.0634
     31 C           9.5455   -1.2666    0.9626 C.3     1  UNL1        0.0357
     32 C           6.6768    0.8052    0.6997 C.ar    1  UNL1       -0.0389
     33 C           5.2821    0.7584    0.6225 C.ar    1  UNL1       -0.0387
     34 H           3.6824   -0.7209   -1.5300 H       1  UNL1        0.0566
     35 H           3.6774    1.0568   -1.3060 H       1  UNL1        0.0566
     36 H           0.4153   -0.6730   -4.7970 H       1  UNL1        0.1510
     37 H           1.1788    1.7228   -4.9891 H       1  UNL1        0.0598
     38 H          -0.4784    3.0175   -3.5472 H       1  UNL1        0.0337
     39 H          -0.9526    1.5414   -2.7277 H       1  UNL1        0.0337
     40 H          -2.1962    3.6861   -5.5424 H       1  UNL1        0.0810
     41 H          -3.6376    2.3826   -7.1236 H       1  UNL1        0.1653
     42 H          -4.3493   -0.3243   -7.6472 H       1  UNL1        0.0638
     43 H          -3.8717   -2.6357   -6.8426 H       1  UNL1        0.0618
     44 H          -2.2830   -3.0169   -4.9853 H       1  UNL1        0.0618
     45 H          -1.3211   -1.1303   -3.7923 H       1  UNL1        0.0624
     46 H           2.6203   -0.6316    1.9381 H       1  UNL1        0.1549
     47 H           4.7153   -2.0189    2.4821 H       1  UNL1        0.0637
     48 H           7.1530   -1.8119    2.7643 H       1  UNL1        0.0637
     49 H          10.1507    0.7672    2.7173 H       1  UNL1        0.0486
     50 H           8.9223    1.8931    2.1313 H       1  UNL1        0.0486
     51 H          11.1691    2.2245    1.0272 H       1  UNL1        0.0575
     52 H           9.9392    1.7918   -0.1713 H       1  UNL1        0.0575
     53 H          11.1366   -1.5777   -0.4907 H       1  UNL1        0.0575
     54 H           9.9040   -0.4282   -1.0311 H       1  UNL1        0.0575
     55 H          10.1570   -1.6581    1.7835 H       1  UNL1        0.0486
     56 H           8.9177   -2.0813    0.5855 H       1  UNL1        0.0486
     57 H           7.1886    1.6035    0.1710 H       1  UNL1        0.0637
     58 H           4.7915    1.5876    0.1283 H       1  UNL1        0.0637
@<TRIPOS>BOND
     1     1     2    2
     2     2     3    1
     3     3     4    1
     4     4     5   am
     5     5     6    2
     6     5     7   am
     7     7     8    1
     8     8     9    1
     9     9    10    1
    10    10    11   ar
    11    11    12   ar
    12    12    13   ar
    13    13    14   ar
    14    14    15   ar
    15    15    16   ar
    16    16    17   ar
    17    17    18   ar
    18    10    18   ar
    19    13    18   ar
    20     8    19    1
    21     4    19   am
    22    19    20    2
    23     2    21   am
    24    21    22    1
    25    22    23   ar
    26    23    24   ar
    27    24    25   ar
    28    25    26    1
    29    26    27    1
    30    27    28    1
    31    28    29    1
    32    29    30    1
    33    30    31    1
    34    26    31    1
    35    25    32   ar
    36    32    33   ar
    37    22    33   ar
    38     3    34    1
    39     3    35    1
    40     7    36    1
    41     8    37    1
    42     9    38    1
    43     9    39    1
    44    11    40    1
    45    12    41    1
    46    14    42    1
    47    15    43    1
    48    16    44    1
    49    17    45    1
    50    21    46    1
    51    23    47    1
    52    24    48    1
    53    27    49    1
    54    27    50    1
    55    28    51    1
    56    28    52    1
    57    30    53    1
    58    30    54    1
    59    31    55    1
    60    31    56    1
    61    32    57    1
    62    33    58    1
