REMARK  10 active torsions:
REMARK  status: ('A' for Active; 'I' for Inactive)
REMARK    1  A    between atoms: O_2  and  C_3 
REMARK    2  A    between atoms: C_6  and  O_7 
REMARK    3  A    between atoms: O_7  and  C_8 
REMARK    4  A    between atoms: C_8  and  C_9 
REMARK    5  A    between atoms: C_9  and  C_10 
REMARK       I    between atoms: C_10  and  N_12 
REMARK    6  A    between atoms: N_12  and  N_13 
REMARK    7  A    between atoms: N_13  and  C_14 
REMARK    8  A    between atoms: C_14  and  N_16 
REMARK    9  A    between atoms: N_16  and  C_17 
REMARK   10  A    between atoms: C_22  and  O_23 
ROOT
ATOM      1  C   UNL d   1       5.740  -6.791   4.539  0.00  0.00     0.238 C 
ATOM      2  O   UNL d   1       4.660  -7.248   4.124  0.00  0.00    -0.272 OA
ATOM      3  N   UNL d   1       6.614  -7.567   5.284  0.00  0.00    -0.268 N 
ATOM      4  H   UNL d   1       7.483  -7.205   5.676  0.00  0.00     0.190 HD
ENDROOT
BRANCH   3   5
ATOM      5  N   UNL d   1       6.330  -8.959   5.525  0.00  0.00    -0.274 N 
ATOM      6  H   UNL d   1       5.363  -9.237   5.359  0.00  0.00     0.189 HD
BRANCH   5   7
ATOM      7  C   UNL d   1       7.342  -9.875   5.889  0.00  0.00     0.191 C 
ATOM      8  S   UNL d   1       8.982  -9.532   5.684  0.00  0.00    -0.039 SA
BRANCH   7   9
ATOM      9  N   UNL d   1       6.819 -10.993   6.574  0.00  0.00    -0.330 N 
ATOM     10  H   UNL d   1       5.956 -11.379   6.210  0.00  0.00     0.168 HD
BRANCH   9  11
ATOM     11  C   UNL d   1       7.478 -11.828   7.548  0.00  0.00     0.068 A 
ATOM     12  C   UNL d   1       7.490 -13.220   7.297  0.00  0.00     0.032 A 
ATOM     13  C   UNL d   1       8.034 -14.141   8.213  0.00  0.00     0.002 A 
ATOM     14  C   UNL d   1       8.608 -13.690   9.393  0.00  0.00     0.003 A 
ATOM     15  C   UNL d   1       8.569 -12.330   9.681  0.00  0.00     0.039 A 
ATOM     16  C   UNL d   1       7.974 -11.395   8.802  0.00  0.00     0.095 A 
BRANCH  16  17
ATOM     17  O   UNL d   1       7.887 -10.170   9.419  0.00  0.00    -0.354 OA
ATOM     18  C   UNL d   1       7.173  -9.145   8.771  0.00  0.00     0.210 C 
ENDBRANCH  16  17
ENDBRANCH   9  11
ENDBRANCH   7   9
ENDBRANCH   5   7
ENDBRANCH   3   5
BRANCH   1  19
ATOM     19  C   UNL d   1       6.183  -5.350   4.259  0.00  0.00     0.131 C 
BRANCH  19  20
ATOM     20  C   UNL d   1       5.174  -4.616   3.354  0.00  0.00     0.185 C 
BRANCH  20  21
ATOM     21  O   UNL d   1       5.617  -3.285   3.022  0.00  0.00    -0.351 OA
BRANCH  21  22
ATOM     22  C   UNL d   1       4.738  -2.510   2.293  0.00  0.00     0.068 A 
ATOM     23  C   UNL d   1       5.119  -1.182   2.067  0.00  0.00     0.039 A 
ATOM     24  C   UNL d   1       4.269  -0.296   1.384  0.00  0.00     0.039 A 
ATOM     25  C   UNL d   1       3.052  -0.735   0.859  0.00  0.00     0.068 A 
ATOM     26  C   UNL d   1       2.676  -2.060   1.062  0.00  0.00     0.039 A 
ATOM     27  C   UNL d   1       3.514  -2.938   1.774  0.00  0.00     0.039 A 
BRANCH  25  28
ATOM     28  O   UNL d   1       2.383   0.173   0.087  0.00  0.00    -0.356 OA
ATOM     29  C   UNL d   1       0.966   0.057   0.022  0.00  0.00     0.210 C 
ENDBRANCH  25  28
ENDBRANCH  21  22
ENDBRANCH  20  21
ENDBRANCH  19  20
ENDBRANCH   1  19
TORSDOF 10
