@<TRIPOS>MOLECULE
*****
 63 66 0 0 0
SMALL
GASTEIGER

@<TRIPOS>ATOM
      1 C           2.5045    1.1061    0.0087 C.3     1  UNL1       -0.0397
      2 C           1.2003    0.3651    0.0048 C.ar    1  UNL1       -0.0501
      3 C           1.2147   -1.0176    0.0101 C.ar    1  UNL1       -0.0571
      4 C           0.0182   -1.7301   -0.0011 C.ar    1  UNL1       -0.0399
      5 C          -1.2480   -1.1227   -0.0258 C.ar    1  UNL1        0.0377
      6 N          -2.4441   -1.9241   -0.0642 N.am    1  UNL1       -0.2690
      7 C          -2.4594   -3.2843   -0.3470 C.2     1  UNL1        0.3082
      8 O          -1.4717   -3.9042   -0.7553 O.2     1  UNL1       -0.2522
      9 N          -3.6696   -3.9333   -0.1183 N.am    1  UNL1       -0.2675
     10 C          -3.6742   -5.3682   -0.0128 C.ar    1  UNL1        0.0576
     11 C          -4.5758   -6.1719   -0.7622 C.ar    1  UNL1       -0.0174
     12 C          -4.5880   -7.5795   -0.5969 C.ar    1  UNL1        0.0355
     13 N          -5.5972   -8.4007   -1.1782 N.am    1  UNL1       -0.2814
     14 C          -5.7762   -9.7630   -0.9176 C.2     1  UNL1        0.2497
     15 O          -5.1109  -10.4701   -0.1582 O.2     1  UNL1       -0.2698
     16 C          -6.8864  -10.4753   -1.5881 C.ar    1  UNL1        0.0553
     17 C          -7.5586  -11.4754   -0.8478 C.ar    1  UNL1       -0.0482
     18 C          -8.4779  -12.3236   -1.4678 C.ar    1  UNL1       -0.0610
     19 C          -8.7765  -12.1424   -2.8141 C.ar    1  UNL1       -0.0603
     20 C          -8.1199  -11.1526   -3.5487 C.ar    1  UNL1       -0.0427
     21 C          -7.1681  -10.3249   -2.9460 C.ar    1  UNL1        0.0531
     22 CL         -6.3650   -9.1853   -3.9646 Cl      1  UNL1       -0.0828
     23 C          -3.6092   -8.1563    0.2022 C.ar    1  UNL1       -0.0386
     24 C          -2.7384   -7.3794    0.9426 C.ar    1  UNL1       -0.0371
     25 C          -2.7603   -5.9868    0.8761 C.ar    1  UNL1        0.0514
     26 N          -1.9107   -5.3223    1.7378 N.pl3   1  UNL1       -0.3285
     27 C          -0.4716   -5.4476    1.5393 C.3     1  UNL1        0.0122
     28 C           0.1437   -5.7976    2.8850 C.3     1  UNL1       -0.0372
     29 C          -0.2759   -4.7750    3.9513 C.3     1  UNL1       -0.0502
     30 C          -1.7965   -4.5607    3.9900 C.3     1  UNL1       -0.0372
     31 C          -2.3391   -4.2418    2.6018 C.3     1  UNL1        0.0122
     32 C          -1.2765    0.2856    0.0012 C.ar    1  UNL1       -0.0290
     33 C          -2.5474    1.0908   -0.0036 C.3     1  UNL1       -0.0379
     34 C          -0.0458    1.0111    0.0018 C.ar    1  UNL1       -0.0542
     35 H           3.3539    0.4097    0.0027 H       1  UNL1        0.0278
     36 H           2.5945    1.7177    0.9106 H       1  UNL1        0.0278
     37 H           2.5959    1.7344   -0.8816 H       1  UNL1        0.0278
     38 H           2.1487   -1.5750    0.0136 H       1  UNL1        0.0621
     39 H           0.1432   -2.8022    0.0071 H       1  UNL1        0.0636
     40 H          -3.3340   -1.4579    0.0000 H       1  UNL1        0.1564
     41 H          -4.5381   -3.4588   -0.3044 H       1  UNL1        0.1564
     42 H          -5.2141   -5.7083   -1.5099 H       1  UNL1        0.0655
     43 H          -6.2686   -7.9457   -1.7852 H       1  UNL1        0.1551
     44 H          -7.3433  -11.6174    0.2127 H       1  UNL1        0.0625
     45 H          -8.9409  -13.1367   -0.9111 H       1  UNL1        0.0618
     46 H          -9.5133  -12.7779   -3.2992 H       1  UNL1        0.0618
     47 H          -8.3323  -11.0476   -4.6091 H       1  UNL1        0.0632
     48 H          -3.4913   -9.2262    0.3081 H       1  UNL1        0.0637
     49 H          -2.0737   -7.8825    1.6388 H       1  UNL1        0.0637
     50 H          -0.0548   -4.4896    1.2211 H       1  UNL1        0.0464
     51 H          -0.2006   -6.1812    0.7705 H       1  UNL1        0.0464
     52 H           1.2348   -5.8236    2.7952 H       1  UNL1        0.0280
     53 H          -0.1919   -6.7973    3.1826 H       1  UNL1        0.0280
     54 H           0.2134   -3.8155    3.7396 H       1  UNL1        0.0266
     55 H           0.0717   -5.1100    4.9326 H       1  UNL1        0.0266
     56 H          -2.0491   -3.7487    4.6784 H       1  UNL1        0.0280
     57 H          -2.2783   -5.4748    4.3576 H       1  UNL1        0.0280
     58 H          -1.9163   -3.2892    2.2663 H       1  UNL1        0.0464
     59 H          -3.4291   -4.1369    2.6371 H       1  UNL1        0.0464
     60 H          -3.4457    0.4731    0.0274 H       1  UNL1        0.0278
     61 H          -2.6057    1.6986   -0.9124 H       1  UNL1        0.0278
     62 H          -2.5844    1.7452    0.8739 H       1  UNL1        0.0278
     63 H          -0.0620    2.1012   -0.0078 H       1  UNL1        0.0623
@<TRIPOS>BOND
     1     1     2    1
     2     2     3   ar
     3     3     4   ar
     4     4     5   ar
     5     5     6    1
     6     6     7   am
     7     7     8    2
     8     7     9   am
     9     9    10    1
    10    10    11   ar
    11    11    12   ar
    12    12    13    1
    13    13    14   am
    14    14    15    2
    15    14    16    1
    16    16    17   ar
    17    17    18   ar
    18    18    19   ar
    19    19    20   ar
    20    20    21   ar
    21    16    21   ar
    22    21    22    1
    23    12    23   ar
    24    23    24   ar
    25    24    25   ar
    26    10    25   ar
    27    25    26    1
    28    26    27    1
    29    27    28    1
    30    28    29    1
    31    29    30    1
    32    30    31    1
    33    26    31    1
    34     5    32   ar
    35    32    33    1
    36    32    34   ar
    37     2    34   ar
    38     1    35    1
    39     1    36    1
    40     1    37    1
    41     3    38    1
    42     4    39    1
    43     6    40    1
    44     9    41    1
    45    11    42    1
    46    13    43    1
    47    17    44    1
    48    18    45    1
    49    19    46    1
    50    20    47    1
    51    23    48    1
    52    24    49    1
    53    27    50    1
    54    27    51    1
    55    28    52    1
    56    28    53    1
    57    29    54    1
    58    29    55    1
    59    30    56    1
    60    30    57    1
    61    31    58    1
    62    31    59    1
    63    33    60    1
    64    33    61    1
    65    33    62    1
    66    34    63    1
