@<TRIPOS>MOLECULE
*****
 65 69 0 0 0
SMALL
GASTEIGER

@<TRIPOS>ATOM
      1 N           2.1126   -0.0918   -0.4699 N.pl3   1  UNL1       -0.3375
      2 C           0.7387   -0.0787   -0.5419 C.ar    1  UNL1        0.2064
      3 N           0.0321    0.9906   -0.1586 N.ar    1  UNL1       -0.0319
      4 O          -1.2814    0.5612   -0.0340 O.2     1  UNL1       -0.2388
      5 N          -1.3771   -0.8224   -0.1758 N.ar    1  UNL1       -0.0272
      6 C          -0.1780   -1.2022   -0.6448 C.ar    1  UNL1        0.2407
      7 N           0.1630   -2.5726   -0.4383 N.ar    1  UNL1       -0.1830
      8 N          -0.1465   -3.7145   -1.1027 N.ar    1  UNL1       -0.0581
      9 N           0.4912   -4.7546   -0.5287 N.ar    1  UNL1       -0.1279
     10 C           1.1230   -4.3084    0.6065 C.ar    1  UNL1        0.1399
     11 C           1.9486   -5.2867    1.5490 C.3     1  UNL1        0.0155
     12 N           2.5437   -4.6555    2.8457 N.4     1  UNL1        0.2397
     13 C           3.6099   -3.4374    2.4140 C.3     1  UNL1       -0.0315
     14 C           3.6942   -2.3596    3.5657 C.3     1  UNL1       -0.0123
     15 C           2.4188   -2.0538    4.5035 C.3     1  UNL1       -0.0434
     16 C           1.6022   -3.2572    4.9451 C.3     1  UNL1       -0.0123
     17 C           1.2208   -4.2964    3.8536 C.3     1  UNL1       -0.0315
     18 C           0.8476   -2.9128    0.6600 C.ar    1  UNL1        0.1608
     19 C           1.1851   -1.9819    1.6651 C.2     1  UNL1        0.2838
     20 O           1.5840   -2.5980    2.5520 O.2     1  UNL1       -0.2667
     21 N           1.1382   -0.6121    1.9013 N.am    1  UNL1       -0.2016
     22 N           2.0463   -0.0251    2.8208 N.2     1  UNL1       -0.1874
     23 C           1.6252    0.9973    3.5131 C.2     1  UNL1        0.0528
     24 C           2.2811    1.5295    4.7685 C.ar    1  UNL1       -0.0052
     25 C           1.6027    2.4785    5.5444 C.ar    1  UNL1       -0.0496
     26 C           2.3000    3.2331    6.5101 C.ar    1  UNL1       -0.0193
     27 C           3.6250    2.9302    6.8427 C.ar    1  UNL1        0.1210
     28 O           4.2027    3.6844    7.8258 O.3     1  UNL1       -0.4874
     29 C           5.5333    3.3238    8.2494 C.3     1  UNL1        0.1146
     30 C           5.9119    4.2240    9.3984 C.ar    1  UNL1       -0.0104
     31 C           6.1647    3.7155   10.6796 C.ar    1  UNL1       -0.0554
     32 C           6.2165    4.5830   11.7719 C.ar    1  UNL1       -0.0614
     33 C           6.1672    5.9619   11.5747 C.ar    1  UNL1       -0.0617
     34 C           6.0177    6.4763   10.2896 C.ar    1  UNL1       -0.0614
     35 C           5.8972    5.6111    9.2060 C.ar    1  UNL1       -0.0554
     36 C           4.2517    1.8889    6.1693 C.ar    1  UNL1       -0.0193
     37 C           3.5823    1.1866    5.1518 C.ar    1  UNL1       -0.0496
     38 H           2.5349    0.7439   -0.0426 H       1  UNL1        0.1439
     39 H           2.6221   -0.8807   -0.0746 H       1  UNL1        0.1439
     40 H           2.8056   -5.7492    1.0256 H       1  UNL1        0.0884
     41 H           1.3468   -6.1445    1.9022 H       1  UNL1        0.0884
     42 H           3.1106   -5.3109    3.3904 H       1  UNL1        0.2037
     43 H           3.3090   -2.9938    1.4330 H       1  UNL1        0.0814
     44 H           4.5714   -3.8651    2.0725 H       1  UNL1        0.0814
     45 H           4.0715   -1.4200    3.1097 H       1  UNL1        0.0317
     46 H           4.4732   -2.6995    4.2382 H       1  UNL1        0.0317
     47 H           1.5706   -1.5012    4.0863 H       1  UNL1        0.0269
     48 H           2.6440   -1.3035    5.2573 H       1  UNL1        0.0269
     49 H           0.6572   -2.8265    5.3400 H       1  UNL1        0.0317
     50 H           2.1562   -3.7131    5.7474 H       1  UNL1        0.0317
     51 H           0.3555   -3.9660    3.2244 H       1  UNL1        0.0814
     52 H           0.8010   -5.2234    4.2576 H       1  UNL1        0.0814
     53 H           0.2626   -0.1372    1.7528 H       1  UNL1        0.1776
     54 H           0.7140    1.5139    3.1864 H       1  UNL1        0.0851
     55 H           0.5389    2.6645    5.4076 H       1  UNL1        0.0625
     56 H           1.8136    4.0925    6.9731 H       1  UNL1        0.0654
     57 H           6.2436    3.4732    7.4282 H       1  UNL1        0.0748
     58 H           5.5535    2.2779    8.5804 H       1  UNL1        0.0748
     59 H           6.2832    2.6476   10.8476 H       1  UNL1        0.0621
     60 H           6.2563    4.1860   12.7833 H       1  UNL1        0.0618
     61 H           6.2444    6.6356   12.4237 H       1  UNL1        0.0618
     62 H           5.9440    7.5485   10.1337 H       1  UNL1        0.0618
     63 H           5.7443    6.0153    8.2082 H       1  UNL1        0.0621
     64 H           5.2874    1.6365    6.3728 H       1  UNL1        0.0654
     65 H           4.1196    0.3842    4.6621 H       1  UNL1        0.0625
@<TRIPOS>UNITY_ATOM_ATTR
12 1
charge 1
@<TRIPOS>BOND
     1     1     2    1
     2     2     3   ar
     3     3     4   ar
     4     4     5   ar
     5     5     6   ar
     6     2     6   ar
     7     6     7    1
     8     7     8   ar
     9     8     9   ar
    10     9    10   ar
    11    10    11    1
    12    11    12    1
    13    12    13    1
    14    13    14    1
    15    14    15    1
    16    15    16    1
    17    16    17    1
    18    12    17    1
    19    10    18   ar
    20     7    18   ar
    21    18    19    1
    22    19    20    2
    23    19    21   am
    24    21    22    1
    25    22    23    2
    26    23    24    1
    27    24    25   ar
    28    25    26   ar
    29    26    27   ar
    30    27    28    1
    31    28    29    1
    32    29    30    1
    33    30    31   ar
    34    31    32   ar
    35    32    33   ar
    36    33    34   ar
    37    34    35   ar
    38    30    35   ar
    39    27    36   ar
    40    36    37   ar
    41    24    37   ar
    42     1    38    1
    43     1    39    1
    44    11    40    1
    45    11    41    1
    46    12    42    1
    47    13    43    1
    48    13    44    1
    49    14    45    1
    50    14    46    1
    51    15    47    1
    52    15    48    1
    53    16    49    1
    54    16    50    1
    55    17    51    1
    56    17    52    1
    57    21    53    1
    58    23    54    1
    59    25    55    1
    60    26    56    1
    61    29    57    1
    62    29    58    1
    63    31    59    1
    64    32    60    1
    65    33    61    1
    66    34    62    1
    67    35    63    1
    68    36    64    1
    69    37    65    1
