REMARK  4 active torsions:
REMARK  status: ('A' for Active; 'I' for Inactive)
REMARK       I    between atoms: N_1  and  C_2 
REMARK    1  A    between atoms: C_2  and  C_4 
REMARK    2  A    between atoms: C_7  and  C_8 
REMARK       I    between atoms: C_8  and  N_10 
REMARK    3  A    between atoms: N_10  and  N_11 
REMARK    4  A    between atoms: N_11  and  C_12 
ROOT
ATOM      1  C   UNL d   1       5.507  -1.390  -4.906  0.00  0.00     0.270 C 
ATOM      2  O   UNL d   1       6.443  -2.183  -4.813  0.00  0.00    -0.266 OA
ATOM      3  N   UNL d   1       5.098  -0.853  -6.133  0.00  0.00    -0.265 N 
ATOM      4  H   UNL d   1       4.199  -0.401  -6.238  0.00  0.00     0.190 HD
ENDROOT
BRANCH   1   5
ATOM      5  C   UNL d   1       4.735  -0.993  -3.667  0.00  0.00     0.033 A 
ATOM      6  C   UNL d   1       5.131  -1.505  -2.414  0.00  0.00     0.018 A 
ATOM      7  C   UNL d   1       4.378  -1.250  -1.252  0.00  0.00     0.018 A 
ATOM      8  C   UNL d   1       3.248  -0.429  -1.315  0.00  0.00     0.031 A 
ATOM      9  C   UNL d   1       2.871   0.120  -2.543  0.00  0.00     0.018 A 
ATOM     10  C   UNL d   1       3.608  -0.160  -3.706  0.00  0.00     0.018 A 
BRANCH   8  11
ATOM     11  C   UNL d   1       2.526  -0.061  -0.070  0.00  0.00     0.249 C 
ATOM     12  N   UNL d   1       1.164   0.005  -0.128  0.00  0.00    -0.366 N 
ATOM     13  H   UNL d   1       0.672   0.221   0.732  0.00  0.00     0.159 HD
ATOM     14  H   UNL d   1       0.620  -0.308  -0.920  0.00  0.00     0.159 HD
ATOM     15  O   UNL d   1       3.134   0.182   0.970  0.00  0.00    -0.268 OA
ENDBRANCH   8  11
ENDBRANCH   1   5
BRANCH   3  16
ATOM     16  N   UNL d   1       5.537  -1.505  -7.295  0.00  0.00    -0.298 N 
ATOM     17  H   UNL d   1       6.407  -2.039  -7.213  0.00  0.00     0.187 HD
BRANCH  16  18
ATOM     18  C   UNL d   1       5.207  -0.963  -8.551  0.00  0.00     0.048 A 
ATOM     19  C   UNL d   1       5.108  -1.847  -9.641  0.00  0.00     0.034 A 
ATOM     20  C   UNL d   1       4.743  -1.400 -10.917  0.00  0.00     0.044 A 
ATOM     21  C   UNL d   1       4.424  -0.065 -11.105  0.00  0.00     0.116 A 
ATOM     22  F   UNL d   1       4.008   0.354 -12.308  0.00  0.00    -0.206 F 
ATOM     23  C   UNL d   1       4.517   0.837 -10.053  0.00  0.00     0.044 A 
ATOM     24  C   UNL d   1       4.911   0.389  -8.781  0.00  0.00     0.034 A 
ENDBRANCH  16  18
ENDBRANCH   3  16
TORSDOF 4
