@<TRIPOS>MOLECULE
*****
 44 46 0 0 0
SMALL
GASTEIGER

@<TRIPOS>ATOM
      1 O           1.0214    0.0662    0.1813 O.2     1  UNL1       -0.2749
      2 C           2.2502    0.0632    0.0483 C.2     1  UNL1        0.2236
      3 C           2.9795    0.1082   -1.3084 C.3     1  UNL1        0.0777
      4 S           1.7984    0.1133   -2.6955 S.3     1  UNL1       -0.0750
      5 C           2.8120    0.2359   -4.1121 C.ar    1  UNL1        0.2105
      6 N           3.1984   -0.8411   -4.8061 N.ar    1  UNL1       -0.1443
      7 N           3.7578   -0.2691   -5.8945 N.ar    1  UNL1       -0.2446
      8 C           3.7251    1.1013   -5.8259 C.ar    1  UNL1        0.2317
      9 N           4.2625    1.9044   -6.7903 N.pl3   1  UNL1       -0.2054
     10 N           4.2128    3.2682   -6.6510 N.2     1  UNL1       -0.1875
     11 C           4.6772    4.0060   -7.6090 C.2     1  UNL1        0.0542
     12 C           4.6034    5.4889   -7.5208 C.ar    1  UNL1        0.0129
     13 C           4.8388    6.1124   -6.2866 C.ar    1  UNL1       -0.0503
     14 C           4.7823    7.5076   -6.1773 C.ar    1  UNL1       -0.0427
     15 C           4.4714    8.2805   -7.2943 C.ar    1  UNL1        0.0424
     16 CL          4.3944    9.9946   -7.1536 Cl      1  UNL1       -0.0835
     17 C           4.2249    7.6728   -8.5240 C.ar    1  UNL1       -0.0244
     18 C           4.3000    6.2773   -8.6400 C.ar    1  UNL1        0.0510
     19 CL          3.9649    5.5858  -10.1871 Cl      1  UNL1       -0.0828
     20 N           3.1151    1.4305   -4.7046 N.ar    1  UNL1       -0.1865
     21 N           2.9976    0.0100    1.1999 N.am    1  UNL1       -0.3105
     22 C           4.4383    0.0185    1.3066 C.3     1  UNL1        0.0382
     23 C           4.9301    0.0114    2.7344 C.ar    1  UNL1       -0.0120
     24 C           5.1273   -1.2165    3.3961 C.ar    1  UNL1       -0.0557
     25 C           5.6260   -1.2601    4.7032 C.ar    1  UNL1       -0.0614
     26 C           5.9333   -0.0797    5.3736 C.ar    1  UNL1       -0.0604
     27 C           5.7268    1.1455    4.7428 C.ar    1  UNL1       -0.0431
     28 C           5.2196    1.1928    3.4385 C.ar    1  UNL1        0.0456
     29 CL          4.9761    2.7544    2.7403 Cl      1  UNL1       -0.0832
     30 H           3.6180   -0.7773   -1.3836 H       1  UNL1        0.0475
     31 H           3.5969    1.0113   -1.3392 H       1  UNL1        0.0475
     32 H           4.1371   -0.8656   -6.6194 H       1  UNL1        0.1919
     33 H           4.7024    1.5081   -7.6193 H       1  UNL1        0.1774
     34 H           5.1314    3.5790   -8.5210 H       1  UNL1        0.0852
     35 H           5.0756    5.5171   -5.4065 H       1  UNL1        0.0625
     36 H           4.9771    7.9841   -5.2187 H       1  UNL1        0.0632
     37 H           3.9697    8.2856   -9.3860 H       1  UNL1        0.0647
     38 H           2.4431    0.0083    2.0501 H       1  UNL1        0.1490
     39 H           4.8208    0.8828    0.7568 H       1  UNL1        0.0512
     40 H           4.8155   -0.8642    0.7783 H       1  UNL1        0.0512
     41 H           4.9048   -2.1560    2.8922 H       1  UNL1        0.0621
     42 H           5.7803   -2.2171    5.1980 H       1  UNL1        0.0618
     43 H           6.3292   -0.1110    6.3862 H       1  UNL1        0.0618
     44 H           5.9659    2.0649    5.2725 H       1  UNL1        0.0632
@<TRIPOS>BOND
     1     1     2    2
     2     2     3    1
     3     3     4    1
     4     4     5    1
     5     5     6   ar
     6     6     7   ar
     7     7     8   ar
     8     8     9    1
     9     9    10    1
    10    10    11    2
    11    11    12    1
    12    12    13   ar
    13    13    14   ar
    14    14    15   ar
    15    15    16    1
    16    15    17   ar
    17    17    18   ar
    18    12    18   ar
    19    18    19    1
    20     8    20   ar
    21     5    20   ar
    22     2    21   am
    23    21    22    1
    24    22    23    1
    25    23    24   ar
    26    24    25   ar
    27    25    26   ar
    28    26    27   ar
    29    27    28   ar
    30    23    28   ar
    31    28    29    1
    32     3    30    1
    33     3    31    1
    34     7    32    1
    35     9    33    1
    36    11    34    1
    37    13    35    1
    38    14    36    1
    39    17    37    1
    40    21    38    1
    41    22    39    1
    42    22    40    1
    43    24    41    1
    44    25    42    1
    45    26    43    1
    46    27    44    1
