REMARK  4 active torsions:
REMARK  status: ('A' for Active; 'I' for Inactive)
REMARK       I    between atoms: C_2  and  N_3 
REMARK    1  A    between atoms: C_2  and  C_12 
REMARK    2  A    between atoms: N_3  and  N_4 
REMARK    3  A    between atoms: C_5  and  C_6 
REMARK    4  A    between atoms: C_14  and  C_15 
ROOT
ATOM      1  C   UNL d   1       3.106  -0.459  -1.179  0.00  0.00     0.148 A 
ATOM      2  C   UNL d   1       2.787  -0.201  -2.547  0.00  0.00     0.071 A 
ATOM      3  C   UNL d   1       3.642  -0.962  -3.318  0.00  0.00     0.062 A 
ATOM      4  N   UNL d   1       4.408  -1.636  -2.398  0.00  0.00    -0.277 N 
ATOM      5  N   UNL d   1       4.164  -1.294  -1.105  0.00  0.00    -0.169 NA
ATOM      6  H   UNL d   1       5.136  -2.318  -2.590  0.00  0.00     0.189 HD
ENDROOT
BRANCH   1   7
ATOM      7  C   UNL d   1       2.332   0.039  -0.013  0.00  0.00     0.292 C 
ATOM      8  O   UNL d   1       1.098   0.096  -0.085  0.00  0.00    -0.264 OA
ATOM      9  N   UNL d   1       3.050   0.478   1.109  0.00  0.00    -0.242 N 
ATOM     10  H   UNL d   1       4.065   0.485   1.096  0.00  0.00     0.192 HD
BRANCH   9  11
ATOM     11  N   UNL d   1       2.347   0.950   2.211  0.00  0.00    -0.182 NA
ATOM     12  C   UNL d   1       2.997   1.503   3.192  0.00  0.00     0.170 C 
BRANCH  12  13
ATOM     13  C   UNL d   1       2.296   2.010   4.413  0.00  0.00     0.075 A 
ATOM     14  C   UNL d   1       1.182   1.345   4.915  0.00  0.00     0.033 A 
ATOM     15  C   UNL d   1       0.572   1.836   6.071  0.00  0.00     0.004 A 
ATOM     16  C   UNL d   1       1.073   2.984   6.674  0.00  0.00     0.019 A 
ATOM     17  C   UNL d   1       2.188   3.583   6.105  0.00  0.00     0.117 A 
ATOM     18  N   UNL d   1       2.829   3.113   5.002  0.00  0.00    -0.260 NA
ENDBRANCH  12  13
ENDBRANCH   9  11
ENDBRANCH   1   7
BRANCH   3  19
ATOM     19  C   UNL d   1       3.772  -1.074  -4.773  0.00  0.00    -0.006 A 
ATOM     20  C   UNL d   1       4.072   0.067  -5.532  0.00  0.00     0.015 A 
ATOM     21  C   UNL d   1       4.185  -0.003  -6.927  0.00  0.00     0.026 A 
ATOM     22  C   UNL d   1       3.983  -1.215  -7.588  0.00  0.00     0.055 A 
ATOM     23 CL   UNL d   1       4.163  -1.238  -9.307  0.00  0.00    -0.083 Cl
ATOM     24  C   UNL d   1       3.654  -2.355  -6.847  0.00  0.00     0.056 A 
ATOM     25 CL   UNL d   1       3.342  -3.880  -7.602  0.00  0.00    -0.083 Cl
ATOM     26  C   UNL d   1       3.558  -2.285  -5.445  0.00  0.00     0.039 A 
ENDBRANCH   3  19
TORSDOF 4
