REMARK  10 active torsions:
REMARK  status: ('A' for Active; 'I' for Inactive)
REMARK    1  A    between atoms: C_2  and  C_3 
REMARK    2  A    between atoms: C_3  and  C_4 
REMARK    3  A    between atoms: C_4  and  S_5 
REMARK    4  A    between atoms: S_5  and  C_6 
REMARK    5  A    between atoms: C_9  and  C_10 
REMARK       I    between atoms: C_10  and  N_12 
REMARK    6  A    between atoms: N_12  and  C_13 
REMARK    7  A    between atoms: C_13  and  C_14 
REMARK    8  A    between atoms: C_14  and  C_15 
REMARK    9  A    between atoms: C_14  and  N_23 
REMARK   10  A    between atoms: C_18  and  O_19 
ROOT
ATOM      1  C   UNL d   1      13.296  -2.913   1.361  0.00  0.00     0.161 C 
ENDROOT
BRANCH   1   2
ATOM      2  N   UNL d   1      11.826  -2.944   1.257  0.00  0.00    -0.354 N 
ATOM      3  C   UNL d   1      11.122  -2.949   0.070  0.00  0.00     0.256 C 
ATOM      4  O   UNL d   1      11.706  -2.885  -1.012  0.00  0.00    -0.268 OA
ATOM      5  H   UNL d   1      11.296  -3.106   2.109  0.00  0.00     0.162 HD
BRANCH   3   6
ATOM      6  C   UNL d   1       9.628  -3.010   0.119  0.00  0.00     0.090 A 
ATOM      7  C   UNL d   1       8.894  -2.936  -1.049  0.00  0.00     0.139 A 
ATOM      8  N   UNL d   1       7.534  -2.925  -1.105  0.00  0.00    -0.234 NA
ATOM      9  C   UNL d   1       6.869  -2.992   0.058  0.00  0.00     0.189 A 
ATOM     10  N   UNL d   1       7.472  -3.091   1.246  0.00  0.00    -0.210 NA
ATOM     11  C   UNL d   1       8.824  -3.102   1.240  0.00  0.00     0.146 A 
ATOM     12 CL   UNL d   1       9.420  -3.251   2.855  0.00  0.00    -0.061 Cl
BRANCH   9  13
ATOM     13  S   UNL d   1       5.104  -3.165   0.028  0.00  0.00    -0.090 SA
BRANCH  13  14
ATOM     14  C   UNL d   1       4.557  -1.418   0.050  0.00  0.00     0.082 C 
BRANCH  14  15
ATOM     15  C   UNL d   1       3.021  -1.377   0.054  0.00  0.00     0.010 C 
BRANCH  15  16
ATOM     16  C   UNL d   1       2.480   0.056   0.053  0.00  0.00    -0.004 C 
ATOM     17  C   UNL d   1       0.957   0.069   0.054  0.00  0.00     0.005 C 
ENDBRANCH  15  16
ENDBRANCH  14  15
ENDBRANCH  13  14
ENDBRANCH   9  13
ENDBRANCH   3   6
ENDBRANCH   1   2
BRANCH   1  18
ATOM     18  C   UNL d   1      13.787  -3.082   2.846  0.00  0.00     0.238 C 
BRANCH  18  19
ATOM     19  C   UNL d   1      13.249  -4.388   3.413  0.00  0.00    -0.026 A 
ATOM     20  C   UNL d   1      12.760  -4.455   4.724  0.00  0.00     0.012 A 
ATOM     21  C   UNL d   1      12.633  -5.701   5.343  0.00  0.00     0.037 A 
ATOM     22  C   UNL d   1      12.896  -6.881   4.638  0.00  0.00     0.068 A 
ATOM     23  C   UNL d   1      13.327  -6.810   3.318  0.00  0.00     0.037 A 
ATOM     24  C   UNL d   1      13.474  -5.579   2.702  0.00  0.00     0.012 A 
BRANCH  22  25
ATOM     25  O   UNL d   1      12.703  -8.049   5.321  0.00  0.00    -0.356 OA
ATOM     26  C   UNL d   1      12.821  -9.244   4.548  0.00  0.00     0.210 C 
ENDBRANCH  22  25
ENDBRANCH  18  19
BRANCH  18  27
ATOM     27  N   UNL d   1      15.364  -3.009   3.002  0.00  0.00    -0.061 N 
ATOM     28  C   UNL d   1      15.814  -1.674   3.597  0.00  0.00     0.236 C 
ATOM     29  C   UNL d   1      17.329  -1.653   3.812  0.00  0.00     0.028 C 
ATOM     30  C   UNL d   1      17.754  -2.799   4.718  0.00  0.00     0.003 C 
ATOM     31  C   UNL d   1      17.449  -4.089   3.993  0.00  0.00     0.028 C 
ATOM     32  C   UNL d   1      15.953  -4.199   3.799  0.00  0.00     0.236 C 
ATOM     33  H   UNL d   1      15.756  -3.075   2.055  0.00  0.00     0.280 HD
ENDBRANCH  18  27
ENDBRANCH   1  18
TORSDOF 10
