@<TRIPOS>MOLECULE
*****
 56 59 0 0 0
SMALL
GASTEIGER

@<TRIPOS>ATOM
      1 C           7.6674   -3.3632    2.6759 C.3     1  UNL1        0.0790
      2 O           7.1425   -2.0667    2.4370 O.3     1  UNL1       -0.4913
      3 C           7.5100   -1.4560    1.2618 C.ar    1  UNL1        0.1653
      4 C           6.9202   -0.2088    1.0972 C.ar    1  UNL1       -0.0120
      5 C           7.2610    0.6470    0.0445 C.ar    1  UNL1       -0.0280
      6 C           6.6916    2.0765   -0.0185 C.3     1  UNL1        0.0476
      7 C           7.2009    2.8500    1.1866 C.2     1  UNL1        0.0240
      8 C           8.0352    3.9024    1.0488 C.2     1  UNL1        0.0172
      9 C           8.5628    4.6715    2.2401 C.3     1  UNL1       -0.0085
     10 C           7.6897    4.4837    3.5021 C.3     1  UNL1       -0.0228
     11 C           6.3100    5.1627    3.3101 C.3     1  UNL1       -0.0591
     12 C           8.3747    5.0980    4.7216 C.3     1  UNL1       -0.0591
     13 C           7.5074    2.9814    3.7287 C.3     1  UNL1        0.0157
     14 C           6.7142    2.4826    2.5560 C.2     1  UNL1        0.1621
     15 O           5.6426    1.9082    2.7342 O.2     1  UNL1       -0.2923
     16 N           8.3954    4.3369   -0.2125 N.pl3   1  UNL1       -0.3020
     17 C           7.9041    3.8314   -1.4044 C.ar    1  UNL1        0.1348
     18 N           8.3255    4.3711   -2.6040 N.ar    1  UNL1       -0.2080
     19 C           7.9299    3.7938   -3.6862 C.ar    1  UNL1        0.1705
     20 S           8.3878    4.2893   -5.2909 S.3     1  UNL1       -0.0912
     21 C           9.4505    5.7190   -4.9941 C.3     1  UNL1       -0.0107
     22 N           7.0930    2.7237   -3.7184 N.ar    1  UNL1       -0.3016
     23 C           6.5562    2.2020   -2.5892 C.ar    1  UNL1        0.2580
     24 O           5.7624    1.2611   -2.6253 O.2     1  UNL1       -0.2674
     25 C           7.0509    2.7832   -1.3287 C.ar    1  UNL1        0.0687
     26 C           8.1745    0.1515   -0.8963 C.ar    1  UNL1       -0.0120
     27 C           8.6960   -1.1459   -0.8270 C.ar    1  UNL1        0.1653
     28 O           9.4872   -1.4217   -1.9105 O.3     1  UNL1       -0.4913
     29 C          10.0717   -2.7014   -1.9851 C.3     1  UNL1        0.0790
     30 C           8.3773   -1.9430    0.2780 C.ar    1  UNL1        0.2010
     31 O           8.8622   -3.1940    0.5056 O.3     1  UNL1       -0.5009
     32 H           7.2972   -3.7268    3.6338 H       1  UNL1        0.0660
     33 H           8.7620   -3.3359    2.7494 H       1  UNL1        0.0660
     34 H           7.3101   -4.0615    1.9102 H       1  UNL1        0.0660
     35 H           6.1924    0.0662    1.8495 H       1  UNL1        0.0658
     36 H           5.5934    2.0419    0.0362 H       1  UNL1        0.0450
     37 H           8.6351    5.7394    2.0036 H       1  UNL1        0.0331
     38 H           9.5853    4.3168    2.4339 H       1  UNL1        0.0331
     39 H           6.4221    6.2373    3.1491 H       1  UNL1        0.0235
     40 H           5.6701    4.9957    4.1828 H       1  UNL1        0.0235
     41 H           5.7587    4.7801    2.4427 H       1  UNL1        0.0235
     42 H           8.5176    6.1738    4.5825 H       1  UNL1        0.0235
     43 H           9.3539    4.6413    4.8992 H       1  UNL1        0.0235
     44 H           7.7675    4.9496    5.6218 H       1  UNL1        0.0235
     45 H           6.9463    2.7780    4.6490 H       1  UNL1        0.0350
     46 H           8.4570    2.4344    3.7978 H       1  UNL1        0.0350
     47 H           8.9794    5.1608   -0.3095 H       1  UNL1        0.1533
     48 H           9.7708    6.1250   -5.9608 H       1  UNL1        0.0345
     49 H          10.3495    5.4390   -4.4388 H       1  UNL1        0.0345
     50 H           8.9189    6.5126   -4.4625 H       1  UNL1        0.0345
     51 H           6.8262    2.3081   -4.5975 H       1  UNL1        0.1708
     52 H           8.4984    0.7597   -1.7368 H       1  UNL1        0.0658
     53 H          10.6606   -2.7922   -2.8961 H       1  UNL1        0.0660
     54 H           9.2902   -3.4696   -2.0384 H       1  UNL1        0.0660
     55 H          10.7612   -2.8365   -1.1437 H       1  UNL1        0.0660
     56 H           9.3249   -3.6049   -0.2183 H       1  UNL1        0.2924
@<TRIPOS>BOND
     1     1     2    1
     2     2     3    1
     3     3     4   ar
     4     4     5   ar
     5     6     7    1
     6     7     8    2
     7     8     9    1
     8     9    10    1
     9    10    11    1
    10    10    12    1
    11    10    13    1
    12    13    14    1
    13     7    14    1
    14    14    15    2
    15     8    16    1
    16    16    17    1
    17    17    18   ar
    18    18    19   ar
    19    19    20    1
    20    20    21    1
    21    19    22   ar
    22    22    23   ar
    23    23    24    2
    24    23    25   ar
    25    17    25   ar
    26     6    25    1
    27     5    26   ar
    28    26    27   ar
    29    27    28    1
    30    28    29    1
    31    27    30   ar
    32     3    30   ar
    33    30    31    1
    34     6     5    1
    35     1    32    1
    36     1    33    1
    37     1    34    1
    38     4    35    1
    39     6    36    1
    40     9    37    1
    41     9    38    1
    42    11    39    1
    43    11    40    1
    44    11    41    1
    45    12    42    1
    46    12    43    1
    47    12    44    1
    48    13    45    1
    49    13    46    1
    50    16    47    1
    51    21    48    1
    52    21    49    1
    53    21    50    1
    54    22    51    1
    55    26    52    1
    56    29    53    1
    57    29    54    1
    58    29    55    1
    59    31    56    1
