@<TRIPOS>MOLECULE
*****
 54 58 0 0 0
SMALL
GASTEIGER

@<TRIPOS>ATOM
      1 C           0.9361   -0.0302    0.0842 C.3     1  UNL1       -0.0427
      2 N           2.4296   -0.0232    0.0284 N.4     1  UNL1        0.2369
      3 C           2.9372    1.1267   -0.8352 C.3     1  UNL1       -0.0277
      4 C           4.4400    1.3002   -0.6441 C.3     1  UNL1        0.0144
      5 C           5.1428   -0.0047   -0.7972 C.ar    1  UNL1       -0.0131
      6 C           4.4905   -1.2175   -0.6844 C.ar    1  UNL1        0.0400
      7 S           5.5496   -2.5307   -0.9419 S.2     1  UNL1       -0.0724
      8 C           6.8640   -1.4823   -1.2339 C.ar    1  UNL1        0.0799
      9 C           6.5210   -0.1606   -1.0908 C.ar    1  UNL1        0.0687
     10 C           7.5113    0.8776   -1.2704 C.2     1  UNL1        0.2483
     11 O           7.2566    2.0740   -1.1201 O.2     1  UNL1       -0.2701
     12 N           8.7455    0.4519   -1.6267 N.am    1  UNL1       -0.2891
     13 C           9.1797   -0.9151   -1.5730 C.3     1  UNL1        0.1142
     14 C          10.0447   -1.1491   -0.3661 C.ar    1  UNL1       -0.0060
     15 C           9.6434   -0.8074    0.9316 C.ar    1  UNL1       -0.0550
     16 C          10.5616   -0.8180    1.9781 C.ar    1  UNL1       -0.0579
     17 C          11.8692   -1.2478    1.7503 C.ar    1  UNL1       -0.0193
     18 C          12.2569   -1.6485    0.4686 C.ar    1  UNL1        0.1291
     19 O          13.5974   -1.9004    0.2677 O.3     1  UNL1       -0.4492
     20 C          14.0810   -1.9406   -1.0247 C.ar    1  UNL1        0.2054
     21 C          14.7292   -3.1467   -1.3494 C.ar    1  UNL1       -0.0061
     22 C          15.3070   -3.3378   -2.6084 C.ar    1  UNL1        0.0195
     23 C          15.1506   -2.3577   -3.5923 C.ar    1  UNL1        0.2799
     24 N          15.6095   -2.6217   -4.9650 N.pl3   1  UNL1        0.0798
     25 O          16.1651   -3.7053   -5.1859 O.2     1  UNL1        0.0414
     26 O          15.3787   -1.7565   -5.8198 O.co2   1  UNL1       -0.5760
     27 C          14.5097   -1.1483   -3.2932 C.ar    1  UNL1        0.0964
     28 C          14.0080   -0.9167   -1.9951 C.ar    1  UNL1        0.3212
     29 N          13.3410    0.3845   -1.7689 N.pl3   1  UNL1        0.0837
     30 O          13.0328    1.0389   -2.7759 O.2     1  UNL1        0.0416
     31 O          13.0850    0.7507   -0.6188 O.co2   1  UNL1       -0.5759
     32 C          11.3266   -1.6476   -0.5684 C.ar    1  UNL1       -0.0128
     33 N           8.1021   -1.8727   -1.5830 N.pl3   1  UNL1       -0.3162
     34 C           3.0232   -1.3642   -0.4276 C.3     1  UNL1        0.0005
     35 H           0.6098    0.9380    0.4766 H       1  UNL1        0.0778
     36 H           0.6185   -0.8305    0.7551 H       1  UNL1        0.0778
     37 H           0.5538   -0.1811   -0.9285 H       1  UNL1        0.0778
     38 H           2.7806    0.1327    0.9831 H       1  UNL1        0.2034
     39 H           2.4104    2.0381   -0.5390 H       1  UNL1        0.0818
     40 H           2.6877    0.8754   -1.8730 H       1  UNL1        0.0818
     41 H           4.6577    1.6993    0.3533 H       1  UNL1        0.0366
     42 H           4.7997    2.0191   -1.3863 H       1  UNL1        0.0366
     43 H           9.4564    1.1731   -1.6228 H       1  UNL1        0.1511
     44 H           9.7593   -1.0444   -2.4956 H       1  UNL1        0.0759
     45 H           8.6206   -0.4963    1.1242 H       1  UNL1        0.0621
     46 H          10.2676   -0.4416    2.9550 H       1  UNL1        0.0619
     47 H          12.5886   -1.2217    2.5652 H       1  UNL1        0.0654
     48 H          14.7687   -3.9579   -0.6214 H       1  UNL1        0.0659
     49 H          15.8636   -4.2532   -2.8077 H       1  UNL1        0.0686
     50 H          14.3990   -0.3905   -4.0691 H       1  UNL1        0.0755
     51 H          11.6120   -1.9169   -1.5797 H       1  UNL1        0.0658
     52 H           8.3990   -2.8401   -1.4862 H       1  UNL1        0.1486
     53 H           2.8075   -2.0884    0.3646 H       1  UNL1        0.0872
     54 H           2.4945   -1.6438   -1.3457 H       1  UNL1        0.0872
@<TRIPOS>UNITY_ATOM_ATTR
2 1
charge 1
24 1
charge 1
26 1
charge -1
29 1
charge 1
31 1
charge -1
@<TRIPOS>BOND
     1     1     2    1
     2     2     3    1
     3     3     4    1
     4     4     5    1
     5     5     6   ar
     6     6     7   ar
     7     7     8   ar
     8     8     9   ar
     9     5     9   ar
    10     9    10    1
    11    10    11    2
    12    10    12   am
    13    12    13    1
    14    14    15   ar
    15    15    16   ar
    16    16    17   ar
    17    17    18   ar
    18    18    19    1
    19    19    20    1
    20    20    21   ar
    21    21    22   ar
    22    22    23   ar
    23    23    24    1
    24    24    25    2
    25    24    26    1
    26    23    27   ar
    27    27    28   ar
    28    20    28   ar
    29    28    29    1
    30    29    30    2
    31    29    31    1
    32    18    32   ar
    33    14    32   ar
    34    13    33    1
    35     8    33    1
    36     6    34    1
    37     2    34    1
    38    13    14    1
    39     1    35    1
    40     1    36    1
    41     1    37    1
    42     2    38    1
    43     3    39    1
    44     3    40    1
    45     4    41    1
    46     4    42    1
    47    12    43    1
    48    13    44    1
    49    15    45    1
    50    16    46    1
    51    17    47    1
    52    21    48    1
    53    22    49    1
    54    27    50    1
    55    32    51    1
    56    33    52    1
    57    34    53    1
    58    34    54    1
