@<TRIPOS>MOLECULE
*****
 48 51 0 0 0
SMALL
GASTEIGER

@<TRIPOS>ATOM
      1 C           0.9574   -0.0536    0.0149 C.2     1  UNL1       -0.1018
      2 C           2.2993   -0.0810    0.0018 C.2     1  UNL1       -0.0809
      3 C           3.1117   -1.1900   -0.6267 C.3     1  UNL1        0.0180
      4 S           4.8937   -0.8108   -0.4980 S.3     1  UNL1       -0.0947
      5 C           5.6373   -2.1950   -1.2827 C.ar    1  UNL1        0.1360
      6 N           5.2580   -3.4160   -1.0078 N.ar    1  UNL1       -0.2327
      7 C           6.0144   -4.3127   -1.7413 C.ar    1  UNL1        0.0796
      8 C           5.8563   -5.6955   -1.6997 C.ar    1  UNL1       -0.0334
      9 C           6.6370   -6.5027   -2.5220 C.ar    1  UNL1       -0.0384
     10 C           7.6040   -6.0059   -3.3985 C.ar    1  UNL1        0.0346
     11 N           8.3673   -6.8935   -4.2362 N.am    1  UNL1       -0.2848
     12 C           8.2023   -8.2858   -4.2480 C.2     1  UNL1        0.2275
     13 O           7.3865   -8.8851   -3.5378 O.2     1  UNL1       -0.2746
     14 C           9.0953   -9.0981   -5.1875 C.3     1  UNL1        0.0780
     15 S           8.7131  -10.8719   -4.9611 S.3     1  UNL1       -0.0752
     16 C           9.6163  -11.8490   -6.0483 C.ar    1  UNL1        0.2091
     17 N           9.4889  -13.1596   -6.0776 N.ar    1  UNL1       -0.1205
     18 N          10.2868  -13.6455   -7.0813 N.ar    1  UNL1       -0.1267
     19 C          10.9199  -12.6265   -7.6320 C.ar    1  UNL1        0.1816
     20 C          11.8996  -12.7272   -8.7049 C.ar    1  UNL1        0.0208
     21 C          11.5664  -13.3471   -9.9158 C.ar    1  UNL1       -0.0510
     22 C          12.5461  -13.5583  -10.8887 C.ar    1  UNL1       -0.0611
     23 C          13.8447  -13.0929  -10.6854 C.ar    1  UNL1       -0.0617
     24 C          14.1774  -12.4518   -9.4941 C.ar    1  UNL1       -0.0611
     25 C          13.2124  -12.2822   -8.5023 C.ar    1  UNL1       -0.0510
     26 N          10.5157  -11.4575   -7.0087 N.ar    1  UNL1       -0.2237
     27 N          10.8867  -10.1147   -7.3931 N.pl3   1  UNL1       -0.2945
     28 C           7.7992   -4.6085   -3.4323 C.ar    1  UNL1       -0.0246
     29 C           6.9871   -3.7806   -2.5936 C.ar    1  UNL1        0.0418
     30 S           6.9490   -2.0582   -2.3915 S.2     1  UNL1       -0.0609
     31 H           0.4189    0.7681    0.4819 H       1  UNL1        0.0532
     32 H           0.3618   -0.8439   -0.4315 H       1  UNL1        0.0532
     33 H           2.8227    0.7480    0.4756 H       1  UNL1        0.0575
     34 H           2.8462   -1.2713   -1.6862 H       1  UNL1        0.0423
     35 H           2.8820   -2.1364   -0.1253 H       1  UNL1        0.0423
     36 H           5.1198   -6.1535   -1.0486 H       1  UNL1        0.0640
     37 H           6.4130   -7.5544   -2.4210 H       1  UNL1        0.0637
     38 H           9.0511   -6.4696   -4.8545 H       1  UNL1        0.1548
     39 H          10.1343   -8.9166   -4.9016 H       1  UNL1        0.0475
     40 H           8.8937   -8.7894   -6.2161 H       1  UNL1        0.0475
     41 H          10.5473  -13.6830  -10.1020 H       1  UNL1        0.0625
     42 H          12.3018  -14.1050  -11.7965 H       1  UNL1        0.0618
     43 H          14.6015  -13.2423  -11.4513 H       1  UNL1        0.0618
     44 H          15.1958  -12.1137   -9.3230 H       1  UNL1        0.0618
     45 H          13.5008  -11.8298   -7.5570 H       1  UNL1        0.0625
     46 H          11.7455  -10.1062   -7.9403 H       1  UNL1        0.1627
     47 H          11.0759   -9.5311   -6.5883 H       1  UNL1        0.1627
     48 H           8.5353   -4.1442   -4.0833 H       1  UNL1        0.0648
@<TRIPOS>BOND
     1     1     2    2
     2     2     3    1
     3     3     4    1
     4     4     5    1
     5     5     6   ar
     6     6     7   ar
     7     7     8   ar
     8     8     9   ar
     9     9    10   ar
    10    10    11    1
    11    11    12   am
    12    12    13    2
    13    12    14    1
    14    14    15    1
    15    15    16    1
    16    16    17   ar
    17    17    18   ar
    18    18    19   ar
    19    19    20    1
    20    20    21   ar
    21    21    22   ar
    22    22    23   ar
    23    23    24   ar
    24    24    25   ar
    25    20    25   ar
    26    19    26   ar
    27    16    26   ar
    28    26    27    1
    29    10    28   ar
    30    28    29   ar
    31     7    29   ar
    32    29    30   ar
    33     5    30   ar
    34     1    31    1
    35     1    32    1
    36     2    33    1
    37     3    34    1
    38     3    35    1
    39     8    36    1
    40     9    37    1
    41    11    38    1
    42    14    39    1
    43    14    40    1
    44    21    41    1
    45    22    42    1
    46    23    43    1
    47    24    44    1
    48    25    45    1
    49    27    46    1
    50    27    47    1
    51    28    48    1
