REMARK  9 active torsions:
REMARK  status: ('A' for Active; 'I' for Inactive)
REMARK    1  A    between atoms: C_2  and  O_3 
REMARK    2  A    between atoms: O_3  and  C_4 
REMARK    3  A    between atoms: C_7  and  C_8 
REMARK       I    between atoms: C_8  and  N_10 
REMARK       I    between atoms: C_11  and  N_12 
REMARK       I    between atoms: C_11  and  N_23 
REMARK    4  A    between atoms: N_12  and  C_13 
REMARK    5  A    between atoms: C_13  and  C_14 
REMARK    6  A    between atoms: C_14  and  C_15 
REMARK    7  A    between atoms: N_23  and  C_24 
REMARK    8  A    between atoms: C_33  and  O_34 
REMARK    9  A    between atoms: O_34  and  C_35 
ROOT
ATOM      1  C   UNL d   1       8.306   2.252   0.970  0.00  0.00     0.294 C 
ATOM      2  O   UNL d   1       8.425   2.560   2.131  0.00  0.00    -0.265 OA
ATOM      3  N   UNL d   1       9.281   1.996  -0.005  0.00  0.00    -0.023 NA
ATOM      4  C   UNL d   1      10.530   2.395   0.117  0.00  0.00     0.704 C 
ATOM      5  N   UNL d   1      11.106   3.163   1.121  0.00  0.00    -0.224 N 
ATOM      6  N   UNL d   1      11.454   2.113  -0.899  0.00  0.00    -0.190 N 
ATOM      7  H   UNL d   1      12.100   3.321   1.052  0.00  0.00     0.177 HD
ATOM      8  H   UNL d   1      11.082   1.628  -1.710  0.00  0.00     0.184 HD
ENDROOT
BRANCH   5   9
ATOM      9  C   UNL d   1      10.553   3.233   2.456  0.00  0.00     0.143 C 
BRANCH   9  10
ATOM     10  C   UNL d   1      11.324   3.655   3.671  0.00  0.00     0.063 C 
BRANCH  10  11
ATOM     11  C   UNL d   1      10.359   3.906   4.823  0.00  0.00    -0.007 A 
ATOM     12  C   UNL d   1       9.956   5.177   5.327  0.00  0.00     0.059 A 
ATOM     13  C   UNL d   1      10.322   6.530   4.846  0.00  0.00     0.073 C 
ATOM     14  N   UNL d   1       9.127   5.068   6.369  0.00  0.00    -0.177 NA
ATOM     15  N   UNL d   1       8.925   3.751   6.499  0.00  0.00    -0.278 N 
ATOM     16  C   UNL d   1       8.076   3.279   7.571  0.00  0.00     0.179 C 
ATOM     17  C   UNL d   1       9.587   3.001   5.556  0.00  0.00     0.034 A 
ATOM     18  C   UNL d   1       9.403   1.527   5.445  0.00  0.00     0.070 C 
ENDBRANCH  10  11
ENDBRANCH   9  10
ENDBRANCH   5   9
BRANCH   6  19
ATOM     19  C   UNL d   1      12.883   2.093  -0.853  0.00  0.00     0.055 A 
ATOM     20  C   UNL d   1      13.615   2.607  -1.950  0.00  0.00     0.030 A 
ATOM     21  C   UNL d   1      15.018   2.657  -1.937  0.00  0.00     0.003 A 
ATOM     22  C   UNL d   1      15.717   2.260  -0.804  0.00  0.00     0.007 A 
ATOM     23  C   UNL d   1      15.028   1.716   0.285  0.00  0.00    -0.054 A 
ATOM     24  C   UNL d   1      15.803   1.222   1.474  0.00  0.00     0.049 C 
ATOM     25  C   UNL d   1      13.616   1.594   0.256  0.00  0.00    -0.029 A 
ATOM     26  C   UNL d   1      12.931   0.881   1.398  0.00  0.00     0.051 C 
ENDBRANCH   6  19
BRANCH   1  27
ATOM     27  C   UNL d   1       6.884   2.005   0.793  0.00  0.00     0.037 A 
ATOM     28  C   UNL d   1       6.027   2.242   1.903  0.00  0.00     0.020 A 
ATOM     29  C   UNL d   1       4.704   1.845   1.884  0.00  0.00     0.040 A 
ATOM     30  C   UNL d   1       4.172   1.310   0.707  0.00  0.00     0.102 A 
ATOM     31  C   UNL d   1       5.048   1.152  -0.434  0.00  0.00     0.102 A 
ATOM     32  C   UNL d   1       6.399   1.469  -0.359  0.00  0.00     0.056 A 
BRANCH  30  33
ATOM     33  O   UNL d   1       2.789   1.235   0.791  0.00  0.00    -0.349 OA
BRANCH  33  34
ATOM     34  C   UNL d   1       2.145  -0.005   0.533  0.00  0.00     0.171 C 
ATOM     35  C   UNL d   1       0.644   0.047   0.402  0.00  0.00     0.034 C 
ENDBRANCH  33  34
ENDBRANCH  30  33
BRANCH  31  36
ATOM     36  O   UNL d   1       4.833   0.757  -1.749  0.00  0.00    -0.349 OA
BRANCH  36  37
ATOM     37  C   UNL d   1       3.575   0.209  -1.861  0.00  0.00     0.171 C 
ATOM     38  C   UNL d   1       3.050  -0.407  -3.114  0.00  0.00     0.034 C 
ENDBRANCH  36  37
ENDBRANCH  31  36
ENDBRANCH   1  27
TORSDOF 9
