@<TRIPOS>MOLECULE
*****
 65 67 0 0 0
SMALL
GASTEIGER

@<TRIPOS>ATOM
      1 C           2.6041    0.1071   -4.2102 C.3     1  UNL1       -0.0376
      2 C           3.4261   -0.3391   -3.0552 C.ar    1  UNL1       -0.0149
      3 C           4.0013    0.4641   -2.0657 C.ar    1  UNL1        0.1018
      4 C           4.0091    1.8993   -1.8222 C.2     1  UNL1        0.3465
      5 O           4.5249    2.4482   -0.8604 O.2     1  UNL1       -0.2444
      6 O           3.3580    2.5523   -2.8225 O.3     1  UNL1       -0.4581
      7 C           3.2877    3.9842   -2.7336 C.3     1  UNL1        0.0978
      8 C           4.6812    4.5869   -2.8600 C.3     1  UNL1       -0.0280
      9 C           2.4217    4.4842   -3.8900 C.3     1  UNL1       -0.0280
     10 S           4.8344   -0.4848   -0.9042 S.2     1  UNL1       -0.0617
     11 C           4.2888   -1.9117   -1.6156 C.ar    1  UNL1        0.1166
     12 N           4.5278   -3.0889   -1.0350 N.ar    1  UNL1       -0.2211
     13 C           4.4258   -4.1444   -1.7605 C.ar    1  UNL1        0.1564
     14 C           5.0370   -5.4354   -1.2197 C.3     1  UNL1        0.0278
     15 N           6.0229   -5.3126    0.0030 N.4     1  UNL1        0.2443
     16 C           6.7186   -3.9690    0.1623 C.3     1  UNL1       -0.0013
     17 C           6.8938   -3.4983    1.6019 C.3     1  UNL1        0.1286
     18 O           6.8089   -4.5633    2.5331 O.3     1  UNL1       -0.3831
     19 C           8.1955   -2.7063    1.6009 C.3     1  UNL1        0.1204
     20 O           8.5266   -2.4173    2.9481 O.3     1  UNL1       -0.4892
     21 C           9.6914   -1.7155    3.0456 C.ar    1  UNL1        0.1207
     22 C          10.6169   -2.1810    3.9733 C.ar    1  UNL1       -0.0186
     23 C          11.8789   -1.5975    4.0288 C.ar    1  UNL1       -0.0399
     24 C          12.1045   -0.3951    3.3637 C.ar    1  UNL1        0.0412
     25 CL         13.5681    0.4635    3.6284 Cl      1  UNL1       -0.0835
     26 C          11.1306    0.1414    2.5259 C.ar    1  UNL1       -0.0399
     27 C           9.9520   -0.5646    2.3025 C.ar    1  UNL1       -0.0186
     28 C           7.0795   -6.4339   -0.0536 C.3     1  UNL1       -0.0261
     29 C           8.0663   -6.3834    1.1036 C.3     1  UNL1       -0.0218
     30 C           6.4156   -7.7974   -0.0176 C.3     1  UNL1       -0.0218
     31 N           3.8377   -4.1197   -2.9955 N.ar    1  UNL1       -0.3061
     32 C           3.3205   -2.9498   -3.5347 C.ar    1  UNL1        0.2602
     33 O           2.6174   -2.9780   -4.5478 O.2     1  UNL1       -0.2671
     34 C           3.6704   -1.7348   -2.8145 C.ar    1  UNL1        0.0756
     35 H           2.4709    1.1824   -4.2653 H       1  UNL1        0.0278
     36 H           1.6066   -0.3350   -4.1285 H       1  UNL1        0.0278
     37 H           3.0758   -0.2148   -5.1411 H       1  UNL1        0.0278
     38 H           2.8086    4.2594   -1.7868 H       1  UNL1        0.0728
     39 H           5.1483    4.2729   -3.7997 H       1  UNL1        0.0265
     40 H           5.3479    4.2516   -2.0623 H       1  UNL1        0.0265
     41 H           4.6389    5.6770   -2.8185 H       1  UNL1        0.0265
     42 H           2.8476    4.1909   -4.8572 H       1  UNL1        0.0265
     43 H           2.3391    5.5756   -3.8678 H       1  UNL1        0.0265
     44 H           1.4141    4.0574   -3.8493 H       1  UNL1        0.0265
     45 H           5.6055   -5.9096   -2.0282 H       1  UNL1        0.0897
     46 H           4.2313   -6.1027   -0.8996 H       1  UNL1        0.0897
     47 H           5.4618   -5.4171    0.8679 H       1  UNL1        0.2041
     48 H           7.5748   -3.9518   -0.5185 H       1  UNL1        0.0841
     49 H           6.1664   -3.1269   -0.1660 H       1  UNL1        0.0841
     50 H           6.0751   -2.8240    1.8848 H       1  UNL1        0.0681
     51 H           7.7002   -4.6788    2.9172 H       1  UNL1        0.2102
     52 H           8.0323   -1.8062    0.9932 H       1  UNL1        0.0725
     53 H           9.0027   -3.2872    1.1315 H       1  UNL1        0.0725
     54 H          10.3628   -2.9935    4.6482 H       1  UNL1        0.0654
     55 H          12.6673   -2.0671    4.6092 H       1  UNL1        0.0633
     56 H          11.2791    1.1056    2.0482 H       1  UNL1        0.0633
     57 H           9.2358   -0.1685    1.5903 H       1  UNL1        0.0654
     58 H           7.6268   -6.2781   -0.9904 H       1  UNL1        0.0846
     59 H           7.5419   -6.5737    2.0449 H       1  UNL1        0.0284
     60 H           8.6061   -5.4370    1.1203 H       1  UNL1        0.0284
     61 H           8.8409   -7.1489    1.0416 H       1  UNL1        0.0284
     62 H           5.8002   -7.9095    0.8811 H       1  UNL1        0.0284
     63 H           7.1912   -8.5710    0.0041 H       1  UNL1        0.0284
     64 H           5.7965   -7.9782   -0.8972 H       1  UNL1        0.0284
     65 H           3.5694   -4.9664   -3.4809 H       1  UNL1        0.1702
@<TRIPOS>UNITY_ATOM_ATTR
15 1
charge 1
@<TRIPOS>BOND
     1     1     2    1
     2     2     3   ar
     3     3     4    1
     4     4     5    2
     5     4     6    1
     6     6     7    1
     7     7     8    1
     8     7     9    1
     9     3    10   ar
    10    10    11   ar
    11    11    12   ar
    12    12    13   ar
    13    13    14    1
    14    16    17    1
    15    17    18    1
    16    17    19    1
    17    19    20    1
    18    20    21    1
    19    21    22   ar
    20    22    23   ar
    21    23    24   ar
    22    24    25    1
    23    24    26   ar
    24    26    27   ar
    25    21    27   ar
    26    15    28    1
    27    28    29    1
    28    28    30    1
    29    13    31   ar
    30    31    32   ar
    31    32    33    2
    32    32    34   ar
    33     2    34   ar
    34    11    34   ar
    35    15    16    1
    36    15    14    1
    37     1    35    1
    38     1    36    1
    39     1    37    1
    40     7    38    1
    41     8    39    1
    42     8    40    1
    43     8    41    1
    44     9    42    1
    45     9    43    1
    46     9    44    1
    47    14    45    1
    48    14    46    1
    49    15    47    1
    50    16    48    1
    51    16    49    1
    52    17    50    1
    53    18    51    1
    54    19    52    1
    55    19    53    1
    56    22    54    1
    57    23    55    1
    58    26    56    1
    59    27    57    1
    60    28    58    1
    61    29    59    1
    62    29    60    1
    63    29    61    1
    64    30    62    1
    65    30    63    1
    66    30    64    1
    67    31    65    1
