@<TRIPOS>MOLECULE
*****
 66 68 0 0 0
SMALL
GASTEIGER

@<TRIPOS>ATOM
      1 C           0.8968   -0.1374   -0.0210 C.3     1  UNL1       -0.0471
      2 C           2.3971   -0.3455    0.0281 C.3     1  UNL1        0.0205
      3 N           2.9207   -0.9789   -1.1751 N.ar    1  UNL1       -0.3463
      4 C           3.6608   -0.2921   -2.0789 C.ar    1  UNL1        0.0129
      5 C           3.7997   -0.9069   -3.2929 C.ar    1  UNL1        0.0021
      6 C           4.3104   -0.3071   -4.5639 C.2     1  UNL1       -0.0262
      7 C           4.7320    0.9575   -4.9244 C.2     1  UNL1        0.0967
      8 N           4.8207    2.0626   -4.0519 N.am    1  UNL1       -0.2773
      9 C           3.8564    2.1958   -3.0823 C.2     1  UNL1        0.2486
     10 O           2.7096    1.8474   -3.2879 O.2     1  UNL1       -0.2698
     11 C           4.0627    3.0331   -1.8774 C.ar    1  UNL1        0.0442
     12 C           4.4931    2.7082   -0.5694 C.ar    1  UNL1       -0.0039
     13 C           4.2312    3.5973    0.4990 C.ar    1  UNL1        0.1659
     14 O           4.6685    3.1711    1.7414 O.3     1  UNL1       -0.4913
     15 C           4.6705    4.1308    2.8071 C.3     1  UNL1        0.0790
     16 C           3.5488    4.8038    0.2230 C.ar    1  UNL1        0.2035
     17 O           3.4422    5.6991    1.2487 O.3     1  UNL1       -0.4885
     18 C           2.9357    6.9898    0.9797 C.3     1  UNL1        0.0791
     19 C           3.0242    5.0318   -1.0605 C.ar    1  UNL1        0.1659
     20 O           2.2957    6.1512   -1.3295 O.3     1  UNL1       -0.4913
     21 C           1.8468    6.3502   -2.6623 C.3     1  UNL1        0.0790
     22 C           3.2484    4.1204   -2.0581 C.ar    1  UNL1       -0.0039
     23 C           5.1365    1.2215   -6.4146 C.2     1  UNL1        0.2583
     24 O           5.2006    0.3227   -7.2505 O.2     1  UNL1       -0.2688
     25 N           5.4294    2.5420   -6.7505 N.am    1  UNL1       -0.3102
     26 C           5.9477    2.9485   -8.0524 C.3     1  UNL1        0.0140
     27 C           6.2293    4.4540   -8.0937 C.3     1  UNL1       -0.0141
     28 C           6.7719    4.8721   -9.4521 C.3     1  UNL1        0.0456
     29 O           7.0441    6.2671   -9.4595 O.3     1  UNL1       -0.3950
     30 C           3.3363   -2.2493   -2.9589 C.ar    1  UNL1        0.0071
     31 C           3.2979   -3.4797   -3.6410 C.ar    1  UNL1       -0.0520
     32 C           2.8496   -4.6292   -2.9629 C.ar    1  UNL1       -0.0611
     33 C           2.4031   -4.5812   -1.6409 C.ar    1  UNL1       -0.0598
     34 C           2.3751   -3.3824   -0.9489 C.ar    1  UNL1       -0.0376
     35 C           2.8429   -2.2550   -1.6228 C.ar    1  UNL1        0.0496
     36 H           0.5512    0.3742    0.8837 H       1  UNL1        0.0247
     37 H           0.3682   -1.0874   -0.1172 H       1  UNL1        0.0247
     38 H           0.6279    0.4933   -0.8771 H       1  UNL1        0.0247
     39 H           2.7487   -0.8825    0.9134 H       1  UNL1        0.0489
     40 H           2.8327    0.6571    0.0954 H       1  UNL1        0.0489
     41 H           3.8727    0.6632   -1.7210 H       1  UNL1        0.0815
     42 H           4.3067   -1.0256   -5.3850 H       1  UNL1        0.0644
     43 H           4.9766    2.9597   -4.4833 H       1  UNL1        0.1553
     44 H           4.9384    1.7429   -0.3190 H       1  UNL1        0.0663
     45 H           5.1468    3.7040    3.6952 H       1  UNL1        0.0660
     46 H           3.6491    4.3974    3.1079 H       1  UNL1        0.0660
     47 H           5.2640    5.0114    2.5327 H       1  UNL1        0.0660
     48 H           3.0561    7.5877    1.8824 H       1  UNL1        0.0660
     49 H           1.8645    6.9250    0.7706 H       1  UNL1        0.0660
     50 H           3.5020    7.4837    0.1814 H       1  UNL1        0.0660
     51 H           1.4597    7.3659   -2.7190 H       1  UNL1        0.0660
     52 H           1.0369    5.6488   -2.8867 H       1  UNL1        0.0660
     53 H           2.6616    6.2658   -3.3936 H       1  UNL1        0.0660
     54 H           2.7088    4.1692   -2.9993 H       1  UNL1        0.0663
     55 H           5.3806    3.2817   -6.0825 H       1  UNL1        0.1490
     56 H           5.2167    2.6767   -8.8215 H       1  UNL1        0.0463
     57 H           6.8694    2.3871   -8.2397 H       1  UNL1        0.0463
     58 H           6.9458    4.7379   -7.3104 H       1  UNL1        0.0302
     59 H           5.3197    5.0265   -7.8670 H       1  UNL1        0.0302
     60 H           6.0559    4.6495  -10.2494 H       1  UNL1        0.0557
     61 H           7.7066    4.3470   -9.6710 H       1  UNL1        0.0557
     62 H           6.2023    6.7385   -9.3390 H       1  UNL1        0.2094
     63 H           3.6482   -3.5482   -4.6656 H       1  UNL1        0.0624
     64 H           2.8614   -5.5852   -3.4768 H       1  UNL1        0.0618
     65 H           2.0704   -5.4817   -1.1328 H       1  UNL1        0.0618
     66 H           2.0336   -3.3189    0.0807 H       1  UNL1        0.0638
@<TRIPOS>BOND
     1     1     2    1
     2     2     3    1
     3     3     4   ar
     4     4     5   ar
     5     5     6    1
     6     6     7    2
     7     7     8    1
     8     8     9   am
     9     9    10    2
    10     9    11    1
    11    11    12   ar
    12    12    13   ar
    13    13    14    1
    14    14    15    1
    15    13    16   ar
    16    16    17    1
    17    17    18    1
    18    16    19   ar
    19    19    20    1
    20    20    21    1
    21    19    22   ar
    22    11    22   ar
    23     7    23    1
    24    23    24    2
    25    23    25   am
    26    25    26    1
    27    26    27    1
    28    27    28    1
    29    28    29    1
    30     5    30   ar
    31    30    31   ar
    32    31    32   ar
    33    32    33   ar
    34    33    34   ar
    35    34    35   ar
    36    30    35   ar
    37     3    35   ar
    38     1    36    1
    39     1    37    1
    40     1    38    1
    41     2    39    1
    42     2    40    1
    43     4    41    1
    44     6    42    1
    45     8    43    1
    46    12    44    1
    47    15    45    1
    48    15    46    1
    49    15    47    1
    50    18    48    1
    51    18    49    1
    52    18    50    1
    53    21    51    1
    54    21    52    1
    55    21    53    1
    56    22    54    1
    57    25    55    1
    58    26    56    1
    59    26    57    1
    60    27    58    1
    61    27    59    1
    62    28    60    1
    63    28    61    1
    64    29    62    1
    65    31    63    1
    66    32    64    1
    67    33    65    1
    68    34    66    1
