REMARK  8 active torsions:
REMARK  status: ('A' for Active; 'I' for Inactive)
REMARK    1  A    between atoms: C_4  and  C_5 
REMARK    2  A    between atoms: C_6  and  C_7 
REMARK    3  A    between atoms: N_9  and  C_10 
REMARK    4  A    between atoms: C_10  and  C_11 
REMARK    5  A    between atoms: C_11  and  C_12 
REMARK    6  A    between atoms: C_12  and  S_13 
REMARK    7  A    between atoms: S_13  and  C_14 
REMARK    8  A    between atoms: C_14  and  N_15 
ROOT
ATOM      1  C   UNL d   1       2.099  -3.641   2.162  0.00  0.00     0.009 A 
ATOM      2  C   UNL d   1       3.417  -3.873   2.477  0.00  0.00     0.104 A 
ATOM      3  N   UNL d   1       3.672  -3.325   3.712  0.00  0.00    -0.355 N 
ATOM      4  C   UNL d   1       2.520  -2.747   4.214  0.00  0.00     0.045 A 
ATOM      5  C   UNL d   1       2.266  -2.086   5.429  0.00  0.00     0.030 A 
ATOM      6  C   UNL d   1       0.983  -1.574   5.646  0.00  0.00     0.002 A 
ATOM      7  C   UNL d   1      -0.015  -1.713   4.688  0.00  0.00     0.001 A 
ATOM      8  C   UNL d   1       0.241  -2.384   3.491  0.00  0.00     0.014 A 
ATOM      9  C   UNL d   1       1.523  -2.915   3.244  0.00  0.00     0.003 A 
ENDROOT
BRANCH   1  10
ATOM     10  C   UNL d   1       1.469  -4.026   0.946  0.00  0.00     0.061 A 
ATOM     11  C   UNL d   1       0.912  -3.236   0.012  0.00  0.00     0.061 A 
ATOM     12  C   UNL d   1       0.328  -4.128  -1.020  0.00  0.00     0.260 A 
ATOM     13  N   UNL d   1       0.600  -5.400  -0.655  0.00  0.00    -0.289 N 
ATOM     14  O   UNL d   1      -0.282  -3.796  -2.018  0.00  0.00    -0.267 OA
ATOM     15  C   UNL d   1       1.279  -5.431   0.512  0.00  0.00     0.260 A 
ATOM     16  H   UNL d   1       0.320  -6.213  -1.179  0.00  0.00     0.172 HD
ATOM     17  O   UNL d   1       1.663  -6.432   1.086  0.00  0.00    -0.267 OA
BRANCH  11  18
ATOM     18  C   UNL d   1       0.868  -1.814  -0.026  0.00  0.00     0.009 A 
ATOM     19  C   UNL d   1       1.983  -0.999  -0.006  0.00  0.00     0.104 A 
ATOM     20  N   UNL d   1       1.557   0.304  -0.009  0.00  0.00    -0.360 N 
ATOM     21  C   UNL d   1       2.421   1.464  -0.043  0.00  0.00     0.156 C 
ATOM     22  C   UNL d   1       0.179   0.355   0.000  0.00  0.00     0.045 A 
ATOM     23  C   UNL d   1      -0.695   1.454   0.023  0.00  0.00     0.030 A 
ATOM     24  C   UNL d   1      -0.281  -0.967  -0.030  0.00  0.00     0.003 A 
ATOM     25  C   UNL d   1      -2.068   1.202   0.006  0.00  0.00     0.002 A 
ATOM     26  C   UNL d   1      -2.553  -0.102  -0.021  0.00  0.00     0.001 A 
ATOM     27  C   UNL d   1      -1.675  -1.192  -0.031  0.00  0.00     0.014 A 
ENDBRANCH  11  18
ENDBRANCH   1  10
BRANCH   3  28
ATOM     28  C   UNL d   1       4.961  -3.317   4.399  0.00  0.00     0.129 C 
BRANCH  28  29
ATOM     29  C   UNL d   1       6.084  -4.024   3.631  0.00  0.00     0.031 C 
BRANCH  29  30
ATOM     30  C   UNL d   1       7.421  -3.995   4.369  0.00  0.00     0.084 C 
BRANCH  30  31
ATOM     31  S   UNL d   1       8.673  -4.856   3.370  0.00  0.00    -0.095 SA
BRANCH  31  32
ATOM     32  C   UNL d   1      10.146  -4.789   4.254  0.00  0.00     0.131 C 
ATOM     33  N   UNL d   1      11.184  -5.364   3.695  0.00  0.00    -0.380 N 
ATOM     34  H   UNL d   1      11.055  -5.808   2.792  0.00  0.00     0.158 HD
ATOM     35  H   UNL d   1      12.102  -5.393   4.113  0.00  0.00     0.158 HD
BRANCH  32  36
ATOM     36  N   UNL d   1      10.265  -4.206   5.419  0.00  0.00    -0.380 N 
ATOM     37  H   UNL d   1       9.476  -3.759   5.864  0.00  0.00     0.158 HD
ATOM     38  H   UNL d   1      11.146  -4.183   5.914  0.00  0.00     0.158 HD
ENDBRANCH  32  36
ENDBRANCH  31  32
ENDBRANCH  30  31
ENDBRANCH  29  30
ENDBRANCH  28  29
ENDBRANCH   3  28
TORSDOF 8
