@<TRIPOS>MOLECULE
*****
 47 49 0 0 0
SMALL
GASTEIGER

@<TRIPOS>ATOM
      1 C           2.4686   -0.3565   -0.0054 C.3     1  UNL1       -0.0380
      2 C           1.0046   -0.0805    0.0024 C.ar    1  UNL1       -0.0292
      3 C           0.2093   -1.2442    0.0053 C.ar    1  UNL1       -0.0571
      4 C          -1.1690   -1.1720   -0.0001 C.ar    1  UNL1       -0.0614
      5 C          -1.7693    0.0794   -0.0062 C.ar    1  UNL1       -0.0600
      6 C          -0.9851    1.2571   -0.0013 C.ar    1  UNL1       -0.0402
      7 C           0.4283    1.2105    0.0007 C.ar    1  UNL1        0.0367
      8 N           1.1568    2.4611   -0.0006 N.am    1  UNL1       -0.2775
      9 C           2.5377    2.6598   -0.0111 C.2     1  UNL1        0.3031
     10 O           3.4543    1.8452   -0.0294 O.2     1  UNL1       -0.2648
     11 C           3.1169    4.0783    0.0009 C.2     1  UNL1        0.2996
     12 O           2.4143    5.0765   -0.0059 O.2     1  UNL1       -0.2652
     13 N           4.4992    4.0145    0.0158 N.am    1  UNL1       -0.3035
     14 C           5.4084    5.1320   -0.0019 C.3     1  UNL1        0.0373
     15 C           6.8914    4.8011    0.0313 C.ar    1  UNL1       -0.0286
     16 C           7.8486    5.8179    0.0443 C.ar    1  UNL1       -0.0570
     17 C           9.2166    5.5059    0.0574 C.ar    1  UNL1       -0.0597
     18 C           9.6537    4.1670    0.0593 C.ar    1  UNL1       -0.0404
     19 C           8.7171    3.1295    0.0548 C.ar    1  UNL1        0.0341
     20 N           9.1159    1.7598    0.0739 N.am    1  UNL1       -0.2790
     21 C           8.2427    0.6576    0.0256 C.2     1  UNL1        0.2835
     22 O           7.0219    0.7267   -0.0665 O.2     1  UNL1       -0.2665
     23 C           8.8636   -0.6456    0.1014 C.ar    1  UNL1        0.1893
     24 C           9.8554   -1.1638    0.9080 C.ar    1  UNL1       -0.0113
     25 C           9.9450   -2.5455    0.6045 C.ar    1  UNL1       -0.0231
     26 C           9.0034   -2.7915   -0.3657 C.ar    1  UNL1        0.0928
     27 O           8.3349   -1.6518   -0.6682 O.2     1  UNL1       -0.4583
     28 C           7.3654    3.4846    0.0399 C.ar    1  UNL1       -0.0358
     29 H           2.7401   -1.4116   -0.0042 H       1  UNL1        0.0278
     30 H           2.8877    0.0493    0.9207 H       1  UNL1        0.0278
     31 H           2.8725    0.0411   -0.9420 H       1  UNL1        0.0278
     32 H           0.6932   -2.2199    0.0078 H       1  UNL1        0.0621
     33 H          -1.7509   -2.0898   -0.0017 H       1  UNL1        0.0618
     34 H          -2.8563    0.1303   -0.0161 H       1  UNL1        0.0618
     35 H          -1.5234    2.2028   -0.0017 H       1  UNL1        0.0636
     36 H           0.6048    3.3143    0.0019 H       1  UNL1        0.1553
     37 H           4.8380    3.0490   -0.0089 H       1  UNL1        0.1495
     38 H           5.1572    5.7407    0.8699 H       1  UNL1        0.0512
     39 H           5.1897    5.6901   -0.9159 H       1  UNL1        0.0512
     40 H           7.5345    6.8603    0.0412 H       1  UNL1        0.0621
     41 H           9.9418    6.3188    0.0643 H       1  UNL1        0.0618
     42 H          10.7239    3.9750    0.0622 H       1  UNL1        0.0636
     43 H          10.1093    1.5678    0.0753 H       1  UNL1        0.1552
     44 H          10.3934   -0.6188    1.6689 H       1  UNL1        0.0657
     45 H          10.5961   -3.2802    1.0549 H       1  UNL1        0.0649
     46 H           8.6884   -3.6770   -0.9027 H       1  UNL1        0.1029
     47 H           6.6317    2.7035    0.0348 H       1  UNL1        0.0639
@<TRIPOS>BOND
     1     1     2    1
     2     2     3   ar
     3     3     4   ar
     4     4     5   ar
     5     5     6   ar
     6     6     7   ar
     7     2     7   ar
     8     7     8    1
     9     8     9   am
    10     9    10    2
    11     9    11    1
    12    11    12    2
    13    11    13   am
    14    13    14    1
    15    14    15    1
    16    15    16   ar
    17    16    17   ar
    18    17    18   ar
    19    18    19   ar
    20    19    20    1
    21    20    21   am
    22    21    22    2
    23    21    23    1
    24    23    24   ar
    25    24    25   ar
    26    25    26   ar
    27    26    27   ar
    28    23    27   ar
    29    19    28   ar
    30    15    28   ar
    31     1    29    1
    32     1    30    1
    33     1    31    1
    34     3    32    1
    35     4    33    1
    36     5    34    1
    37     6    35    1
    38     8    36    1
    39    13    37    1
    40    14    38    1
    41    14    39    1
    42    16    40    1
    43    17    41    1
    44    18    42    1
    45    20    43    1
    46    24    44    1
    47    25    45    1
    48    26    46    1
    49    28    47    1
