REMARK  3 active torsions:
REMARK  status: ('A' for Active; 'I' for Inactive)
REMARK    1  A    between atoms: C_4  and  N_5 
REMARK    2  A    between atoms: C_8  and  N_9 
REMARK       I    between atoms: N_9  and  C_10 
REMARK    3  A    between atoms: C_10  and  C_12 
ROOT
ATOM      1  N   UNL d   1       5.285   2.471  -0.067  0.00  0.00    -0.366 N 
ATOM      2  C   UNL d   1       5.788   2.835  -1.391  0.00  0.00     0.126 C 
ATOM      3  C   UNL d   1       7.242   3.260  -1.238  0.00  0.00     0.045 C 
ATOM      4  C   UNL d   1       7.369   4.459  -0.283  0.00  0.00     0.087 C 
ATOM      5  C   UNL d   1       6.673   4.130   1.059  0.00  0.00     0.045 C 
ATOM      6  C   UNL d   1       5.233   3.599   0.867  0.00  0.00     0.126 C 
ENDROOT
BRANCH   4   7
ATOM      7  N   UNL d   1       6.837   5.686  -0.883  0.00  0.00    -0.356 N 
ATOM      8  C   UNL d   1       7.313   6.202  -2.071  0.00  0.00     0.222 C 
ATOM      9  O   UNL d   1       8.255   5.695  -2.685  0.00  0.00    -0.273 OA
ATOM     10  H   UNL d   1       6.184   6.230  -0.339  0.00  0.00     0.162 HD
BRANCH   8  11
ATOM     11  C   UNL d   1       6.640   7.467  -2.602  0.00  0.00     0.078 C 
ATOM     12  C   UNL d   1       5.161   7.588  -2.214  0.00  0.00     0.014 C 
ATOM     13  C   UNL d   1       4.537   8.890  -2.698  0.00  0.00     0.001 C 
ATOM     14  C   UNL d   1       5.343  10.095  -2.224  0.00  0.00     0.000 C 
ATOM     15  C   UNL d   1       6.794   9.992  -2.678  0.00  0.00     0.001 C 
ATOM     16  C   UNL d   1       7.443   8.701  -2.183  0.00  0.00     0.014 C 
ENDBRANCH   8  11
ENDBRANCH   4   7
BRANCH   1  17
ATOM     17  C   UNL d   1       4.531   1.325  -0.004  0.00  0.00     0.129 A 
ATOM     18  C   UNL d   1       3.146   1.333   0.000  0.00  0.00     0.075 A 
ATOM     19  C   UNL d   1       2.452   0.117  -0.030  0.00  0.00     0.010 A 
ATOM     20  C   UNL d   1       0.958   0.046  -0.053  0.00  0.00     0.068 C 
ATOM     21  N   UNL d   1       3.146  -1.034  -0.045  0.00  0.00    -0.348 N 
ATOM     22  C   UNL d   1       4.486  -1.008  -0.046  0.00  0.00     0.102 A 
ATOM     23  H   UNL d   1       2.667  -1.933  -0.059  0.00  0.00     0.167 HD
ATOM     24  N   UNL d   1       5.196   0.148  -0.044  0.00  0.00    -0.218 NA
ATOM     25  C   UNL d   1       5.216  -2.319  -0.051  0.00  0.00     0.091 C 
ENDBRANCH   1  17
TORSDOF 3
