@<TRIPOS>MOLECULE
*****
 59 62 0 0 0
SMALL
GASTEIGER

@<TRIPOS>ATOM
      1 C          -0.0254   -4.8059   17.6882 C.3     1  UNL1        0.0059
      2 N           1.2722   -4.1220   17.7542 N.pl3   1  UNL1       -0.2778
      3 C           1.8190   -3.4236   16.5736 C.3     1  UNL1        0.0512
      4 C           0.8416   -3.3505   15.3944 C.3     1  UNL1        0.1053
      5 O           1.4348   -2.6446   14.3211 O.3     1  UNL1       -0.4904
      6 C           0.5844   -2.4510   13.2671 C.ar    1  UNL1        0.1206
      7 C           1.1897   -2.5137   12.0258 C.ar    1  UNL1       -0.0197
      8 C           0.4789   -2.1347   10.9028 C.ar    1  UNL1       -0.0551
      9 C          -0.8892   -1.8581   10.9636 C.ar    1  UNL1       -0.0456
     10 C          -1.7158   -1.6767    9.7190 C.3     1  UNL1       -0.0069
     11 C          -0.9701   -1.7648    8.3795 C.3     1  UNL1        0.0945
     12 S          -0.1331   -3.3600    7.9892 S.3     1  UNL1       -0.0542
     13 C          -1.0022   -3.5858    6.5081 C.2     1  UNL1        0.2789
     14 O          -0.7832   -4.4828    5.7248 O.2     1  UNL1       -0.2625
     15 N          -1.9465   -2.6234    6.3809 N.am    1  UNL1       -0.2463
     16 C          -2.0035   -1.6178    7.2938 C.2     1  UNL1        0.2336
     17 O          -2.8303   -0.7159    7.2477 O.2     1  UNL1       -0.2741
     18 C          -1.5030   -1.8020   12.2178 C.ar    1  UNL1       -0.0551
     19 C          -0.7625   -2.0852   13.3678 C.ar    1  UNL1       -0.0197
     20 C           2.0844   -4.3781   18.8425 C.ar    1  UNL1        0.2718
     21 C           2.1733   -5.6347   19.4577 C.ar    1  UNL1        0.0298
     22 C           2.9577   -5.8249   20.5937 C.ar    1  UNL1       -0.0064
     23 C           3.6361   -4.7524   21.1474 C.ar    1  UNL1        0.1842
     24 O           4.4051   -4.8027   22.2729 O.3     1  UNL1       -0.4815
     25 C           4.5238   -6.0815   22.9253 C.3     1  UNL1        0.1149
     26 C           5.4378   -5.9537   24.1151 C.ar    1  UNL1       -0.0104
     27 C           5.2959   -4.8968   25.0235 C.ar    1  UNL1       -0.0554
     28 C           6.2352   -4.7121   26.0376 C.ar    1  UNL1       -0.0614
     29 C           7.2536   -5.6444   26.2253 C.ar    1  UNL1       -0.0617
     30 C           7.3606   -6.7402   25.3727 C.ar    1  UNL1       -0.0614
     31 C           6.4585   -6.8940   24.3205 C.ar    1  UNL1       -0.0554
     32 C           3.5268   -3.5153   20.5175 C.ar    1  UNL1        0.2130
     33 N           2.7846   -3.3756   19.4036 N.ar    1  UNL1       -0.1950
     34 H          -0.5852   -4.6166   16.7705 H       1  UNL1        0.0429
     35 H          -0.6645   -4.4354   18.4950 H       1  UNL1        0.0429
     36 H           0.0623   -5.8936   17.7490 H       1  UNL1        0.0429
     37 H           2.7503   -3.8980   16.2367 H       1  UNL1        0.0499
     38 H           2.0877   -2.3968   16.8553 H       1  UNL1        0.0499
     39 H          -0.0576   -2.8371   15.7477 H       1  UNL1        0.0712
     40 H           0.5952   -4.3615   15.0464 H       1  UNL1        0.0712
     41 H           2.2159   -2.8472   11.9096 H       1  UNL1        0.0654
     42 H           1.0377   -2.0783    9.9769 H       1  UNL1        0.0621
     43 H          -2.1975   -0.6898    9.7820 H       1  UNL1        0.0329
     44 H          -2.5338   -2.4127    9.7301 H       1  UNL1        0.0329
     45 H          -0.2269   -0.9627    8.3003 H       1  UNL1        0.0515
     46 H          -2.5936   -2.6557    5.6128 H       1  UNL1        0.1583
     47 H          -2.5508   -1.5163   12.3107 H       1  UNL1        0.0621
     48 H          -1.2661   -1.9906   14.3223 H       1  UNL1        0.0654
     49 H           1.6532   -6.4962   19.0490 H       1  UNL1        0.0699
     50 H           3.0089   -6.8242   21.0171 H       1  UNL1        0.0659
     51 H           4.9610   -6.7990   22.2192 H       1  UNL1        0.0748
     52 H           3.5430   -6.4372   23.2629 H       1  UNL1        0.0748
     53 H           4.4678   -4.1979   24.9331 H       1  UNL1        0.0621
     54 H           6.1839   -3.8324   26.6740 H       1  UNL1        0.0618
     55 H           7.9611   -5.5191   27.0410 H       1  UNL1        0.0618
     56 H           8.1614   -7.4622   25.5134 H       1  UNL1        0.0618
     57 H           6.5696   -7.7484   23.6563 H       1  UNL1        0.0621
     58 H           4.0135   -2.6214   20.8960 H       1  UNL1        0.1416
     59 H           2.6911   -2.4549   18.9856 H       1  UNL1        0.4543
@<TRIPOS>UNITY_ATOM_ATTR
33 1
charge 1
@<TRIPOS>BOND
     1     1     2    1
     2     2     3    1
     3     3     4    1
     4     4     5    1
     5     5     6    1
     6     6     7   ar
     7     7     8   ar
     8     8     9   ar
     9     9    10    1
    10    11    12    1
    11    12    13    1
    12    13    14    2
    13    13    15   am
    14    15    16   am
    15    11    16    1
    16    16    17    2
    17     9    18   ar
    18    18    19   ar
    19     6    19   ar
    20     2    20    1
    21    20    21   ar
    22    21    22   ar
    23    22    23   ar
    24    23    24    1
    25    24    25    1
    26    25    26    1
    27    26    27   ar
    28    27    28   ar
    29    28    29   ar
    30    29    30   ar
    31    30    31   ar
    32    26    31   ar
    33    23    32   ar
    34    32    33   ar
    35    20    33   ar
    36    11    10    1
    37     1    34    1
    38     1    35    1
    39     1    36    1
    40     3    37    1
    41     3    38    1
    42     4    39    1
    43     4    40    1
    44     7    41    1
    45     8    42    1
    46    10    43    1
    47    10    44    1
    48    11    45    1
    49    15    46    1
    50    18    47    1
    51    19    48    1
    52    21    49    1
    53    22    50    1
    54    25    51    1
    55    25    52    1
    56    27    53    1
    57    28    54    1
    58    29    55    1
    59    30    56    1
    60    31    57    1
    61    32    58    1
    62    33    59    1
