@<TRIPOS>MOLECULE
*****
 54 57 0 0 0
SMALL
GASTEIGER

@<TRIPOS>ATOM
      1 N           2.0913   -0.1008   -0.3209 N.pl3   1  UNL1       -0.3375
      2 C           0.7403   -0.1197   -0.5020 C.ar    1  UNL1        0.2064
      3 N           0.0267    0.9447   -0.1195 N.ar    1  UNL1       -0.0319
      4 O          -1.2873    0.5099   -0.0307 O.2     1  UNL1       -0.2388
      5 N          -1.3862   -0.8726   -0.2190 N.ar    1  UNL1       -0.0272
      6 C          -0.1908   -1.2505   -0.7069 C.ar    1  UNL1        0.2407
      7 N           0.1225   -2.6706   -0.6624 N.ar    1  UNL1       -0.1830
      8 N          -0.2612   -3.8372   -1.2607 N.ar    1  UNL1       -0.0581
      9 N           0.4037   -4.9143   -0.7211 N.ar    1  UNL1       -0.1279
     10 C           1.1114   -4.4816    0.3557 C.ar    1  UNL1        0.1399
     11 C           1.9418   -5.4236    1.5055 C.3     1  UNL1        0.0155
     12 N           2.6354   -4.6747    2.9481 N.4     1  UNL1        0.2397
     13 C           1.3720   -4.1271    4.0380 C.3     1  UNL1       -0.0313
     14 C           1.1532   -2.6397    3.8452 C.3     1  UNL1       -0.0077
     15 C           2.8291   -2.0805    3.0733 C.3     1  UNL1       -0.0077
     16 C           3.5858   -3.3485    2.4738 C.3     1  UNL1       -0.0313
     17 C           0.8099   -3.0676    0.3718 C.ar    1  UNL1        0.1608
     18 C           0.9768   -2.2175    1.4347 C.2     1  UNL1        0.2838
     19 O           1.5276   -3.1574    1.9725 O.2     1  UNL1       -0.2667
     20 N           0.7376   -0.8625    2.0370 N.am    1  UNL1       -0.2019
     21 N           1.2986   -0.3492    3.3420 N.2     1  UNL1       -0.1921
     22 C           1.4704    0.9058    3.6107 C.2     1  UNL1        0.0262
     23 C           2.1605    1.4383    4.9026 C.3     1  UNL1       -0.0041
     24 C           1.8708    2.9440    4.9055 C.3     1  UNL1       -0.0453
     25 C           2.2222    3.6498    6.2041 C.3     1  UNL1       -0.0525
     26 C           1.5725    2.9663    7.3979 C.3     1  UNL1       -0.0530
     27 C           1.9778    1.4997    7.4587 C.3     1  UNL1       -0.0525
     28 C           1.6105    0.7664    6.1668 C.3     1  UNL1       -0.0453
     29 H           2.5649    0.7720   -0.0547 H       1  UNL1        0.1439
     30 H           2.7117   -0.8995   -0.2644 H       1  UNL1        0.1439
     31 H           2.8289   -5.8937    1.0359 H       1  UNL1        0.0884
     32 H           1.3359   -6.2551    1.9185 H       1  UNL1        0.0884
     33 H           3.2063   -5.3787    3.4316 H       1  UNL1        0.2037
     34 H           1.7488   -4.1534    5.0432 H       1  UNL1        0.0814
     35 H           0.4566   -4.7311    3.8452 H       1  UNL1        0.0814
     36 H           0.4491   -1.9400    4.3730 H       1  UNL1        0.0319
     37 H           0.1698   -2.7739    3.1817 H       1  UNL1        0.0319
     38 H           3.4031   -1.3382    3.6281 H       1  UNL1        0.0319
     39 H           2.8192   -1.4384    2.0935 H       1  UNL1        0.0319
     40 H           4.5903   -3.3513    2.8882 H       1  UNL1        0.0814
     41 H           3.6765   -3.3723    1.3341 H       1  UNL1        0.0814
     42 H           0.4250   -0.0778    1.5033 H       1  UNL1        0.1776
     43 H           1.1624    1.6460    2.8720 H       1  UNL1        0.0801
     44 H           3.2563    1.2993    4.8810 H       1  UNL1        0.0358
     45 H           0.7998    3.0797    4.7116 H       1  UNL1        0.0271
     46 H           2.4061    3.4189    4.0738 H       1  UNL1        0.0271
     47 H           1.8869    4.6915    6.1453 H       1  UNL1        0.0265
     48 H           3.3104    3.6611    6.3338 H       1  UNL1        0.0265
     49 H           0.4804    3.0437    7.3209 H       1  UNL1        0.0265
     50 H           1.8704    3.4754    8.3206 H       1  UNL1        0.0265
     51 H           1.4819    1.0165    8.3092 H       1  UNL1        0.0265
     52 H           3.0588    1.4282    7.6323 H       1  UNL1        0.0265
     53 H           0.5194    0.7208    6.0866 H       1  UNL1        0.0271
     54 H           1.9690   -0.2673    6.2342 H       1  UNL1        0.0271
@<TRIPOS>UNITY_ATOM_ATTR
12 1
charge 1
@<TRIPOS>BOND
     1     1     2    1
     2     2     3   ar
     3     3     4   ar
     4     4     5   ar
     5     5     6   ar
     6     2     6   ar
     7     6     7    1
     8     7     8   ar
     9     8     9   ar
    10     9    10   ar
    11    10    11    1
    12    11    12    1
    13    12    13    1
    14    13    14    1
    15    14    15    1
    16    15    16    1
    17    12    16    1
    18    10    17   ar
    19     7    17   ar
    20    17    18    1
    21    18    19    2
    22    18    20   am
    23    20    21    1
    24    21    22    2
    25    22    23    1
    26    23    24    1
    27    24    25    1
    28    25    26    1
    29    26    27    1
    30    27    28    1
    31    23    28    1
    32     1    29    1
    33     1    30    1
    34    11    31    1
    35    11    32    1
    36    12    33    1
    37    13    34    1
    38    13    35    1
    39    14    36    1
    40    14    37    1
    41    15    38    1
    42    15    39    1
    43    16    40    1
    44    16    41    1
    45    20    42    1
    46    22    43    1
    47    23    44    1
    48    24    45    1
    49    24    46    1
    50    25    47    1
    51    25    48    1
    52    26    49    1
    53    26    50    1
    54    27    51    1
    55    27    52    1
    56    28    53    1
    57    28    54    1
