@<TRIPOS>MOLECULE
*****
 42 43 0 0 0
SMALL
GASTEIGER

@<TRIPOS>ATOM
      1 C          -5.2972    4.1584    5.4464 C.3     1  UNL1       -0.0397
      2 C          -4.8130    5.4266    4.8210 C.ar    1  UNL1       -0.0487
      3 C          -5.1223    6.6853    5.3147 C.ar    1  UNL1       -0.0585
      4 C          -4.6403    7.8237    4.6678 C.ar    1  UNL1       -0.0568
      5 C          -3.8405    7.7227    3.5130 C.ar    1  UNL1       -0.0292
      6 C          -3.3525    8.9992    2.8891 C.3     1  UNL1       -0.0380
      7 C          -3.5177    6.4418    3.0179 C.ar    1  UNL1        0.0366
      8 N          -2.7089    6.2758    1.8714 N.am    1  UNL1       -0.2837
      9 C          -2.3169    5.0753    1.2959 C.2     1  UNL1        0.2373
     10 O          -2.7139    3.9626    1.6496 O.2     1  UNL1       -0.2734
     11 C          -1.4215    5.1569    0.0304 C.3     1  UNL1        0.0972
     12 C          -0.6621    3.8176   -0.0446 C.3     1  UNL1       -0.0381
     13 N          -0.4899    6.2910   -0.0094 N.am    1  UNL1       -0.3003
     14 C          -0.9331    7.5893   -0.1141 C.2     1  UNL1        0.2447
     15 O          -2.1256    7.8928   -0.1311 O.2     1  UNL1       -0.2702
     16 C           0.0662    8.6657   -0.0475 C.ar    1  UNL1        0.0368
     17 C           1.1791    8.6377   -0.8815 C.ar    1  UNL1       -0.0483
     18 C           2.0794    9.7036   -0.8510 C.ar    1  UNL1       -0.0427
     19 C           1.8710   10.7796    0.0164 C.ar    1  UNL1        0.0410
     20 CL          2.9988   12.0763    0.0520 Cl      1  UNL1       -0.0835
     21 C           0.7540   10.8145    0.8458 C.ar    1  UNL1       -0.0427
     22 C          -0.1554    9.7589    0.8042 C.ar    1  UNL1       -0.0483
     23 C          -4.0131    5.3249    3.6885 C.ar    1  UNL1       -0.0373
     24 H          -5.9164    4.3599    6.3217 H       1  UNL1        0.0278
     25 H          -4.4412    3.5484    5.7555 H       1  UNL1        0.0278
     26 H          -5.8914    3.5895    4.7221 H       1  UNL1        0.0278
     27 H          -5.7383    6.7872    6.2022 H       1  UNL1        0.0620
     28 H          -4.8958    8.7989    5.0774 H       1  UNL1        0.0621
     29 H          -3.7072    9.8846    3.4313 H       1  UNL1        0.0278
     30 H          -3.7027    9.0923    1.8570 H       1  UNL1        0.0278
     31 H          -2.2621    9.0247    2.9284 H       1  UNL1        0.0278
     32 H          -2.4846    7.1234    1.3605 H       1  UNL1        0.1549
     33 H          -2.0902    5.2365   -0.8359 H       1  UNL1        0.0592
     34 H          -0.0272    3.6848    0.8416 H       1  UNL1        0.0252
     35 H          -0.0289    3.7451   -0.9315 H       1  UNL1        0.0252
     36 H          -1.3536    2.9637   -0.0644 H       1  UNL1        0.0252
     37 H           0.5016    6.0940    0.0531 H       1  UNL1        0.1498
     38 H           1.3215    7.8203   -1.5814 H       1  UNL1        0.0625
     39 H           2.9352    9.6978   -1.5191 H       1  UNL1        0.0632
     40 H           0.5778   11.6579    1.5097 H       1  UNL1        0.0632
     41 H          -1.0392    9.8048    1.4300 H       1  UNL1        0.0625
     42 H          -3.8068    4.3190    3.3496 H       1  UNL1        0.0639
@<TRIPOS>BOND
     1     1     2    1
     2     2     3   ar
     3     3     4   ar
     4     4     5   ar
     5     5     6    1
     6     5     7   ar
     7     7     8    1
     8     8     9   am
     9     9    10    2
    10    11    13    1
    11    13    14   am
    12    14    15    2
    13    14    16    1
    14    16    17   ar
    15    17    18   ar
    16    18    19   ar
    17    19    20    1
    18    19    21   ar
    19    21    22   ar
    20    16    22   ar
    21     7    23   ar
    22     2    23   ar
    23    11    12    1
    24    11     9    1
    25     1    24    1
    26     1    25    1
    27     1    26    1
    28     3    27    1
    29     4    28    1
    30     6    29    1
    31     6    30    1
    32     6    31    1
    33     8    32    1
    34    11    33    1
    35    12    34    1
    36    12    35    1
    37    12    36    1
    38    13    37    1
    39    17    38    1
    40    18    39    1
    41    21    40    1
    42    22    41    1
    43    23    42    1
