@<TRIPOS>MOLECULE
*****
 50 50 0 0 0
SMALL
GASTEIGER

@<TRIPOS>ATOM
      1 C           9.5756    3.2879    1.4548 C.3     1  UNL1       -0.0636
      2 C           8.5400    2.2313    1.7904 C.3     1  UNL1       -0.0376
      3 C           9.0896    1.1470    2.7456 C.3     1  UNL1        0.0201
      4 C          10.6238    1.1006    2.7881 C.3     1  UNL1       -0.0466
      5 N           8.5576   -0.1525    2.3729 N.am    1  UNL1       -0.3112
      6 C           7.2168   -0.4576    2.4500 C.2     1  UNL1        0.2333
      7 O           6.3785    0.3853    2.7694 O.2     1  UNL1       -0.2738
      8 C           6.8280   -1.9126    2.0578 C.3     1  UNL1        0.0980
      9 C           5.2973   -1.9825    2.0052 C.3     1  UNL1       -0.0380
     10 N           7.3968   -2.8837    3.0076 N.am    1  UNL1       -0.2884
     11 C           8.7450   -3.1024    3.0585 C.2     1  UNL1        0.3003
     12 O           9.5436   -2.5372    2.3195 O.2     1  UNL1       -0.2528
     13 N           9.1625   -3.9056    4.0748 N.am    1  UNL1       -0.2979
     14 C          10.6048   -4.0784    4.2890 C.3     1  UNL1        0.0285
     15 C          10.8816   -5.1779    5.2961 C.3     1  UNL1        0.0249
     16 N          12.2622   -5.4140    5.6657 N.pl3   1  UNL1       -0.3371
     17 C          12.6955   -6.5466    6.3728 C.ar    1  UNL1        0.1054
     18 C          13.9219   -6.3164    7.0664 C.ar    1  UNL1       -0.0342
     19 C          14.6218   -7.3158    7.7546 C.ar    1  UNL1       -0.0596
     20 C          14.0922   -8.5868    7.8322 C.ar    1  UNL1       -0.0552
     21 C          12.8735   -8.8468    7.2196 C.ar    1  UNL1        0.0175
     22 C          12.1448   -7.8513    6.5095 C.ar    1  UNL1        0.2937
     23 N          10.8510   -8.3809    5.9901 N.pl3   1  UNL1        0.0815
     24 O          10.6824   -9.6045    6.0072 O.2     1  UNL1        0.0415
     25 O           9.9444   -7.6186    5.6309 O.co2   1  UNL1       -0.5760
     26 H           9.1830    4.0638    0.7985 H       1  UNL1        0.0230
     27 H          10.4217    2.8269    0.9342 H       1  UNL1        0.0230
     28 H           9.9351    3.7596    2.3746 H       1  UNL1        0.0230
     29 H           8.1793    1.7789    0.8567 H       1  UNL1        0.0280
     30 H           7.6615    2.7078    2.2474 H       1  UNL1        0.0280
     31 H           8.7273    1.3585    3.7605 H       1  UNL1        0.0495
     32 H          11.0312    0.8845    1.7935 H       1  UNL1        0.0247
     33 H          11.0014    0.3371    3.4717 H       1  UNL1        0.0247
     34 H          11.0417    2.0548    3.1305 H       1  UNL1        0.0247
     35 H           9.2096   -0.9122    2.1630 H       1  UNL1        0.1490
     36 H           7.2288   -2.1322    1.0595 H       1  UNL1        0.0592
     37 H           4.8581   -1.7370    2.9796 H       1  UNL1        0.0252
     38 H           4.9328   -2.9702    1.7110 H       1  UNL1        0.0252
     39 H           4.9057   -1.2512    1.2848 H       1  UNL1        0.0252
     40 H           6.7669   -3.4762    3.5284 H       1  UNL1        0.1510
     41 H           8.5106   -4.5501    4.5053 H       1  UNL1        0.1503
     42 H          11.0427   -3.1182    4.5716 H       1  UNL1        0.0478
     43 H          11.0467   -4.3780    3.3281 H       1  UNL1        0.0478
     44 H          10.5389   -6.0091    4.7067 H       1  UNL1        0.0476
     45 H          10.2944   -5.0305    6.2096 H       1  UNL1        0.0476
     46 H          12.9653   -5.0367    5.0290 H       1  UNL1        0.1463
     47 H          14.3413   -5.3084    7.0996 H       1  UNL1        0.0638
     48 H          15.5804   -7.1012    8.2216 H       1  UNL1        0.0618
     49 H          14.6038   -9.3774    8.3748 H       1  UNL1        0.0620
     50 H          12.4944   -9.8650    7.2986 H       1  UNL1        0.0686
@<TRIPOS>UNITY_ATOM_ATTR
23 1
charge 1
25 1
charge -1
@<TRIPOS>BOND
     1     1     2    1
     2     3     5    1
     3     5     6   am
     4     6     7    2
     5     8    10    1
     6    10    11   am
     7    11    12    2
     8    11    13   am
     9    13    14    1
    10    14    15    1
    11    15    16    1
    12    16    17    1
    13    17    18   ar
    14    18    19   ar
    15    19    20   ar
    16    20    21   ar
    17    21    22   ar
    18    17    22   ar
    19    22    23    1
    20    23    24    2
    21    23    25    1
    22     3     4    1
    23     3     2    1
    24     8     9    1
    25     8     6    1
    26     1    26    1
    27     1    27    1
    28     1    28    1
    29     2    29    1
    30     2    30    1
    31     3    31    1
    32     4    32    1
    33     4    33    1
    34     4    34    1
    35     5    35    1
    36     8    36    1
    37     9    37    1
    38     9    38    1
    39     9    39    1
    40    10    40    1
    41    13    41    1
    42    14    42    1
    43    14    43    1
    44    15    44    1
    45    15    45    1
    46    16    46    1
    47    18    47    1
    48    19    48    1
    49    20    49    1
    50    21    50    1
