REMARK  4 active torsions:
REMARK  status: ('A' for Active; 'I' for Inactive)
REMARK    1  A    between atoms: C_7  and  N_8 
REMARK       I    between atoms: N_8  and  C_9 
REMARK    2  A    between atoms: C_11  and  C_9 
REMARK    3  A    between atoms: C_11  and  N_13 
REMARK       I    between atoms: N_13  and  C_14 
REMARK    4  A    between atoms: C_14  and  C_16 
ROOT
ATOM      1  C   UNL d   1       3.206   3.888  -0.163  0.00  0.00     0.173 C 
ATOM      2  C   UNL d   1       2.560   2.459  -0.199  0.00  0.00     0.042 C 
ENDROOT
BRANCH   1   3
ATOM      3  N   UNL d   1       4.682   3.714  -0.008  0.00  0.00    -0.344 N 
ATOM      4  C   UNL d   1       5.697   4.647  -0.066  0.00  0.00     0.254 C 
ATOM      5  O   UNL d   1       6.669   4.482  -0.823  0.00  0.00    -0.268 OA
ATOM      6  H   UNL d   1       5.015   2.800  -0.300  0.00  0.00     0.163 HD
BRANCH   4   7
ATOM      7  C   UNL d   1       5.747   5.755   0.920  0.00  0.00     0.053 C 
ATOM      8  C   UNL d   1       6.470   6.941   0.703  0.00  0.00     0.019 C 
ATOM      9  C   UNL d   1       6.395   8.015   1.609  0.00  0.00     0.001 C 
ATOM     10  C   UNL d   1       5.603   7.907   2.734  0.00  0.00     0.002 C 
ATOM     11  C   UNL d   1       5.111   6.654   3.062  0.00  0.00     0.025 C 
ATOM     12  C   UNL d   1       5.258   5.566   2.203  0.00  0.00     0.049 C 
ATOM     13 CL   UNL d   1       5.063   3.989   2.880  0.00  0.00    -0.083 Cl
ENDBRANCH   4   7
ENDBRANCH   1   3
BRANCH   1  14
ATOM     14  C   UNL d   1       2.413   4.616   0.964  0.00  0.00     0.244 C 
ATOM     15  N   UNL d   1       2.543   5.990   1.120  0.00  0.00    -0.325 N 
ATOM     16  H   UNL d   1       3.013   6.485   0.371  0.00  0.00     0.169 HD
ATOM     17  O   UNL d   1       1.661   3.915   1.640  0.00  0.00    -0.271 OA
BRANCH  15  18
ATOM     18  C   UNL d   1       2.259   6.779   2.312  0.00  0.00     0.040 A 
ATOM     19  C   UNL d   1       2.564   8.166   2.258  0.00  0.00     0.030 A 
ATOM     20  C   UNL d   1       2.621   8.969   3.425  0.00  0.00     0.002 A 
ATOM     21  C   UNL d   1       2.370   8.418   4.674  0.00  0.00     0.001 A 
ATOM     22  C   UNL d   1       2.053   7.074   4.753  0.00  0.00     0.009 A 
ATOM     23  C   UNL d   1       1.987   6.250   3.603  0.00  0.00    -0.035 A 
ATOM     24  C   UNL d   1       1.815   4.801   3.940  0.00  0.00     0.050 C 
ENDBRANCH  15  18
ENDBRANCH   1  14
TORSDOF 4
