@<TRIPOS>MOLECULE
*****
 50 52 0 0 0
SMALL
GASTEIGER

@<TRIPOS>ATOM
      1 C           1.0597    0.2003    0.0350 C.3     1  UNL1       -0.0190
      2 C           2.5745    0.0624   -0.1265 C.3     1  UNL1        0.1742
      3 O           2.9806   -0.8826   -1.1450 O.3     1  UNL1       -0.4770
      4 C           2.6309   -2.2085   -0.9951 C.ar    1  UNL1        0.1566
      5 C           3.6382   -3.1675   -1.1610 C.ar    1  UNL1       -0.0170
      6 C           3.3439   -4.5433   -1.0793 C.ar    1  UNL1       -0.0581
      7 C           2.0493   -4.9791   -0.7987 C.ar    1  UNL1       -0.0588
      8 C           1.0376   -4.0429   -0.6774 C.ar    1  UNL1       -0.0228
      9 C           1.3233   -2.6923   -0.8574 C.ar    1  UNL1        0.1648
     10 F           0.2535   -1.9075   -1.0220 F       1  UNL1       -0.2017
     11 C           3.0947    1.5034   -0.4543 C.2     1  UNL1        0.2695
     12 O           2.3440    2.4665   -0.6438 O.2     1  UNL1       -0.2702
     13 N           4.4615    1.6929   -0.4646 N.am    1  UNL1       -0.2311
     14 N           4.9614    3.0130   -0.6853 N.am    1  UNL1       -0.2302
     15 C           6.3321    3.1970   -0.7434 C.2     1  UNL1        0.2634
     16 O           7.0845    2.2497   -0.5453 O.2     1  UNL1       -0.2685
     17 C           6.7987    4.5466   -1.0745 C.ar    1  UNL1        0.0787
     18 C           6.3407    5.7446   -0.5606 C.ar    1  UNL1        0.0348
     19 N           7.0866    6.7357   -1.1318 N.ar    1  UNL1       -0.2837
     20 N           8.0010    6.2822   -1.9982 N.ar    1  UNL1       -0.1778
     21 C           7.8566    4.9485   -1.9590 C.ar    1  UNL1        0.0780
     22 C           8.7036    4.0869   -2.8618 C.3     1  UNL1        0.0038
     23 C           9.6407    3.1684   -2.0625 C.3     1  UNL1       -0.0447
     24 C          10.3505    2.1367   -2.9290 C.3     1  UNL1       -0.0525
     25 C           9.3704    1.3593   -3.8018 C.3     1  UNL1       -0.0530
     26 C           8.5510    2.3024   -4.6727 C.3     1  UNL1       -0.0525
     27 C           7.7915    3.3066   -3.8235 C.3     1  UNL1       -0.0447
     28 H           0.6456   -0.6657    0.5544 H       1  UNL1        0.0270
     29 H           0.5861    0.3112   -0.9491 H       1  UNL1        0.0270
     30 H           0.7636    1.0504    0.6539 H       1  UNL1        0.0270
     31 H           3.0121   -0.2332    0.8370 H       1  UNL1        0.0829
     32 H           4.6568   -2.8650   -1.3924 H       1  UNL1        0.0655
     33 H           4.1242   -5.2829   -1.2481 H       1  UNL1        0.0619
     34 H           1.8126   -6.0376   -0.7290 H       1  UNL1        0.0618
     35 H           0.0071   -4.3392   -0.5056 H       1  UNL1        0.0647
     36 H           5.1489    0.9520   -0.3367 H       1  UNL1        0.1729
     37 H           4.2857    3.7297   -0.9390 H       1  UNL1        0.1731
     38 H           5.5890    5.9750    0.1789 H       1  UNL1        0.0831
     39 H           7.0295    7.7387   -0.9776 H       1  UNL1        0.1882
     40 H           9.3477    4.7354   -3.4783 H       1  UNL1        0.0365
     41 H           9.0897    2.6174   -1.3043 H       1  UNL1        0.0272
     42 H          10.3730    3.7640   -1.5041 H       1  UNL1        0.0272
     43 H          10.8948    1.4388   -2.2825 H       1  UNL1        0.0265
     44 H          11.0892    2.6399   -3.5617 H       1  UNL1        0.0265
     45 H           8.6996    0.7630   -3.1691 H       1  UNL1        0.0265
     46 H           9.9195    0.6569   -4.4371 H       1  UNL1        0.0265
     47 H           7.8369    1.7278   -5.2728 H       1  UNL1        0.0265
     48 H           9.2107    2.8334   -5.3678 H       1  UNL1        0.0265
     49 H           7.0280    2.7597   -3.2604 H       1  UNL1        0.0272
     50 H           7.2465    4.0062   -4.4703 H       1  UNL1        0.0272
@<TRIPOS>BOND
     1     1     2    1
     2     2     3    1
     3     3     4    1
     4     4     5   ar
     5     5     6   ar
     6     6     7   ar
     7     7     8   ar
     8     8     9   ar
     9     4     9   ar
    10     9    10    1
    11     2    11    1
    12    11    12    2
    13    11    13   am
    14    13    14    1
    15    14    15   am
    16    15    16    2
    17    15    17    1
    18    17    18   ar
    19    18    19   ar
    20    19    20   ar
    21    20    21   ar
    22    17    21   ar
    23    21    22    1
    24    22    23    1
    25    23    24    1
    26    24    25    1
    27    25    26    1
    28    26    27    1
    29    22    27    1
    30     1    28    1
    31     1    29    1
    32     1    30    1
    33     2    31    1
    34     5    32    1
    35     6    33    1
    36     7    34    1
    37     8    35    1
    38    13    36    1
    39    14    37    1
    40    18    38    1
    41    19    39    1
    42    22    40    1
    43    23    41    1
    44    23    42    1
    45    24    43    1
    46    24    44    1
    47    25    45    1
    48    25    46    1
    49    26    47    1
    50    26    48    1
    51    27    49    1
    52    27    50    1
