@<TRIPOS>MOLECULE
*****
 63 64 0 0 0
SMALL
GASTEIGER

@<TRIPOS>ATOM
      1 O           1.2056   -0.1095    0.1684 O.2     1  UNL1       -0.2743
      2 C           2.4352   -0.0698    0.0883 C.2     1  UNL1        0.2291
      3 C           3.1447    0.5598   -1.0956 C.3     1  UNL1        0.0254
      4 C           2.1635    1.1131   -2.1374 C.3     1  UNL1       -0.0447
      5 C           2.9016    1.7411   -3.3205 C.3     1  UNL1       -0.0526
      6 C           1.9242    2.2930   -4.3602 C.3     1  UNL1       -0.0530
      7 C           2.6701    2.9214   -5.5441 C.3     1  UNL1       -0.0526
      8 C           1.6903    3.4738   -6.5849 C.3     1  UNL1       -0.0447
      9 C           2.3848    4.1178   -7.7993 C.3     1  UNL1        0.0254
     10 C           1.3655    4.6559   -8.8160 C.2     1  UNL1        0.2291
     11 O           0.1466    4.5702   -8.6468 O.2     1  UNL1       -0.2743
     12 N           1.8947    5.2504   -9.9483 N.am    1  UNL1       -0.2332
     13 N           1.0148    5.7969  -10.9440 N.am    1  UNL1       -0.2179
     14 C           1.5782    6.3826  -12.0670 C.2     1  UNL1        0.3202
     15 O           2.8072    6.4231  -12.1841 O.2     1  UNL1       -0.2509
     16 N           0.6772    6.9208  -12.9830 N.am    1  UNL1       -0.2683
     17 C           1.1114    7.5212  -14.2034 C.ar    1  UNL1        0.0348
     18 C           0.5407    8.7016  -14.7039 C.ar    1  UNL1       -0.0404
     19 C           1.0136    9.2648  -15.9070 C.ar    1  UNL1       -0.0600
     20 C           2.0576    8.6612  -16.6084 C.ar    1  UNL1       -0.0616
     21 C           2.5953    7.4692  -16.1385 C.ar    1  UNL1       -0.0600
     22 C           2.1206    6.9067  -14.9512 C.ar    1  UNL1       -0.0404
     23 N           3.2057   -0.6084    1.0914 N.am    1  UNL1       -0.2332
     24 N           4.6182   -0.6286    1.1660 N.am    1  UNL1       -0.2179
     25 C           5.1921   -1.2384    2.2782 C.2     1  UNL1        0.3202
     26 O           4.4801   -1.7369    3.1591 O.2     1  UNL1       -0.2509
     27 N           6.5763   -1.1884    2.3098 N.am    1  UNL1       -0.2683
     28 C           7.3786   -1.8053    3.3110 C.ar    1  UNL1        0.0348
     29 C           8.5994   -1.2310    3.6958 C.ar    1  UNL1       -0.0404
     30 C           9.4520   -1.8960    4.5941 C.ar    1  UNL1       -0.0600
     31 C           9.0811   -3.1252    5.1353 C.ar    1  UNL1       -0.0616
     32 C           7.8655   -3.6944    4.7690 C.ar    1  UNL1       -0.0600
     33 C           7.0185   -3.0347    3.8705 C.ar    1  UNL1       -0.0404
     34 H           3.7780   -0.2017   -1.5630 H       1  UNL1        0.0359
     35 H           3.7775    1.3735   -0.7259 H       1  UNL1        0.0359
     36 H           1.5096    1.8635   -1.6745 H       1  UNL1        0.0270
     37 H           1.5094    0.3095   -2.4996 H       1  UNL1        0.0270
     38 H           3.5487    0.9902   -3.7892 H       1  UNL1        0.0265
     39 H           3.5487    2.5502   -2.9612 H       1  UNL1        0.0265
     40 H           1.2746    3.0428   -3.8914 H       1  UNL1        0.0265
     41 H           1.2746    1.4846   -4.7185 H       1  UNL1        0.0265
     42 H           3.3175    2.1662   -6.0053 H       1  UNL1        0.0265
     43 H           3.3176    3.7266   -5.1772 H       1  UNL1        0.0265
     44 H           1.0394    4.2137   -6.1023 H       1  UNL1        0.0270
     45 H           1.0393    2.6594   -6.9270 H       1  UNL1        0.0270
     46 H           3.0242    3.3727   -8.2874 H       1  UNL1        0.0359
     47 H           3.0233    4.9406   -7.4562 H       1  UNL1        0.0359
     48 H           2.8926    5.3584  -10.1319 H       1  UNL1        0.1728
     49 H           0.0194    5.6870  -10.7723 H       1  UNL1        0.1744
     50 H          -0.2831    7.0697  -12.7056 H       1  UNL1        0.1564
     51 H          -0.2150    9.2513  -14.1487 H       1  UNL1        0.0636
     52 H           0.5833   10.1858  -16.2979 H       1  UNL1        0.0618
     53 H           2.4567    9.1155  -17.5130 H       1  UNL1        0.0618
     54 H           3.3878    6.9683  -16.6874 H       1  UNL1        0.0618
     55 H           2.5386    5.9600  -14.6222 H       1  UNL1        0.0636
     56 H           2.7129   -1.0236    1.8857 H       1  UNL1        0.1728
     57 H           5.1605   -0.2480    0.4031 H       1  UNL1        0.1744
     58 H           7.0556   -0.5821    1.6604 H       1  UNL1        0.1564
     59 H           8.8883   -0.2399    3.3557 H       1  UNL1        0.0636
     60 H          10.4096   -1.4606    4.8733 H       1  UNL1        0.0618
     61 H           9.7313   -3.6375    5.8416 H       1  UNL1        0.0618
     62 H           7.5772   -4.6647    5.1656 H       1  UNL1        0.0618
     63 H           6.0945   -3.5255    3.5795 H       1  UNL1        0.0636
@<TRIPOS>BOND
     1     1     2    2
     2     2     3    1
     3     3     4    1
     4     4     5    1
     5     5     6    1
     6     6     7    1
     7     7     8    1
     8     8     9    1
     9     9    10    1
    10    10    11    2
    11    10    12   am
    12    12    13    1
    13    13    14   am
    14    14    15    2
    15    14    16   am
    16    16    17    1
    17    17    18   ar
    18    18    19   ar
    19    19    20   ar
    20    20    21   ar
    21    21    22   ar
    22    17    22   ar
    23     2    23   am
    24    23    24    1
    25    24    25   am
    26    25    26    2
    27    25    27   am
    28    27    28    1
    29    28    29   ar
    30    29    30   ar
    31    30    31   ar
    32    31    32   ar
    33    32    33   ar
    34    28    33   ar
    35     3    34    1
    36     3    35    1
    37     4    36    1
    38     4    37    1
    39     5    38    1
    40     5    39    1
    41     6    40    1
    42     6    41    1
    43     7    42    1
    44     7    43    1
    45     8    44    1
    46     8    45    1
    47     9    46    1
    48     9    47    1
    49    12    48    1
    50    13    49    1
    51    16    50    1
    52    18    51    1
    53    19    52    1
    54    20    53    1
    55    21    54    1
    56    22    55    1
    57    23    56    1
    58    24    57    1
    59    27    58    1
    60    29    59    1
    61    30    60    1
    62    31    61    1
    63    32    62    1
    64    33    63    1
