REMARK  9 active torsions:
REMARK  status: ('A' for Active; 'I' for Inactive)
REMARK    1  A    between atoms: C_2  and  C_3 
REMARK    2  A    between atoms: C_3  and  C_4 
REMARK    3  A    between atoms: C_4  and  C_5 
REMARK    4  A    between atoms: C_8  and  C_9 
REMARK    5  A    between atoms: C_9  and  N_11 
REMARK    6  A    between atoms: N_11  and  C_12 
REMARK    7  A    between atoms: C_15  and  N_16 
REMARK       I    between atoms: N_16  and  C_17 
REMARK    8  A    between atoms: C_17  and  C_19 
REMARK    9  A    between atoms: C_19  and  N_20 
ROOT
ATOM      1  C   UNL d   1       3.776   7.644   1.087  0.00  0.00     0.028 A 
ATOM      2  C   UNL d   1       2.508   8.067   0.663  0.00  0.00     0.031 A 
ATOM      3  C   UNL d   1       2.239   9.424   0.368  0.00  0.00     0.032 A 
ATOM      4  C   UNL d   1       3.220  10.390   0.585  0.00  0.00     0.034 A 
ATOM      5  C   UNL d   1       4.482   9.952   0.960  0.00  0.00     0.032 A 
ATOM      6  C   UNL d   1       4.746   8.618   1.187  0.00  0.00     0.031 A 
ENDROOT
BRANCH   1   7
ATOM      7  N   UNL d   1       4.049   6.331   1.359  0.00  0.00    -0.378 N 
ATOM      8  H   UNL d   1       3.748   5.641   0.670  0.00  0.00     0.160 HD
BRANCH   7   9
ATOM      9  C   UNL d   1       4.906   5.773   2.436  0.00  0.00     0.157 C 
ATOM     10  C   UNL d   1       6.315   6.362   2.520  0.00  0.00     0.041 C 
BRANCH   9  11
ATOM     11  C   UNL d   1       5.048   4.292   2.279  0.00  0.00     0.195 A 
ATOM     12  O   UNL d   1       5.727   3.591   3.234  0.00  0.00    -0.194 OA
ATOM     13  N   UNL d   1       5.700   2.252   2.824  0.00  0.00    -0.111 NA
ATOM     14  C   UNL d   1       5.006   2.304   1.679  0.00  0.00     0.156 A 
ATOM     15  N   UNL d   1       4.611   3.551   1.289  0.00  0.00    -0.207 NA
BRANCH  14  16
ATOM     16  C   UNL d   1       4.552   1.119   0.924  0.00  0.00     0.083 C 
BRANCH  16  17
ATOM     17  C   UNL d   1       3.022   1.091   0.893  0.00  0.00     0.007 C 
BRANCH  17  18
ATOM     18  C   UNL d   1       2.494  -0.077   0.077  0.00  0.00    -0.004 C 
ATOM     19  C   UNL d   1       0.976  -0.075   0.071  0.00  0.00     0.005 C 
ENDBRANCH  17  18
ENDBRANCH  16  17
ENDBRANCH  14  16
ENDBRANCH   9  11
ENDBRANCH   7   9
ENDBRANCH   1   7
BRANCH   4  20
ATOM     20  N   UNL d   1       2.953  11.777   0.425  0.00  0.00    -0.326 N 
ATOM     21  C   UNL d   1       3.771  12.731   0.991  0.00  0.00     0.248 C 
ATOM     22  O   UNL d   1       4.667  12.473   1.809  0.00  0.00    -0.271 OA
ATOM     23  H   UNL d   1       2.019  12.023   0.110  0.00  0.00     0.169 HD
BRANCH  21  24
ATOM     24  C   UNL d   1       3.569  14.201   0.635  0.00  0.00     0.337 C 
BRANCH  24  25
ATOM     25  N   UNL d   1       4.839  15.072   0.948  0.00  0.00    -0.063 N 
ATOM     26  C   UNL d   1       4.675  16.481   0.419  0.00  0.00     0.235 C 
ATOM     27  C   UNL d   1       5.623  17.440   1.135  0.00  0.00     0.028 C 
ATOM     28  C   UNL d   1       6.998  17.578   0.468  0.00  0.00     0.002 C 
ATOM     29  C   UNL d   1       7.612  16.286  -0.046  0.00  0.00     0.002 C 
ATOM     30  C   UNL d   1       7.374  15.137   0.905  0.00  0.00     0.028 C 
ATOM     31  C   UNL d   1       6.122  14.391   0.494  0.00  0.00     0.235 C 
ATOM     32  H   UNL d   1       4.884  15.092   1.979  0.00  0.00     0.280 HD
ENDBRANCH  24  25
ENDBRANCH  21  24
ENDBRANCH   4  20
TORSDOF 9
