REMARK  8 active torsions:
REMARK  status: ('A' for Active; 'I' for Inactive)
REMARK    1  A    between atoms: C_5  and  C_6 
REMARK       I    between atoms: C_6  and  N_8 
REMARK    2  A    between atoms: N_8  and  C_9 
REMARK    3  A    between atoms: C_9  and  N_11 
REMARK    4  A    between atoms: N_11  and  N_12 
REMARK       I    between atoms: N_12  and  C_13 
REMARK    5  A    between atoms: C_13  and  C_15 
REMARK    6  A    between atoms: C_15  and  C_16 
REMARK    7  A    between atoms: C_16  and  C_17 
REMARK       I    between atoms: C_17  and  N_19 
REMARK    8  A    between atoms: N_19  and  C_20 
ROOT
ATOM      1  N   UNL d   1       7.337   5.502  -0.121  0.00  0.00    -0.268 N 
ATOM      2  C   UNL d   1       8.727   5.493  -0.136  0.00  0.00     0.236 C 
ATOM      3  O   UNL d   1       9.368   4.443  -0.130  0.00  0.00    -0.272 OA
ATOM      4  H   UNL d   1       6.785   6.362  -0.128  0.00  0.00     0.190 HD
ENDROOT
BRANCH   1   5
ATOM      5  N   UNL d   1       6.562   4.262  -0.097  0.00  0.00    -0.273 N 
ATOM      6  H   UNL d   1       7.127   3.415  -0.088  0.00  0.00     0.189 HD
BRANCH   5   7
ATOM      7  C   UNL d   1       5.154   4.327  -0.081  0.00  0.00     0.193 C 
ATOM      8  S   UNL d   1       4.398   5.836  -0.096  0.00  0.00    -0.039 SA
BRANCH   7   9
ATOM      9  N   UNL d   1       4.482   3.074  -0.053  0.00  0.00    -0.298 N 
ATOM     10  C   UNL d   1       3.076   2.869  -0.033  0.00  0.00     0.257 C 
ATOM     11  O   UNL d   1       2.259   3.796  -0.037  0.00  0.00    -0.267 OA
ATOM     12  H   UNL d   1       5.064   2.251  -0.050  0.00  0.00     0.171 HD
BRANCH  10  13
ATOM     13  C   UNL d   1       2.451   1.495  -0.009  0.00  0.00     0.033 A 
ATOM     14  C   UNL d   1       3.158   0.295  -0.005  0.00  0.00     0.017 A 
ATOM     15  C   UNL d   1       2.469  -0.936  -0.001  0.00  0.00     0.009 A 
ATOM     16  C   UNL d   1       1.064  -1.006   0.002  0.00  0.00    -0.045 A 
ATOM     17  C   UNL d   1       0.381  -2.349  -0.006  0.00  0.00     0.049 C 
ATOM     18  C   UNL d   1       0.350   0.195   0.006  0.00  0.00     0.017 A 
ATOM     19  C   UNL d   1       1.034   1.421   0.002  0.00  0.00     0.036 A 
ATOM     20 BR   UNL d   1      -1.552   0.227   0.006  0.00  0.00    -0.051 Br
ENDBRANCH  10  13
ENDBRANCH   7   9
ENDBRANCH   5   7
ENDBRANCH   1   5
BRANCH   2  21
ATOM     21  C   UNL d   1       9.405   6.875  -0.163  0.00  0.00     0.114 C 
BRANCH  21  22
ATOM     22  C   UNL d   1      10.957   6.800  -0.184  0.00  0.00     0.112 C 
BRANCH  22  23
ATOM     23  C   UNL d   1      11.585   8.192  -0.265  0.00  0.00     0.222 C 
ATOM     24  O   UNL d   1      10.873   9.179  -0.449  0.00  0.00    -0.273 OA
ATOM     25  N   UNL d   1      12.981   8.253  -0.189  0.00  0.00    -0.326 N 
ATOM     26  H   UNL d   1      13.514   7.427  -0.435  0.00  0.00     0.169 HD
BRANCH  25  27
ATOM     27  C   UNL d   1      13.666   9.512  -0.194  0.00  0.00     0.056 A 
ATOM     28  C   UNL d   1      14.775   9.700  -1.040  0.00  0.00     0.031 A 
ATOM     29  C   UNL d   1      15.412  10.954  -1.121  0.00  0.00     0.002 A 
ATOM     30  C   UNL d   1      14.971  12.021  -0.341  0.00  0.00     0.002 A 
ATOM     31  C   UNL d   1      13.912  11.832   0.540  0.00  0.00     0.026 A 
ATOM     32  C   UNL d   1      13.275  10.588   0.631  0.00  0.00     0.060 A 
ATOM     33 CL   UNL d   1      12.138  10.414   1.930  0.00  0.00    -0.082 Cl
ENDBRANCH  25  27
ENDBRANCH  22  23
ENDBRANCH  21  22
ENDBRANCH   2  21
TORSDOF 8
