@<TRIPOS>MOLECULE
*****
 55 59 0 0 0
SMALL
GASTEIGER

@<TRIPOS>ATOM
      1 N           0.9086   -0.2196   -0.0761 N.pl3   1  UNL1       -0.3049
      2 C           2.2920   -0.1155   -0.0696 C.ar    1  UNL1        0.2824
      3 C           3.0311   -1.3462   -0.0817 C.ar    1  UNL1        0.1251
      4 C           2.2514   -2.6328   -0.1345 C.2     1  UNL1        0.2561
      5 O           1.0223   -2.5642   -0.0954 O.2     1  UNL1       -0.2696
      6 N           2.8970   -3.8523   -0.1735 N.am    1  UNL1       -0.2800
      7 C           2.1162   -5.0459   -0.1429 C.ar    1  UNL1        0.0521
      8 C           0.9494   -5.1523   -0.9165 C.ar    1  UNL1       -0.0390
      9 C           0.0845   -6.2330   -0.7594 C.ar    1  UNL1       -0.0599
     10 C           0.4336   -7.2753    0.0918 C.ar    1  UNL1       -0.0603
     11 C           1.6510   -7.2389    0.7763 C.ar    1  UNL1       -0.0416
     12 C           2.4704   -6.1095    0.6933 C.ar    1  UNL1        0.0621
     13 CL          3.8419   -5.9957    1.7378 Cl      1  UNL1       -0.0816
     14 C           4.4137   -1.3272   -0.0653 C.ar    1  UNL1       -0.0214
     15 C           5.0641   -0.0991   -0.0528 C.ar    1  UNL1        0.1328
     16 C           6.5287   -0.0468   -0.0457 C.ar    1  UNL1        0.2721
     17 O           7.1358   -1.1210   -0.0442 O.2     1  UNL1       -0.2663
     18 N           7.1133    1.2083   -0.0430 N.ar    1  UNL1       -0.2674
     19 C           8.5048    1.2870   -0.0375 C.ar    1  UNL1        0.0146
     20 C           9.1488    2.4579   -0.0350 C.ar    1  UNL1       -0.0450
     21 C           8.3960    3.6825   -0.0381 C.ar    1  UNL1       -0.0569
     22 C           7.0556    3.6625   -0.0433 C.ar    1  UNL1       -0.0185
     23 C           6.3225    2.3581   -0.0469 C.ar    1  UNL1        0.1468
     24 N           5.0178    2.3412   -0.0533 N.ar    1  UNL1       -0.1680
     25 C           4.3580    1.0975   -0.0569 C.ar    1  UNL1        0.3207
     26 N           2.9809    1.0847   -0.0651 N.ar    1  UNL1       -0.1605
     27 C           2.3158    2.4395   -0.0717 C.3     1  UNL1        0.1584
     28 C           0.8018    2.3989   -0.0688 C.3     1  UNL1        0.0323
     29 C          -0.0175    3.6313   -0.1055 C.ar    1  UNL1       -0.0414
     30 C          -1.4018    3.5117   -0.3351 C.ar    1  UNL1       -0.0584
     31 C          -2.1514    4.6548   -0.5588 C.ar    1  UNL1       -0.0615
     32 C          -1.5464    5.9012   -0.4165 C.ar    1  UNL1       -0.0617
     33 C          -0.2098    6.0064   -0.0334 C.ar    1  UNL1       -0.0615
     34 C           0.5694    4.8726    0.0731 C.ar    1  UNL1       -0.0584
     35 H           0.5321   -1.1760   -0.0499 H       1  UNL1        0.1478
     36 H           0.1283    0.3999   -0.0638 H       1  UNL1        0.1478
     37 H           3.8461   -3.9418    0.1663 H       1  UNL1        0.1552
     38 H           0.6911   -4.3846   -1.6426 H       1  UNL1        0.0637
     39 H          -0.8570   -6.2584   -1.3037 H       1  UNL1        0.0618
     40 H          -0.2428   -8.1176    0.2186 H       1  UNL1        0.0618
     41 H           1.9387   -8.0863    1.3924 H       1  UNL1        0.0633
     42 H           5.0039   -2.2383   -0.0690 H       1  UNL1        0.0638
     43 H           9.0594    0.3490   -0.0352 H       1  UNL1        0.0814
     44 H          10.2355    2.5023   -0.0305 H       1  UNL1        0.0632
     45 H           8.9510    4.6174   -0.0361 H       1  UNL1        0.0619
     46 H           6.4770    4.5778   -0.0454 H       1  UNL1        0.0654
     47 H           2.6681    2.9645   -0.9693 H       1  UNL1        0.1035
     48 H           2.6701    2.9647    0.8232 H       1  UNL1        0.1035
     49 H           0.4862    1.9061    0.8584 H       1  UNL1        0.0375
     50 H           0.5118    1.8876   -0.9971 H       1  UNL1        0.0375
     51 H          -1.8964    2.5394   -0.3744 H       1  UNL1        0.0620
     52 H          -3.1979    4.5796   -0.8443 H       1  UNL1        0.0618
     53 H          -2.1203    6.8033   -0.5980 H       1  UNL1        0.0618
     54 H           0.2408    6.9725    0.1636 H       1  UNL1        0.0618
     55 H           1.6272    4.9739    0.2855 H       1  UNL1        0.0620
@<TRIPOS>UNITY_ATOM_ATTR
26 1
charge 1
@<TRIPOS>BOND
     1     1     2    1
     2     2     3   ar
     3     3     4    1
     4     4     5    2
     5     4     6   am
     6     6     7    1
     7     7     8   ar
     8     8     9   ar
     9     9    10   ar
    10    10    11   ar
    11    11    12   ar
    12     7    12   ar
    13    12    13    1
    14     3    14   ar
    15    14    15   ar
    16    15    16   ar
    17    16    17    2
    18    16    18   ar
    19    18    19   ar
    20    19    20   ar
    21    20    21   ar
    22    21    22   ar
    23    22    23   ar
    24    18    23   ar
    25    23    24   ar
    26    24    25   ar
    27    15    25   ar
    28    25    26   ar
    29     2    26   ar
    30    26    27    1
    31    27    28    1
    32    28    29    1
    33    29    30   ar
    34    30    31   ar
    35    31    32   ar
    36    32    33   ar
    37    33    34   ar
    38    29    34   ar
    39     1    35    1
    40     1    36    1
    41     6    37    1
    42     8    38    1
    43     9    39    1
    44    10    40    1
    45    11    41    1
    46    14    42    1
    47    19    43    1
    48    20    44    1
    49    21    45    1
    50    22    46    1
    51    27    47    1
    52    27    48    1
    53    28    49    1
    54    28    50    1
    55    30    51    1
    56    31    52    1
    57    32    53    1
    58    33    54    1
    59    34    55    1
