REMARK  4 active torsions:
REMARK  status: ('A' for Active; 'I' for Inactive)
REMARK    1  A    between atoms: C_2  and  C_3 
REMARK    2  A    between atoms: C_3  and  C_4 
REMARK    3  A    between atoms: C_6  and  C_7 
REMARK       I    between atoms: C_7  and  N_9 
REMARK    4  A    between atoms: N_9  and  C_10 
ROOT
ATOM      1  C   UNL d   1       4.641  -1.410   0.039  0.00  0.00     0.057 A 
ATOM      2  C   UNL d   1       5.429  -0.237   0.040  0.00  0.00     0.065 A 
ATOM      3  C   UNL d   1       6.736  -0.652   0.044  0.00  0.00     0.119 A 
ATOM      4  N   UNL d   1       6.664  -2.023   0.046  0.00  0.00    -0.273 N 
ATOM      5  N   UNL d   1       5.404  -2.508   0.042  0.00  0.00    -0.179 NA
ATOM      6  H   UNL d   1       7.444  -2.675   0.050  0.00  0.00     0.189 HD
ENDROOT
BRANCH   3   7
ATOM      7  C   UNL d   1       7.972   0.076   0.048  0.00  0.00     0.270 C 
ATOM      8  O   UNL d   1       9.046  -0.520   0.053  0.00  0.00    -0.266 OA
ATOM      9  N   UNL d   1       7.866   1.462   0.045  0.00  0.00    -0.348 N 
ATOM     10  H   UNL d   1       6.947   1.883   0.041  0.00  0.00     0.163 HD
BRANCH   9  11
ATOM     11  C   UNL d   1       9.034   2.361   0.049  0.00  0.00     0.022 C 
ATOM     12  C   UNL d   1       9.871   2.129   1.315  0.00  0.00     0.037 C 
ATOM     13  C   UNL d   1       9.882   2.126  -1.210  0.00  0.00     0.037 C 
ATOM     14  C   UNL d   1       8.595   3.842   0.045  0.00  0.00     0.037 C 
ENDBRANCH   9  11
ENDBRANCH   3   7
BRANCH   1  15
ATOM     15  C   UNL d   1       3.146  -1.475   0.036  0.00  0.00     0.061 C 
BRANCH  15  16
ATOM     16  C   UNL d   1       2.542  -0.067  -0.046  0.00  0.00     0.002 C 
ATOM     17  C   UNL d   1       1.033  -0.067  -0.046  0.00  0.00     0.005 C 
ENDBRANCH  15  16
ENDBRANCH   1  15
TORSDOF 4
