@<TRIPOS>MOLECULE
*****
 36 36 0 0 0
SMALL
GASTEIGER

@<TRIPOS>ATOM
      1 C           1.1074   -0.0374   -0.1332 C.3     1  UNL1       -0.0468
      2 C           2.6423   -0.0641   -0.1033 C.3     1  UNL1        0.0190
      3 C           3.0878   -0.1185    1.3601 C.3     1  UNL1       -0.0468
      4 N           3.2144   -1.1791   -0.8767 N.am    1  UNL1       -0.2959
      5 C           4.5763   -1.3231   -1.0506 C.2     1  UNL1        0.3162
      6 O           5.4127   -0.5475   -0.5803 O.2     1  UNL1       -0.2513
      7 N           4.9623   -2.4355   -1.7653 N.am    1  UNL1       -0.2182
      8 N           6.3571   -2.6964   -1.9531 N.am    1  UNL1       -0.2329
      9 C           6.7171   -3.7573   -2.7651 C.2     1  UNL1        0.2334
     10 O           5.8389   -4.4338   -3.3082 O.2     1  UNL1       -0.2739
     11 C           8.2308   -4.0397   -2.9196 C.3     1  UNL1        0.0505
     12 C           8.5428   -5.3016   -3.7261 C.ar    1  UNL1       -0.0382
     13 C           7.8656   -6.4955   -3.4227 C.ar    1  UNL1       -0.0517
     14 C           8.0926   -7.6685   -4.1404 C.ar    1  UNL1        0.0159
     15 C           8.9922   -7.6556   -5.2063 C.ar    1  UNL1        0.2732
     16 N           9.1082   -8.8485   -6.0553 N.pl3   1  UNL1        0.0796
     17 O           8.4043   -9.8293   -5.7725 O.2     1  UNL1        0.0414
     18 O           9.8875   -8.7995   -7.0181 O.co2   1  UNL1       -0.5760
     19 C           9.7276   -6.4981   -5.4968 C.ar    1  UNL1        0.0159
     20 C           9.5087   -5.3271   -4.7489 C.ar    1  UNL1       -0.0517
     21 H           0.7240    0.8151    0.4447 H       1  UNL1        0.0247
     22 H           0.6819   -0.9456    0.3084 H       1  UNL1        0.0247
     23 H           0.7192    0.0565   -1.1517 H       1  UNL1        0.0247
     24 H           3.0112    0.8658   -0.5543 H       1  UNL1        0.0493
     25 H           2.7390   -1.0412    1.8360 H       1  UNL1        0.0247
     26 H           2.6904    0.7318    1.9246 H       1  UNL1        0.0247
     27 H           4.1756   -0.0892    1.4560 H       1  UNL1        0.0247
     28 H           2.5844   -1.8147   -1.3462 H       1  UNL1        0.1505
     29 H           4.3226   -3.0764   -2.2284 H       1  UNL1        0.1744
     30 H           7.0003   -2.0467   -1.5026 H       1  UNL1        0.1728
     31 H           8.6859   -4.1644   -1.9280 H       1  UNL1        0.0407
     32 H           8.7042   -3.1695   -3.3909 H       1  UNL1        0.0407
     33 H           7.0980   -6.5090   -2.6508 H       1  UNL1        0.0622
     34 H           7.5375   -8.5635   -3.8701 H       1  UNL1        0.0685
     35 H          10.4557   -6.4896   -6.3069 H       1  UNL1        0.0685
     36 H          10.0823   -4.4356   -4.9994 H       1  UNL1        0.0622
@<TRIPOS>UNITY_ATOM_ATTR
16 1
charge 1
18 1
charge -1
@<TRIPOS>BOND
     1     1     2    1
     2     2     3    1
     3     2     4    1
     4     4     5   am
     5     5     6    2
     6     5     7   am
     7     7     8    1
     8     8     9   am
     9     9    10    2
    10     9    11    1
    11    11    12    1
    12    12    13   ar
    13    13    14   ar
    14    14    15   ar
    15    15    16    1
    16    16    17    2
    17    16    18    1
    18    15    19   ar
    19    19    20   ar
    20    12    20   ar
    21     1    21    1
    22     1    22    1
    23     1    23    1
    24     2    24    1
    25     3    25    1
    26     3    26    1
    27     3    27    1
    28     4    28    1
    29     7    29    1
    30     8    30    1
    31    11    31    1
    32    11    32    1
    33    13    33    1
    34    14    34    1
    35    19    35    1
    36    20    36    1
