@<TRIPOS>MOLECULE
*****
 42 42 0 0 0
SMALL
GASTEIGER

@<TRIPOS>ATOM
      1 C           0.9784   -0.0921    0.0094 C.3     1  UNL1       -0.0627
      2 C           2.5108   -0.0993   -0.0161 C.3     1  UNL1       -0.0463
      3 C           2.9892   -1.0427   -1.1193 C.3     1  UNL1       -0.0627
      4 C           3.0477    1.3302   -0.2207 C.3     1  UNL1       -0.0424
      5 C           4.5814    1.4272   -0.2226 C.3     1  UNL1        0.0256
      6 C           5.0623    2.8547   -0.4435 C.2     1  UNL1        0.2291
      7 O           4.3029    3.8112   -0.5980 O.2     1  UNL1       -0.2743
      8 N           6.4373    2.9907   -0.4747 N.am    1  UNL1       -0.2344
      9 N           6.9941    4.2540   -0.7277 N.am    1  UNL1       -0.2344
     10 C           8.3739    4.3809   -0.7584 C.2     1  UNL1        0.2294
     11 O           9.1353    3.4252   -0.6045 O.2     1  UNL1       -0.2743
     12 C           8.8366    5.8021   -0.9444 C.3     1  UNL1        0.0295
     13 C          10.3602    5.9939   -0.9582 C.3     1  UNL1       -0.0159
     14 C          10.8375    7.4257   -1.1717 C.ar    1  UNL1       -0.0055
     15 C          12.1495    7.6478   -1.6387 C.ar    1  UNL1       -0.0551
     16 C          12.6337    8.9478   -1.8334 C.ar    1  UNL1       -0.0613
     17 C          11.8242   10.0453   -1.5499 C.ar    1  UNL1       -0.0583
     18 C          10.5339    9.8484   -1.0710 C.ar    1  UNL1       -0.0199
     19 C          10.0537    8.5545   -0.8829 C.ar    1  UNL1        0.1200
     20 O           8.7852    8.4044   -0.4027 O.3     1  UNL1       -0.5065
     21 H           0.5867   -1.1021    0.1747 H       1  UNL1        0.0232
     22 H           0.5695    0.2738   -0.9392 H       1  UNL1        0.0232
     23 H           0.5984    0.5489    0.8115 H       1  UNL1        0.0232
     24 H           2.8655   -0.4779    0.9510 H       1  UNL1        0.0296
     25 H           2.6584   -0.6889   -2.1018 H       1  UNL1        0.0232
     26 H           2.5965   -2.0530   -0.9689 H       1  UNL1        0.0232
     27 H           4.0793   -1.1224   -1.1351 H       1  UNL1        0.0232
     28 H           2.6495    1.9773    0.5723 H       1  UNL1        0.0272
     29 H           2.6576    1.7300   -1.1659 H       1  UNL1        0.0272
     30 H           5.0005    0.8162   -1.0288 H       1  UNL1        0.0359
     31 H           4.9750    1.0543    0.7301 H       1  UNL1        0.0359
     32 H           7.0978    2.2235   -0.3617 H       1  UNL1        0.1728
     33 H           6.3439    5.0378   -0.8063 H       1  UNL1        0.1728
     34 H           8.4069    6.3201   -0.0826 H       1  UNL1        0.0362
     35 H           8.4046    6.2082   -1.8685 H       1  UNL1        0.0362
     36 H          10.7850    5.3617   -1.7503 H       1  UNL1        0.0319
     37 H          10.7831    5.6362   -0.0104 H       1  UNL1        0.0319
     38 H          12.8104    6.8099   -1.8589 H       1  UNL1        0.0621
     39 H          13.6436    9.1071   -2.2052 H       1  UNL1        0.0618
     40 H          12.1965   11.0551   -1.6963 H       1  UNL1        0.0619
     41 H           9.9102   10.7063   -0.8425 H       1  UNL1        0.0654
     42 H           8.3457    9.2625   -0.3129 H       1  UNL1        0.2921
@<TRIPOS>BOND
     1     1     2    1
     2     2     3    1
     3     2     4    1
     4     4     5    1
     5     5     6    1
     6     6     7    2
     7     6     8   am
     8     8     9    1
     9     9    10   am
    10    10    11    2
    11    10    12    1
    12    12    13    1
    13    13    14    1
    14    14    15   ar
    15    15    16   ar
    16    16    17   ar
    17    17    18   ar
    18    18    19   ar
    19    14    19   ar
    20    19    20    1
    21     1    21    1
    22     1    22    1
    23     1    23    1
    24     2    24    1
    25     3    25    1
    26     3    26    1
    27     3    27    1
    28     4    28    1
    29     4    29    1
    30     5    30    1
    31     5    31    1
    32     8    32    1
    33     9    33    1
    34    12    34    1
    35    12    35    1
    36    13    36    1
    37    13    37    1
    38    15    38    1
    39    16    39    1
    40    17    40    1
    41    18    41    1
    42    20    42    1
