@<TRIPOS>MOLECULE
*****
 51 53 0 0 0
SMALL
GASTEIGER

@<TRIPOS>ATOM
      1 C           0.9794   -0.0487    0.1254 C.3     1  UNL1        0.0788
      2 O           2.3950    0.0648    0.2000 O.3     1  UNL1       -0.4951
      3 C           3.0657   -0.9964    0.7389 C.ar    1  UNL1        0.1201
      4 C           4.2696   -0.6897    1.3743 C.ar    1  UNL1       -0.0197
      5 C           5.1143   -1.7067    1.8370 C.ar    1  UNL1       -0.0551
      6 C           4.7322   -3.0526    1.7347 C.ar    1  UNL1       -0.0467
      7 C           5.6061   -4.1299    2.3527 C.3     1  UNL1       -0.0194
      8 C           5.0497   -5.5590    2.2422 C.3     1  UNL1        0.0294
      9 C           5.9318   -6.5941    2.9111 C.2     1  UNL1        0.2294
     10 O           6.9834   -6.3224    3.4877 O.2     1  UNL1       -0.2743
     11 N           5.4548   -7.8913    2.8169 N.am    1  UNL1       -0.2341
     12 N           6.2256   -8.9290    3.3683 N.am    1  UNL1       -0.2304
     13 C           5.8233  -10.2409    3.2021 C.2     1  UNL1        0.2604
     14 O           4.7930  -10.5679    2.6047 O.2     1  UNL1       -0.2687
     15 C           6.6519  -11.2875    3.8516 C.ar    1  UNL1        0.0447
     16 C           6.7845  -12.5750    3.3335 C.ar    1  UNL1       -0.0474
     17 C           7.3873  -13.5988    4.1003 C.ar    1  UNL1       -0.0335
     18 C           7.8812  -13.3838    5.4151 C.ar    1  UNL1        0.1056
     19 N           8.6072  -14.4797    5.9754 N.pl3   1  UNL1       -0.3358
     20 C           9.4448  -14.5335    7.1996 C.3     1  UNL1        0.0210
     21 C           9.7875  -13.2770    7.9358 C.3     1  UNL1       -0.0329
     22 C           8.7601  -14.2710    8.4824 C.3     1  UNL1       -0.0329
     23 C           7.6367  -12.0797    5.9229 C.ar    1  UNL1        0.2944
     24 N           7.6434  -11.6468    7.3212 N.pl3   1  UNL1        0.0815
     25 O           6.9358  -12.2684    8.1271 O.2     1  UNL1        0.0415
     26 O           8.2117  -10.5732    7.5715 O.co2   1  UNL1       -0.5760
     27 C           7.1076  -11.0415    5.1304 C.ar    1  UNL1        0.0296
     28 C           3.5197   -3.3421    1.0944 C.ar    1  UNL1       -0.0551
     29 C           2.6929   -2.3282    0.6025 C.ar    1  UNL1       -0.0197
     30 H           0.6110    0.8124   -0.4410 H       1  UNL1        0.0660
     31 H           0.5519   -0.0037    1.1311 H       1  UNL1        0.0660
     32 H           0.6379   -0.9428   -0.4039 H       1  UNL1        0.0660
     33 H           4.5496    0.3519    1.5139 H       1  UNL1        0.0654
     34 H           6.0728   -1.4335    2.2751 H       1  UNL1        0.0621
     35 H           5.7289   -3.8829    3.4162 H       1  UNL1        0.0318
     36 H           6.6041   -4.0849    1.8973 H       1  UNL1        0.0318
     37 H           4.9460   -5.8328    1.1851 H       1  UNL1        0.0362
     38 H           4.0589   -5.6059    2.7116 H       1  UNL1        0.0362
     39 H           4.5919   -8.1618    2.3465 H       1  UNL1        0.1728
     40 H           7.0890   -8.6386    3.8305 H       1  UNL1        0.1731
     41 H           6.4077  -12.7971    2.3364 H       1  UNL1        0.0626
     42 H           7.4268  -14.5964    3.6571 H       1  UNL1        0.0638
     43 H           8.5991  -15.3284    5.4085 H       1  UNL1        0.1465
     44 H          10.1817  -15.3322    7.1789 H       1  UNL1        0.0497
     45 H           9.8324  -12.4871    7.1986 H       1  UNL1        0.0284
     46 H          10.4616  -13.0002    8.7335 H       1  UNL1        0.0284
     47 H           7.6844  -14.3206    8.3664 H       1  UNL1        0.0284
     48 H           9.0387  -14.6949    9.4402 H       1  UNL1        0.0284
     49 H           6.9471  -10.0638    5.5812 H       1  UNL1        0.0693
     50 H           3.1892   -4.3656    0.9482 H       1  UNL1        0.0621
     51 H           1.7814   -2.6243    0.0971 H       1  UNL1        0.0654
@<TRIPOS>UNITY_ATOM_ATTR
24 1
charge 1
26 1
charge -1
@<TRIPOS>BOND
     1     1     2    1
     2     2     3    1
     3     3     4   ar
     4     4     5   ar
     5     5     6   ar
     6     6     7    1
     7     7     8    1
     8     8     9    1
     9     9    10    2
    10     9    11   am
    11    11    12    1
    12    12    13   am
    13    13    14    2
    14    13    15    1
    15    15    16   ar
    16    16    17   ar
    17    17    18   ar
    18    18    19    1
    19    19    20    1
    20    20    21    1
    21    21    22    1
    22    20    22    1
    23    18    23   ar
    24    23    24    1
    25    24    25    2
    26    24    26    1
    27    23    27   ar
    28    15    27   ar
    29     6    28   ar
    30    28    29   ar
    31     3    29   ar
    32     1    30    1
    33     1    31    1
    34     1    32    1
    35     4    33    1
    36     5    34    1
    37     7    35    1
    38     7    36    1
    39     8    37    1
    40     8    38    1
    41    11    39    1
    42    12    40    1
    43    16    41    1
    44    17    42    1
    45    19    43    1
    46    20    44    1
    47    21    45    1
    48    21    46    1
    49    22    47    1
    50    22    48    1
    51    27    49    1
    52    28    50    1
    53    29    51    1
