REMARK  5 active torsions:
REMARK  status: ('A' for Active; 'I' for Inactive)
REMARK    1  A    between atoms: C_5  and  O_6 
REMARK    2  A    between atoms: C_7  and  C_8 
REMARK       I    between atoms: C_8  and  N_10 
REMARK    3  A    between atoms: N_10  and  N_11 
REMARK       I    between atoms: N_11  and  C_12 
REMARK    4  A    between atoms: C_12  and  C_14 
REMARK    5  A    between atoms: C_14  and  C_15 
ROOT
ATOM      1  C   UNL d   1      -1.379  -2.612  -0.094  0.00  0.00     0.272 C 
ATOM      2  O   UNL d   1      -2.609  -2.687  -0.113  0.00  0.00    -0.266 OA
ATOM      3  N   UNL d   1      -0.636  -3.776  -0.131  0.00  0.00    -0.263 N 
ATOM      4  H   UNL d   1       0.380  -3.837  -0.125  0.00  0.00     0.190 HD
ENDROOT
BRANCH   3   5
ATOM      5  N   UNL d   1      -1.291  -5.038  -0.200  0.00  0.00    -0.267 N 
ATOM      6  C   UNL d   1      -0.449  -6.127  -0.199  0.00  0.00     0.240 C 
ATOM      7  O   UNL d   1       0.760  -5.881  -0.135  0.00  0.00    -0.272 OA
ATOM      8  H   UNL d   1      -2.308  -5.037  -0.200  0.00  0.00     0.190 HD
BRANCH   6   9
ATOM      9  C   UNL d   1      -1.076  -7.535  -0.276  0.00  0.00     0.146 C 
BRANCH   9  10
ATOM     10  C   UNL d   1      -0.107  -8.720  -0.314  0.00  0.00    -0.011 A 
ATOM     11  C   UNL d   1       1.287  -8.569  -0.366  0.00  0.00     0.011 A 
ATOM     12  C   UNL d   1       2.166  -9.648  -0.366  0.00  0.00     0.001 A 
ATOM     13  C   UNL d   1       1.672 -10.939  -0.345  0.00  0.00     0.003 A 
ATOM     14  C   UNL d   1       0.292 -11.138  -0.324  0.00  0.00     0.043 A 
ATOM     15  C   UNL d   1      -0.582 -10.040  -0.304  0.00  0.00     0.123 A 
ATOM     16  F   UNL d   1      -1.901 -10.282  -0.279  0.00  0.00    -0.206 F 
ENDBRANCH   9  10
ENDBRANCH   6   9
ENDBRANCH   3   5
BRANCH   1  17
ATOM     17  C   UNL d   1      -0.627  -1.294  -0.046  0.00  0.00     0.067 A 
ATOM     18  C   UNL d   1      -1.324  -0.071  -0.023  0.00  0.00     0.081 A 
ATOM     19  C   UNL d   1      -0.646   1.155  -0.036  0.00  0.00     0.038 A 
ATOM     20  C   UNL d   1       0.747   1.189  -0.031  0.00  0.00     0.009 A 
ATOM     21  C   UNL d   1       1.472  -0.003  -0.005  0.00  0.00    -0.061 A 
ATOM     22  C   UNL d   1       2.974   0.022   0.068  0.00  0.00     0.048 C 
ATOM     23  C   UNL d   1       0.783  -1.234  -0.028  0.00  0.00     0.026 A 
BRANCH  18  24
ATOM     24  O   UNL d   1      -2.690  -0.042   0.022  0.00  0.00    -0.360 OA
ATOM     25  H   UNL d   1      -3.009   0.872   0.081  0.00  0.00     0.217 HD
ENDBRANCH  18  24
ENDBRANCH   1  17
TORSDOF 5
