@<TRIPOS>MOLECULE
*****
 43 44 0 0 0
SMALL
GASTEIGER

@<TRIPOS>ATOM
      1 C           0.9942   -0.0831   -0.0149 C.3     1  UNL1       -0.0510
      2 C           2.5118   -0.0805   -0.0599 C.3     1  UNL1        0.0146
      3 N           3.0955   -0.3679    1.2779 N.3     1  UNL1       -0.1902
      4 S           4.8061   -0.3886    1.2318 S.O2    1  UNL1        0.0584
      5 O           5.1934   -1.5410    0.4607 O.2     1  UNL1       -0.1531
      6 O           5.2325    0.9516    0.8653 O.2     1  UNL1       -0.1531
      7 C           5.2560   -0.6738    2.9238 C.ar    1  UNL1        0.1054
      8 C           5.3673   -1.9460    3.4985 C.ar    1  UNL1       -0.0336
      9 C           5.6747   -2.0859    4.8891 C.ar    1  UNL1       -0.0387
     10 C           5.9700   -0.9603    5.6875 C.ar    1  UNL1        0.0327
     11 N           6.4020   -1.0665    7.0739 N.am    1  UNL1       -0.2958
     12 C           6.8458   -0.0335    7.9400 C.2     1  UNL1        0.1510
     13 S           6.9540    1.6333    7.6320 S.2     1  UNL1       -0.0171
     14 N           7.2595   -0.4526    9.2191 N.am    1  UNL1       -0.2453
     15 N           7.7401    0.5795   10.1145 N.am    1  UNL1       -0.2311
     16 C           8.1357    0.3536   11.4111 C.2     1  UNL1        0.2616
     17 O           8.2467   -0.7716   11.8878 O.2     1  UNL1       -0.2686
     18 C           8.4327    1.5624   12.2649 C.ar    1  UNL1        0.0578
     19 C           9.4584    1.4416   13.2252 C.ar    1  UNL1       -0.0298
     20 C           9.5990    2.3959   14.2411 C.ar    1  UNL1        0.0418
     21 CL         10.6762    2.1109   15.5544 Cl      1  UNL1       -0.0835
     22 C           8.8016    3.5353   14.2611 C.ar    1  UNL1       -0.0420
     23 C           7.8270    3.6995   13.2794 C.ar    1  UNL1       -0.0413
     24 C           7.6366    2.7218   12.2872 C.ar    1  UNL1        0.0532
     25 CL          6.3561    3.0295   11.1732 Cl      1  UNL1       -0.0828
     26 C           5.8486    0.2678    5.0388 C.ar    1  UNL1       -0.0387
     27 C           5.5340    0.4299    3.6951 C.ar    1  UNL1       -0.0336
     28 H           0.5954    0.1001   -1.0197 H       1  UNL1        0.0242
     29 H           0.6084    0.6976    0.6478 H       1  UNL1        0.0242
     30 H           0.6053   -1.0467    0.3289 H       1  UNL1        0.0242
     31 H           2.8548    0.8975   -0.4126 H       1  UNL1        0.0438
     32 H           2.8392   -0.8524   -0.7632 H       1  UNL1        0.0438
     33 H           2.7487   -1.2440    1.6694 H       1  UNL1        0.1480
     34 H           5.2309   -2.8284    2.8740 H       1  UNL1        0.0638
     35 H           5.6608   -3.0924    5.3054 H       1  UNL1        0.0637
     36 H           6.4663   -2.0175    7.4245 H       1  UNL1        0.1539
     37 H           7.2816   -1.4035    9.5790 H       1  UNL1        0.1718
     38 H           7.5971    1.5291    9.7621 H       1  UNL1        0.1731
     39 H          10.1257    0.5817   13.2086 H       1  UNL1        0.0640
     40 H           8.9155    4.2834   15.0438 H       1  UNL1        0.0633
     41 H           7.1782    4.5733   13.3229 H       1  UNL1        0.0633
     42 H           5.9642    1.2100    5.5310 H       1  UNL1        0.0637
     43 H           5.5144    1.4403    3.2929 H       1  UNL1        0.0638
@<TRIPOS>BOND
     1     1     2    1
     2     2     3    1
     3     3     4    1
     4     4     5    2
     5     4     6    2
     6     4     7    1
     7     7     8   ar
     8     8     9   ar
     9     9    10   ar
    10    10    11    1
    11    11    12    1
    12    12    13    2
    13    12    14    1
    14    14    15    1
    15    15    16   am
    16    16    17    2
    17    16    18    1
    18    18    19   ar
    19    19    20   ar
    20    20    21    1
    21    20    22   ar
    22    22    23   ar
    23    23    24   ar
    24    18    24   ar
    25    24    25    1
    26    10    26   ar
    27    26    27   ar
    28     7    27   ar
    29     1    28    1
    30     1    29    1
    31     1    30    1
    32     2    31    1
    33     2    32    1
    34     3    33    1
    35     8    34    1
    36     9    35    1
    37    11    36    1
    38    14    37    1
    39    15    38    1
    40    19    39    1
    41    22    40    1
    42    23    41    1
    43    26    42    1
    44    27    43    1
