REMARK  14 active torsions:
REMARK  status: ('A' for Active; 'I' for Inactive)
REMARK    1  A    between atoms: C_2  and  N_3 
REMARK    2  A    between atoms: C_2  and  C_14 
REMARK       I    between atoms: N_3  and  C_4 
REMARK    3  A    between atoms: C_4  and  O_6 
REMARK    4  A    between atoms: O_6  and  C_7 
REMARK    5  A    between atoms: C_7  and  C_8 
REMARK       I    between atoms: C_14  and  N_16 
REMARK    6  A    between atoms: N_16  and  C_17 
REMARK    7  A    between atoms: C_17  and  C_18 
REMARK    8  A    between atoms: C_17  and  C_27 
REMARK    9  A    between atoms: C_18  and  S_19 
REMARK   10  A    between atoms: S_19  and  C_20 
REMARK   11  A    between atoms: C_20  and  C_21 
REMARK   12  A    between atoms: C_27  and  O_29 
REMARK   13  A    between atoms: O_29  and  C_30 
REMARK   14  A    between atoms: C_30  and  C_31 
ROOT
ATOM      1  C   UNL d   1       4.941   1.919  -2.378  0.00  0.00     0.193 C 
ENDROOT
BRANCH   1   2
ATOM      2  N   UNL d   1       4.374   1.025  -1.305  0.00  0.00    -0.345 N 
ATOM      3  C   UNL d   1       3.044   0.636  -1.260  0.00  0.00     0.240 C 
ATOM      4  O   UNL d   1       2.266   0.859  -2.185  0.00  0.00    -0.271 OA
ATOM      5  H   UNL d   1       5.046   0.543  -0.714  0.00  0.00     0.163 HD
BRANCH   3   6
ATOM      6  C   UNL d   1       2.552  -0.179  -0.039  0.00  0.00     0.174 C 
ATOM      7  C   UNL d   1       1.010  -0.105  -0.022  0.00  0.00     0.042 C 
BRANCH   6   8
ATOM      8  N   UNL d   1       3.023  -1.556  -0.165  0.00  0.00    -0.324 N 
ATOM      9  C   UNL d   1       2.666  -2.531   0.721  0.00  0.00     0.361 C 
ATOM     10  O   UNL d   1       2.005  -2.337   1.740  0.00  0.00    -0.238 OA
ATOM     11  H   UNL d   1       3.510  -1.843  -1.005  0.00  0.00     0.165 HD
BRANCH   9  12
ATOM     12  O   UNL d   1       3.127  -3.745   0.333  0.00  0.00    -0.299 OA
BRANCH  12  13
ATOM     13  C   UNL d   1       2.764  -4.803   1.241  0.00  0.00     0.219 C 
BRANCH  13  14
ATOM     14  C   UNL d   1       3.354  -6.129   0.810  0.00  0.00    -0.034 A 
ATOM     15  C   UNL d   1       2.654  -7.327   1.034  0.00  0.00     0.009 A 
ATOM     16  C   UNL d   1       3.253  -8.562   0.767  0.00  0.00     0.001 A 
ATOM     17  C   UNL d   1       4.525  -8.614   0.204  0.00  0.00     0.000 A 
ATOM     18  C   UNL d   1       5.226  -7.434  -0.032  0.00  0.00     0.001 A 
ATOM     19  C   UNL d   1       4.652  -6.201   0.287  0.00  0.00     0.009 A 
ENDBRANCH  13  14
ENDBRANCH  12  13
ENDBRANCH   9  12
ENDBRANCH   6   8
ENDBRANCH   3   6
ENDBRANCH   1   2
BRANCH   1  20
ATOM     20  C   UNL d   1       4.495   3.408  -2.221  0.00  0.00     0.109 C 
BRANCH  20  21
ATOM     21  S   UNL d   1       2.761   3.575  -2.744  0.00  0.00    -0.162 SA
BRANCH  21  22
ATOM     22  C   UNL d   1       2.083   5.066  -1.970  0.00  0.00     0.112 C 
BRANCH  22  23
ATOM     23  C   UNL d   1       0.555   5.011  -1.908  0.00  0.00    -0.049 A 
ATOM     24  C   UNL d   1      -0.179   6.204  -1.860  0.00  0.00     0.008 A 
ATOM     25  C   UNL d   1      -1.569   6.180  -1.684  0.00  0.00     0.001 A 
ATOM     26  C   UNL d   1      -2.259   4.969  -1.641  0.00  0.00     0.000 A 
ATOM     27  C   UNL d   1      -1.556   3.776  -1.718  0.00  0.00     0.001 A 
ATOM     28  C   UNL d   1      -0.165   3.800  -1.825  0.00  0.00     0.008 A 
ENDBRANCH  22  23
ENDBRANCH  21  22
ENDBRANCH  20  21
ENDBRANCH   1  20
BRANCH   1  29
ATOM     29  C   UNL d   1       6.491   1.848  -2.364  0.00  0.00     0.282 C 
ATOM     30  O   UNL d   1       7.128   1.172  -1.562  0.00  0.00    -0.263 OA
BRANCH  29  31
ATOM     31  O   UNL d   1       7.061   2.601  -3.351  0.00  0.00    -0.315 OA
BRANCH  31  32
ATOM     32  C   UNL d   1       8.508   2.609  -3.383  0.00  0.00     0.217 C 
BRANCH  32  33
ATOM     33  C   UNL d   1       8.986   3.559  -4.463  0.00  0.00    -0.034 A 
ATOM     34  C   UNL d   1       9.855   3.162  -5.494  0.00  0.00     0.009 A 
ATOM     35  C   UNL d   1      10.316   4.096  -6.433  0.00  0.00     0.001 A 
ATOM     36  C   UNL d   1       9.861   5.413  -6.394  0.00  0.00     0.000 A 
ATOM     37  C   UNL d   1       9.006   5.818  -5.373  0.00  0.00     0.001 A 
ATOM     38  C   UNL d   1       8.590   4.903  -4.406  0.00  0.00     0.009 A 
ENDBRANCH  32  33
ENDBRANCH  31  32
ENDBRANCH  29  31
ENDBRANCH   1  29
TORSDOF 14
