@<TRIPOS>MOLECULE
*****
 44 44 0 0 0
SMALL
GASTEIGER

@<TRIPOS>ATOM
      1 C           2.5191   -0.3618    0.2814 C.3     1  UNL1       -0.0379
      2 C           1.0473   -0.0862    0.0886 C.ar    1  UNL1       -0.0286
      3 C           0.2441   -1.2452    0.0221 C.ar    1  UNL1       -0.0436
      4 C          -1.1476   -1.1920   -0.0131 C.ar    1  UNL1        0.0088
      5 S          -1.9905   -2.7667   -0.0047 S.3     1  UNL1       -0.1192
      6 C          -3.8003   -2.3992   -0.0008 C.3     1  UNL1        0.0128
      7 C          -4.2122   -1.6593    1.2804 C.3     1  UNL1       -0.0506
      8 C          -4.2078   -1.6843   -1.2967 C.3     1  UNL1       -0.0506
      9 C          -4.5282   -3.7596    0.0119 C.3     1  UNL1       -0.0506
     10 C          -1.7285    0.0682   -0.0175 C.ar    1  UNL1       -0.0465
     11 C          -0.9619    1.2321   -0.0010 C.ar    1  UNL1       -0.0395
     12 C           0.4370    1.1903    0.0370 C.ar    1  UNL1        0.0307
     13 N           1.0844    2.4123    0.0453 N.pl3   1  UNL1       -0.3329
     14 C           2.5188    2.5951   -0.1192 C.3     1  UNL1        0.0949
     15 C           2.9750    2.0773   -1.4833 C.3     1  UNL1       -0.0381
     16 C           2.8920    4.0765   -0.0272 C.2     1  UNL1        0.2404
     17 O           2.0351    4.9602    0.0119 O.2     1  UNL1       -0.2733
     18 N           4.2609    4.3202    0.0048 N.am    1  UNL1       -0.2388
     19 C           4.8591    5.5451   -0.0041 C.2     1  UNL1        0.3034
     20 N           4.0388    6.6113   -0.0230 N.am    1  UNL1       -0.3130
     21 O           6.0871    5.6628   -0.0054 O.2     1  UNL1       -0.2527
     22 H           2.7231   -1.4302    0.3818 H       1  UNL1        0.0278
     23 H           2.8756    0.1218    1.1920 H       1  UNL1        0.0278
     24 H           3.1457   -0.0832   -0.5617 H       1  UNL1        0.0278
     25 H           0.7356   -2.2175    0.0305 H       1  UNL1        0.0632
     26 H          -3.7415   -0.6877    1.4178 H       1  UNL1        0.0243
     27 H          -3.9699   -2.2439    2.1760 H       1  UNL1        0.0243
     28 H          -5.2909   -1.4736    1.2832 H       1  UNL1        0.0243
     29 H          -3.7359   -0.7157   -1.4505 H       1  UNL1        0.0243
     30 H          -5.2861   -1.4990   -1.3079 H       1  UNL1        0.0243
     31 H          -3.9598   -2.2860   -2.1792 H       1  UNL1        0.0243
     32 H          -4.2925   -4.3470    0.9070 H       1  UNL1        0.0243
     33 H          -4.2879   -4.3656   -0.8694 H       1  UNL1        0.0243
     34 H          -5.6146   -3.6040    0.0074 H       1  UNL1        0.0243
     35 H          -2.7948    0.2231   -0.0289 H       1  UNL1        0.0629
     36 H          -1.4992    2.1801   -0.0092 H       1  UNL1        0.0636
     37 H           0.5281    3.2657   -0.0300 H       1  UNL1        0.1468
     38 H           3.0118    2.1248    0.7364 H       1  UNL1        0.0591
     39 H           2.8077    2.8032   -2.2793 H       1  UNL1        0.0252
     40 H           2.4338    1.1886   -1.8219 H       1  UNL1        0.0252
     41 H           4.0416    1.8296   -1.4434 H       1  UNL1        0.0252
     42 H           4.9210    3.5544    0.0027 H       1  UNL1        0.1591
     43 H           3.0300    6.4672   -0.0087 H       1  UNL1        0.1465
     44 H           4.4037    7.5502   -0.0210 H       1  UNL1        0.1465
@<TRIPOS>BOND
     1     1     2    1
     2     2     3   ar
     3     3     4   ar
     4     4     5    1
     5     5     6    1
     6     6     7    1
     7     6     8    1
     8     6     9    1
     9     4    10   ar
    10    10    11   ar
    11    11    12   ar
    12     2    12   ar
    13    12    13    1
    14    13    14    1
    15    14    15    1
    16    14    16    1
    17    16    17    2
    18    16    18   am
    19    18    19   am
    20    19    20   am
    21    19    21    2
    22     1    22    1
    23     1    23    1
    24     1    24    1
    25     3    25    1
    26     7    26    1
    27     7    27    1
    28     7    28    1
    29     8    29    1
    30     8    30    1
    31     8    31    1
    32     9    32    1
    33     9    33    1
    34     9    34    1
    35    10    35    1
    36    11    36    1
    37    13    37    1
    38    14    38    1
    39    15    39    1
    40    15    40    1
    41    15    41    1
    42    18    42    1
    43    20    43    1
    44    20    44    1
