REMARK  3 active torsions:
REMARK  status: ('A' for Active; 'I' for Inactive)
REMARK    1  A    between atoms: C_2  and  C_16 
REMARK    2  A    between atoms: N_3  and  N_4 
REMARK       I    between atoms: N_4  and  C_5 
REMARK    3  A    between atoms: C_5  and  C_7 
ROOT
ATOM      1  N   UNL d   1       4.577  -0.193   1.231  0.00  0.00    -0.242 N 
ATOM      2  C   UNL d   1       5.250  -0.603   2.377  0.00  0.00     0.274 C 
ATOM      3  O   UNL d   1       4.695  -1.000   3.405  0.00  0.00    -0.266 OA
ATOM      4  H   UNL d   1       5.123   0.097   0.430  0.00  0.00     0.192 HD
ENDROOT
BRANCH   2   5
ATOM      5  C   UNL d   1       6.717  -0.583   2.273  0.00  0.00     0.061 A 
ATOM      6  C   UNL d   1       7.552  -1.570   2.776  0.00  0.00     0.106 A 
ATOM      7  N   UNL d   1       8.854  -1.228   2.522  0.00  0.00    -0.364 N 
ATOM      8  C   UNL d   1       8.908   0.011   1.926  0.00  0.00     0.043 A 
ATOM      9  H   UNL d   1       9.664  -1.777   2.781  0.00  0.00     0.165 HD
ATOM     10  C   UNL d   1      10.014   0.792   1.558  0.00  0.00     0.030 A 
ATOM     11  C   UNL d   1       7.585   0.435   1.751  0.00  0.00     0.008 A 
ATOM     12  C   UNL d   1       9.763   2.057   1.019  0.00  0.00     0.002 A 
ATOM     13  C   UNL d   1       8.459   2.511   0.841  0.00  0.00     0.001 A 
ATOM     14  C   UNL d   1       7.367   1.712   1.196  0.00  0.00     0.015 A 
ENDBRANCH   2   5
BRANCH   1  15
ATOM     15  N   UNL d   1       3.199  -0.246   1.147  0.00  0.00    -0.176 NA
ATOM     16  C   UNL d   1       2.580   0.059   0.038  0.00  0.00     0.061 C 
ATOM     17  C   UNL d   1       1.056   0.066   0.044  0.00  0.00     0.073 C 
BRANCH  16  18
ATOM     18  C   UNL d   1       3.229   0.419  -1.253  0.00  0.00    -0.010 A 
ATOM     19  C   UNL d   1       4.311  -0.335  -1.719  0.00  0.00     0.013 A 
ATOM     20  C   UNL d   1       5.068   0.128  -2.792  0.00  0.00     0.001 A 
ATOM     21  C   UNL d   1       4.663   1.265  -3.487  0.00  0.00     0.000 A 
ATOM     22  C   UNL d   1       3.529   1.969  -3.082  0.00  0.00     0.001 A 
ATOM     23  C   UNL d   1       2.817   1.557  -1.954  0.00  0.00     0.013 A 
ENDBRANCH  16  18
ENDBRANCH   1  15
TORSDOF 3
