@<TRIPOS>MOLECULE
*****
 45 45 0 0 0
SMALL
GASTEIGER

@<TRIPOS>ATOM
      1 C           9.5773   -8.7901    3.2704 C.3     1  UNL1       -0.0652
      2 C           8.8954   -7.8072    2.3309 C.3     1  UNL1       -0.0545
      3 C           9.8369   -7.3700    1.2042 C.3     1  UNL1       -0.0376
      4 C           9.1561   -6.3823    0.2605 C.3     1  UNL1        0.0131
      5 N          10.0157   -5.9319   -0.8195 N.am    1  UNL1       -0.2982
      6 C           9.5390   -5.0509   -1.7533 C.2     1  UNL1        0.3160
      7 O           8.3935   -4.5927   -1.7398 O.2     1  UNL1       -0.2513
      8 N          10.4354   -4.7170   -2.7345 N.am    1  UNL1       -0.2181
      9 N           9.9841   -3.9121   -3.8031 N.am    1  UNL1       -0.2301
     10 C          10.9358   -3.3097   -4.6017 C.2     1  UNL1        0.2696
     11 O          12.1249   -3.4563   -4.2953 O.2     1  UNL1       -0.2702
     12 C          10.4472   -2.4795   -5.8737 C.3     1  UNL1        0.1741
     13 C           8.9267   -2.2561   -5.7526 C.3     1  UNL1       -0.0190
     14 O          10.6555   -2.8750   -7.2471 O.3     1  UNL1       -0.4798
     15 C          11.9292   -3.0630   -7.7137 C.ar    1  UNL1        0.1218
     16 C          12.2653   -2.7057   -9.0233 C.ar    1  UNL1       -0.0165
     17 C          13.5394   -3.0345   -9.5510 C.ar    1  UNL1       -0.0165
     18 C          14.5178   -3.6323   -8.7483 C.ar    1  UNL1        0.1203
     19 O          15.7578   -3.8543   -9.2850 O.3     1  UNL1       -0.4951
     20 C          16.7408   -4.3528   -8.3687 C.3     1  UNL1        0.0788
     21 C          14.1670   -3.9957   -7.4639 C.ar    1  UNL1       -0.0165
     22 C          12.8784   -3.7694   -7.0006 C.ar    1  UNL1       -0.0165
     23 H           8.8943   -9.0938    4.0703 H       1  UNL1        0.0230
     24 H          10.4614   -8.3391    3.7321 H       1  UNL1        0.0230
     25 H           9.8915   -9.6901    2.7324 H       1  UNL1        0.0230
     26 H           8.5641   -6.9335    2.9048 H       1  UNL1        0.0263
     27 H           7.9976   -8.2764    1.9108 H       1  UNL1        0.0263
     28 H          10.1693   -8.2512    0.6419 H       1  UNL1        0.0280
     29 H          10.7352   -6.9112    1.6348 H       1  UNL1        0.0280
     30 H           8.8284   -5.4940    0.8126 H       1  UNL1        0.0462
     31 H           8.2653   -6.8384   -0.1878 H       1  UNL1        0.0462
     32 H          10.9582   -6.2868   -0.8980 H       1  UNL1        0.1503
     33 H          11.4001   -5.0329   -2.7807 H       1  UNL1        0.1744
     34 H           9.0462   -3.5338   -3.6700 H       1  UNL1        0.1729
     35 H          10.9070   -1.4878   -5.7598 H       1  UNL1        0.0829
     36 H           8.3941   -3.2120   -5.8451 H       1  UNL1        0.0270
     37 H           8.5333   -1.6034   -6.5373 H       1  UNL1        0.0270
     38 H           8.6679   -1.8110   -4.7852 H       1  UNL1        0.0270
     39 H          11.5473   -2.1934   -9.6606 H       1  UNL1        0.0655
     40 H          13.7599   -2.8354  -10.5978 H       1  UNL1        0.0655
     41 H          17.7034   -4.4057   -8.8832 H       1  UNL1        0.0660
     42 H          16.4887   -5.3670   -8.0346 H       1  UNL1        0.0660
     43 H          16.8660   -3.6846   -7.5063 H       1  UNL1        0.0660
     44 H          14.8378   -4.5106   -6.7870 H       1  UNL1        0.0655
     45 H          12.6514   -4.2582   -6.0763 H       1  UNL1        0.0655
@<TRIPOS>BOND
     1     1     2    1
     2     2     3    1
     3     3     4    1
     4     4     5    1
     5     5     6   am
     6     6     7    2
     7     6     8   am
     8     8     9    1
     9     9    10   am
    10    10    11    2
    11    12    14    1
    12    14    15    1
    13    15    16   ar
    14    16    17   ar
    15    17    18   ar
    16    18    19    1
    17    19    20    1
    18    18    21   ar
    19    21    22   ar
    20    15    22   ar
    21    12    13    1
    22    12    10    1
    23     1    23    1
    24     1    24    1
    25     1    25    1
    26     2    26    1
    27     2    27    1
    28     3    28    1
    29     3    29    1
    30     4    30    1
    31     4    31    1
    32     5    32    1
    33     8    33    1
    34     9    34    1
    35    12    35    1
    36    13    36    1
    37    13    37    1
    38    13    38    1
    39    16    39    1
    40    17    40    1
    41    20    41    1
    42    20    42    1
    43    20    43    1
    44    21    44    1
    45    22    45    1
