REMARK  3 active torsions:
REMARK  status: ('A' for Active; 'I' for Inactive)
REMARK    1  A    between atoms: C_2  and  C_4 
REMARK       I    between atoms: C_4  and  N_6 
REMARK    2  A    between atoms: N_6  and  C_7 
REMARK    3  A    between atoms: C_10  and  C_11 
ROOT
ATOM      1  C   UNL d   1       4.947   1.964  -2.311  0.00  0.00     0.034 C 
ATOM      2  C   UNL d   1       5.988   1.610  -3.183  0.00  0.00     0.030 C 
ATOM      3  C   UNL d   1       6.382   2.468  -4.256  0.00  0.00     0.017 C 
ATOM      4  C   UNL d   1       5.714   3.663  -4.517  0.00  0.00     0.012 C 
ATOM      5  C   UNL d   1       4.789   4.080  -3.526  0.00  0.00     0.017 C 
ATOM      6  C   UNL d   1       4.402   3.237  -2.458  0.00  0.00     0.030 C 
ENDROOT
BRANCH   4   7
ATOM      7  C   UNL d   1       5.936   4.513  -5.804  0.00  0.00     0.160 C 
ATOM      8  N   UNL d   1       5.715   5.782  -5.627  0.00  0.00    -0.228 NA
ATOM      9  C   UNL d   1       5.858   6.635  -6.729  0.00  0.00     0.072 C 
ATOM     10  C   UNL d   1       5.891   8.019  -6.528  0.00  0.00     0.032 C 
ATOM     11  C   UNL d   1       5.971   6.086  -7.993  0.00  0.00     0.031 C 
ATOM     12  C   UNL d   1       6.080   8.882  -7.609  0.00  0.00     0.003 C 
ATOM     13  C   UNL d   1       6.179   8.348  -8.888  0.00  0.00     0.012 C 
ATOM     14  C   UNL d   1       6.022   6.973  -9.102  0.00  0.00    -0.024 C 
ATOM     15  C   UNL d   1       5.904   6.416 -10.363  0.00  0.00    -0.005 C 
ATOM     16  C   UNL d   1       5.519   5.094 -10.465  0.00  0.00     0.045 C 
ATOM     17  C   UNL d   1       6.153   4.283  -9.527  0.00  0.00     0.015 C 
ATOM     18  C   UNL d   1       6.136   4.694  -8.158  0.00  0.00     0.069 C 
ATOM     19  N   UNL d   1       6.293   3.908  -7.008  0.00  0.00    -0.228 NA
ENDBRANCH   4   7
BRANCH   1  20
ATOM     20  N   UNL d   1       4.446   1.081  -1.301  0.00  0.00    -0.327 N 
ATOM     21  C   UNL d   1       3.073   0.936  -1.086  0.00  0.00     0.225 C 
ATOM     22  O   UNL d   1       2.217   1.532  -1.741  0.00  0.00    -0.273 OA
ATOM     23  H   UNL d   1       5.090   0.418  -0.890  0.00  0.00     0.169 HD
BRANCH  21  24
ATOM     24  C   UNL d   1       2.624  -0.028   0.030  0.00  0.00     0.070 C 
ATOM     25  C   UNL d   1       1.083  -0.046   0.094  0.00  0.00     0.019 C 
ATOM     26  C   UNL d   1       3.113  -1.454  -0.196  0.00  0.00     0.019 C 
ENDBRANCH  21  24
ENDBRANCH   1  20
TORSDOF 3
