@<TRIPOS>MOLECULE
*****
 54 55 0 0 0
SMALL
GASTEIGER

@<TRIPOS>ATOM
      1 C           1.0914    0.0113    0.0140 C.3     1  UNL1       -0.0648
      2 C           2.6083   -0.0037    0.0249 C.3     1  UNL1       -0.0476
      3 C           3.1971   -1.1965    0.7980 C.3     1  UNL1        0.0240
      4 C           4.7216   -1.1300    0.7593 C.2     1  UNL1        0.2172
      5 O           5.2933   -0.2097    0.1748 O.2     1  UNL1       -0.2755
      6 N           5.3949   -2.1762    1.3827 N.am    1  UNL1       -0.2855
      7 C           6.8144   -2.2055    1.4794 C.ar    1  UNL1        0.0334
      8 C           7.5331   -3.3969    1.3666 C.ar    1  UNL1       -0.0398
      9 C           8.9475   -3.3953    1.4986 C.ar    1  UNL1       -0.0478
     10 C           9.6771   -2.2050    1.7148 C.ar    1  UNL1        0.0383
     11 C          11.2051   -2.2321    1.7323 C.2     1  UNL1        0.2601
     12 O          11.8085   -3.3005    1.5792 O.2     1  UNL1       -0.2687
     13 N          11.8834   -1.0298    1.8968 N.am    1  UNL1       -0.2311
     14 N          13.3425   -0.9150    1.8915 N.am    1  UNL1       -0.2453
     15 C          13.9075    0.3662    2.0740 C.2     1  UNL1        0.1531
     16 S          12.8710    1.6893    2.2757 S.2     1  UNL1       -0.0170
     17 N          15.3275    0.4350    2.0783 N.am    1  UNL1       -0.2639
     18 C          16.1041    1.6122    2.2597 C.2     1  UNL1        0.2561
     19 O          15.5966    2.7248    2.4139 O.2     1  UNL1       -0.2717
     20 C          17.6590    1.5144    2.2513 C.3     1  UNL1        0.1655
     21 O          18.1792    2.8235    2.5839 O.3     1  UNL1       -0.4828
     22 C          19.5163    3.0853    2.4894 C.ar    1  UNL1        0.1215
     23 C          20.0285    4.0292    3.3879 C.ar    1  UNL1       -0.0189
     24 C          21.3648    4.4416    3.3149 C.ar    1  UNL1       -0.0441
     25 C          22.2196    3.8783    2.3676 C.ar    1  UNL1        0.0210
     26 BR         24.0532    4.3732    2.4532 Br      1  UNL1       -0.0500
     27 C          21.7190    2.9619    1.4314 C.ar    1  UNL1       -0.0330
     28 C          22.5409    2.3894    0.3115 C.3     1  UNL1       -0.0385
     29 C          20.3584    2.5773    1.5045 C.ar    1  UNL1       -0.0160
     30 C           8.9337   -1.0288    1.8617 C.ar    1  UNL1       -0.0478
     31 C           7.5311   -1.0337    1.7358 C.ar    1  UNL1       -0.0398
     32 H           0.7279    0.8782   -0.5494 H       1  UNL1        0.0230
     33 H           0.6937    0.0781    1.0306 H       1  UNL1        0.0230
     34 H           0.6949   -0.8905   -0.4610 H       1  UNL1        0.0230
     35 H           2.9681    0.9368    0.4623 H       1  UNL1        0.0267
     36 H           2.9686   -0.0212   -1.0120 H       1  UNL1        0.0267
     37 H           2.8574   -2.1350    0.3464 H       1  UNL1        0.0358
     38 H           2.8580   -1.1656    1.8397 H       1  UNL1        0.0358
     39 H           4.8794   -3.0071    1.6475 H       1  UNL1        0.1548
     40 H           7.0303   -4.3246    1.0973 H       1  UNL1        0.0636
     41 H           9.4781   -4.3440    1.4163 H       1  UNL1        0.0626
     42 H          11.4061   -0.1352    1.9965 H       1  UNL1        0.1731
     43 H          13.8362   -1.7937    1.7461 H       1  UNL1        0.1718
     44 H          15.8309   -0.4313    1.9465 H       1  UNL1        0.1566
     45 H          17.9831    1.1966    1.2573 H       1  UNL1        0.0795
     46 H          17.9948    0.8205    3.0260 H       1  UNL1        0.0795
     47 H          19.3903    4.4511    4.1616 H       1  UNL1        0.0654
     48 H          21.7316    5.2058    3.9976 H       1  UNL1        0.0630
     49 H          23.5759    2.7350    0.3068 H       1  UNL1        0.0278
     50 H          22.1029    2.6837   -0.6481 H       1  UNL1        0.0278
     51 H          22.5589    1.2979    0.3838 H       1  UNL1        0.0278
     52 H          19.9707    1.9043    0.7476 H       1  UNL1        0.0657
     53 H           9.3942   -0.0722    2.0766 H       1  UNL1        0.0626
     54 H           6.9995   -0.0923    1.8633 H       1  UNL1        0.0636
@<TRIPOS>BOND
     1     1     2    1
     2     2     3    1
     3     3     4    1
     4     4     5    2
     5     4     6   am
     6     6     7    1
     7     7     8   ar
     8     8     9   ar
     9     9    10   ar
    10    10    11    1
    11    11    12    2
    12    11    13   am
    13    13    14    1
    14    14    15    1
    15    15    16    2
    16    15    17    1
    17    17    18   am
    18    18    19    2
    19    18    20    1
    20    20    21    1
    21    21    22    1
    22    22    23   ar
    23    23    24   ar
    24    24    25   ar
    25    25    26    1
    26    25    27   ar
    27    27    28    1
    28    27    29   ar
    29    22    29   ar
    30    10    30   ar
    31    30    31   ar
    32     7    31   ar
    33     1    32    1
    34     1    33    1
    35     1    34    1
    36     2    35    1
    37     2    36    1
    38     3    37    1
    39     3    38    1
    40     6    39    1
    41     8    40    1
    42     9    41    1
    43    13    42    1
    44    14    43    1
    45    17    44    1
    46    20    45    1
    47    20    46    1
    48    23    47    1
    49    24    48    1
    50    28    49    1
    51    28    50    1
    52    28    51    1
    53    29    52    1
    54    30    53    1
    55    31    54    1
