REMARK  11 active torsions:
REMARK  status: ('A' for Active; 'I' for Inactive)
REMARK    1  A    between atoms: C_2  and  N_3 
REMARK    2  A    between atoms: N_3  and  C_4 
REMARK    3  A    between atoms: N_3  and  C_6 
REMARK    4  A    between atoms: C_6  and  C_7 
REMARK    5  A    between atoms: C_7  and  O_8 
REMARK    6  A    between atoms: O_8  and  C_9 
REMARK    7  A    between atoms: C_11  and  N_12 
REMARK    8  A    between atoms: N_12  and  C_13 
REMARK    9  A    between atoms: C_17  and  O_18 
REMARK   10  A    between atoms: O_18  and  C_19 
REMARK   11  A    between atoms: C_23  and  C_24 
REMARK       I    between atoms: C_24  and  N_26 
ROOT
ATOM      1  C   UNL d   1      10.882   5.705   4.026  0.00  0.00     0.252 A 
ATOM      2  N   UNL d   1      11.030   7.010   3.871  0.00  0.00    -0.206 NA
ATOM      3  C   UNL d   1      11.616   7.436   5.053  0.00  0.00     0.097 A 
ATOM      4  C   UNL d   1      11.970   8.716   5.541  0.00  0.00     0.072 A 
ATOM      5  C   UNL d   1      12.565   8.827   6.822  0.00  0.00     0.078 A 
ATOM      6  C   UNL d   1      12.783   7.671   7.584  0.00  0.00     0.040 A 
ATOM      7  C   UNL d   1      12.452   6.394   7.112  0.00  0.00     0.042 A 
ATOM      8  C   UNL d   1      11.860   6.337   5.857  0.00  0.00     0.108 A 
ATOM      9  O   UNL d   1      11.397   5.228   5.209  0.00  0.00    -0.276 OA
ENDROOT
BRANCH   1  10
ATOM     10  N   UNL d   1      10.279   4.796   3.204  0.00  0.00    -0.320 N 
ATOM     11  H   UNL d   1      10.374   5.001   2.216  0.00  0.00     0.169 HD
BRANCH  10  12
ATOM     12  C   UNL d   1       9.004   4.228   3.511  0.00  0.00     0.038 A 
ATOM     13  C   UNL d   1       8.279   3.436   2.584  0.00  0.00     0.068 A 
ATOM     14  C   UNL d   1       7.069   2.771   2.943  0.00  0.00     0.092 A 
ATOM     15  C   UNL d   1       6.625   2.873   4.278  0.00  0.00     0.067 A 
ATOM     16  C   UNL d   1       7.316   3.678   5.177  0.00  0.00     0.029 A 
ATOM     17 CL   UNL d   1       5.328   2.004   5.033  0.00  0.00    -0.081 Cl
ATOM     18  C   UNL d   1       8.479   4.333   4.803  0.00  0.00     0.031 A 
BRANCH  14  19
ATOM     19  O   UNL d   1       6.499   2.014   1.931  0.00  0.00    -0.348 OA
BRANCH  19  20
ATOM     20  C   UNL d   1       5.069   1.981   1.906  0.00  0.00     0.203 C 
BRANCH  20  21
ATOM     21  C   UNL d   1       4.509   0.919   0.954  0.00  0.00     0.261 C 
BRANCH  21  22
ATOM     22  N   UNL d   1       2.946   0.841   1.010  0.00  0.00    -0.070 N 
ATOM     23  H   UNL d   1       2.595   1.775   0.752  0.00  0.00     0.279 HD
BRANCH  22  24
ATOM     24  C   UNL d   1       2.493  -0.144  -0.062  0.00  0.00     0.230 C 
ATOM     25  C   UNL d   1       0.994  -0.154  -0.289  0.00  0.00     0.034 C 
ENDBRANCH  22  24
BRANCH  22  26
ATOM     26  C   UNL d   1       2.455   0.512   2.422  0.00  0.00     0.230 C 
ATOM     27  C   UNL d   1       0.956   0.622   2.613  0.00  0.00     0.034 C 
ENDBRANCH  22  26
ENDBRANCH  21  22
ENDBRANCH  20  21
ENDBRANCH  19  20
ENDBRANCH  14  19
ENDBRANCH  10  12
ENDBRANCH   1  10
BRANCH   5  28
ATOM     28  O   UNL d   1      12.869  10.113   7.261  0.00  0.00    -0.311 OA
BRANCH  28  29
ATOM     29  C   UNL d   1      13.498  10.284   8.482  0.00  0.00     0.079 A 
ATOM     30  C   UNL d   1      14.759   9.756   8.747  0.00  0.00     0.056 A 
ATOM     31  C   UNL d   1      15.282   9.932  10.014  0.00  0.00     0.120 A 
ATOM     32  N   UNL d   1      14.657  10.624  10.990  0.00  0.00    -0.255 NA
ATOM     33  C   UNL d   1      13.455  11.194  10.702  0.00  0.00     0.126 A 
ATOM     34  C   UNL d   1      12.853  11.053   9.453  0.00  0.00     0.074 A 
BRANCH  33  35
ATOM     35  C   UNL d   1      12.817  11.963  11.850  0.00  0.00     0.269 C 
ATOM     36  O   UNL d   1      13.376  12.045  12.934  0.00  0.00    -0.266 OA
ATOM     37  N   UNL d   1      11.578  12.557  11.624  0.00  0.00    -0.360 N 
ATOM     38  C   UNL d   1      10.893  13.309  12.652  0.00  0.00     0.149 C 
ATOM     39  H   UNL d   1      11.115  12.494  10.734  0.00  0.00     0.162 HD
ENDBRANCH  33  35
ENDBRANCH  28  29
ENDBRANCH   5  28
TORSDOF 11
