REMARK  5 active torsions:
REMARK  status: ('A' for Active; 'I' for Inactive)
REMARK    1  A    between atoms: C_7  and  C_8 
REMARK       I    between atoms: C_8  and  N_10 
REMARK    2  A    between atoms: N_10  and  C_11 
REMARK    3  A    between atoms: C_11  and  C_12 
REMARK       I    between atoms: C_12  and  N_14 
REMARK    4  A    between atoms: N_14  and  C_15 
REMARK    5  A    between atoms: C_19  and  C_20 
ROOT
ATOM      1  C   UNL d   1       7.090   4.298  -0.009  0.00  0.00     0.035 A 
ATOM      2  C   UNL d   1       7.960   5.100   0.718  0.00  0.00     0.029 A 
ATOM      3  C   UNL d   1       9.352   4.910   0.588  0.00  0.00     0.003 A 
ATOM      4  C   UNL d   1       9.902   3.897  -0.244  0.00  0.00     0.015 A 
ATOM      5  C   UNL d   1       9.058   3.070  -0.980  0.00  0.00     0.012 A 
ATOM      6  C   UNL d   1       7.654   3.314  -0.833  0.00  0.00     0.044 A 
ENDROOT
BRANCH   1   7
ATOM      7  N   UNL d   1       5.681   4.515   0.036  0.00  0.00    -0.326 N 
ATOM      8  C   UNL d   1       4.745   3.485  -0.009  0.00  0.00     0.239 C 
ATOM      9  O   UNL d   1       5.039   2.285   0.004  0.00  0.00    -0.271 OA
ATOM     10  H   UNL d   1       5.357   5.452   0.244  0.00  0.00     0.169 HD
BRANCH   8  11
ATOM     11  C   UNL d   1       3.250   3.910  -0.010  0.00  0.00     0.226 C 
BRANCH  11  12
ATOM     12  N   UNL d   1       2.445   2.691  -0.003  0.00  0.00    -0.348 N 
ATOM     13  C   UNL d   1       1.062   2.616  -0.002  0.00  0.00     0.252 C 
ATOM     14  O   UNL d   1       0.387   3.628  -0.002  0.00  0.00    -0.268 OA
ATOM     15  H   UNL d   1       3.034   1.884  -0.008  0.00  0.00     0.163 HD
BRANCH  13  16
ATOM     16  C   UNL d   1       0.384   1.240   0.001  0.00  0.00     0.037 A 
ATOM     17  C   UNL d   1      -1.032   1.237  -0.001  0.00  0.00     0.017 A 
ATOM     18  C   UNL d   1      -1.774   0.043  -0.006  0.00  0.00     0.001 A 
ATOM     19  C   UNL d   1      -1.120  -1.180   0.000  0.00  0.00     0.001 A 
ATOM     20  C   UNL d   1       0.270  -1.207   0.005  0.00  0.00     0.007 A 
ATOM     21  C   UNL d   1       1.032  -0.018   0.002  0.00  0.00    -0.046 A 
ATOM     22  C   UNL d   1       2.518  -0.195  -0.010  0.00  0.00     0.049 C 
ENDBRANCH  13  16
ENDBRANCH  11  12
ENDBRANCH   8  11
ENDBRANCH   1   7
BRANCH   5  23
ATOM     23  C   UNL d   1       9.410   2.035  -2.003  0.00  0.00     0.139 C 
ATOM     24  N   UNL d   1       8.481   1.764  -2.893  0.00  0.00    -0.228 NA
ATOM     25  C   UNL d   1       9.021   0.967  -3.825  0.00  0.00     0.086 C 
ATOM     26  C   UNL d   1       8.485   0.711  -5.080  0.00  0.00     0.034 C 
ATOM     27  C   UNL d   1      10.227   0.426  -3.418  0.00  0.00     0.062 C 
ATOM     28  C   UNL d   1       9.061  -0.249  -5.890  0.00  0.00     0.002 C 
ATOM     29  C   UNL d   1      10.153  -0.970  -5.414  0.00  0.00     0.002 C 
ATOM     30  C   UNL d   1      10.773  -0.658  -4.165  0.00  0.00     0.032 C 
ATOM     31  N   UNL d   1      10.563   1.302  -2.357  0.00  0.00    -0.338 N 
ATOM     32  H   UNL d   1      11.505   1.578  -2.113  0.00  0.00     0.167 HD
ENDBRANCH   5  23
TORSDOF 5
