REMARK  12 active torsions:
REMARK  status: ('A' for Active; 'I' for Inactive)
REMARK    1  A    between atoms: C_2  and  N_3 
REMARK    2  A    between atoms: N_3  and  C_4 
REMARK    3  A    between atoms: N_3  and  C_22 
REMARK    4  A    between atoms: C_4  and  C_5 
REMARK    5  A    between atoms: C_9  and  C_10 
REMARK    6  A    between atoms: C_10  and  O_12 
REMARK    7  A    between atoms: O_12  and  C_13 
REMARK    8  A    between atoms: C_23  and  C_22 
REMARK    9  A    between atoms: C_23  and  C_25 
REMARK   10  A    between atoms: C_23  and  O_24 
REMARK   11  A    between atoms: C_25  and  O_26 
REMARK   12  A    between atoms: O_26  and  C_27 
ROOT
ATOM      1  C   UNL d   1       0.874  -4.760   1.656  0.00  0.00     0.134 C 
ATOM      2  N   UNL d   1       0.238  -3.724   2.106  0.00  0.00    -0.225 NA
ATOM      3  C   UNL d   1      -1.089  -3.705   1.810  0.00  0.00     0.116 C 
ATOM      4  S   UNL d   1      -1.949  -2.250   1.614  0.00  0.00    -0.063 SA
ATOM      5  C   UNL d   1      -3.439  -3.066   1.427  0.00  0.00     0.089 C 
ATOM      6  C   UNL d   1      -3.242  -4.446   1.378  0.00  0.00    -0.020 C 
ATOM      7  C   UNL d   1      -4.293  -5.496   1.347  0.00  0.00     0.051 C 
ATOM      8  C   UNL d   1      -1.844  -4.783   1.452  0.00  0.00     0.075 C 
ATOM      9  C   UNL d   1      -1.136  -6.051   1.342  0.00  0.00     0.260 C 
ATOM     10  O   UNL d   1      -1.659  -7.144   1.343  0.00  0.00    -0.267 OA
ATOM     11  N   UNL d   1       0.245  -5.909   1.261  0.00  0.00    -0.309 N 
ATOM     12  H   UNL d   1       0.744  -6.788   1.220  0.00  0.00     0.170 HD
ENDROOT
BRANCH   1  13
ATOM     13  C   UNL d   1       2.387  -4.656   1.442  0.00  0.00     0.313 C 
BRANCH  13  14
ATOM     14  N   UNL d   1       2.930  -3.230   1.604  0.00  0.00    -0.062 N 
ATOM     15  H   UNL d   1       2.556  -2.894   2.509  0.00  0.00     0.280 HD
BRANCH  14  16
ATOM     16  C   UNL d   1       2.505  -2.216   0.543  0.00  0.00     0.231 C 
ATOM     17  C   UNL d   1       1.048  -2.026   0.344  0.00  0.00     0.034 C 
ENDBRANCH  14  16
BRANCH  14  18
ATOM     18  C   UNL d   1       4.449  -3.262   1.686  0.00  0.00     0.269 C 
BRANCH  18  19
ATOM     19  C   UNL d   1       5.013  -1.886   2.033  0.00  0.00     0.168 C 
BRANCH  19  20
ATOM     20  C   UNL d   1       6.513  -1.946   2.089  0.00  0.00     0.209 C 
BRANCH  20  21
ATOM     21  O   UNL d   1       6.954  -2.857   3.081  0.00  0.00    -0.348 OA
BRANCH  21  22
ATOM     22  C   UNL d   1       8.323  -2.932   3.165  0.00  0.00     0.074 C 
ATOM     23  C   UNL d   1       8.857  -4.223   3.171  0.00  0.00     0.037 C 
ATOM     24  C   UNL d   1      10.237  -4.403   3.078  0.00  0.00     0.003 C 
ATOM     25  C   UNL d   1      11.087  -3.322   3.278  0.00  0.00     0.001 C 
ATOM     26  C   UNL d   1      10.556  -2.048   3.428  0.00  0.00     0.009 C 
ATOM     27  C   UNL d   1       9.182  -1.825   3.275  0.00  0.00    -0.029 C 
ATOM     28  C   UNL d   1       8.732  -0.399   3.207  0.00  0.00     0.051 C 
ENDBRANCH  21  22
ENDBRANCH  20  21
ENDBRANCH  19  20
BRANCH  19  29
ATOM     29  O   UNL d   1       4.716  -0.862   1.072  0.00  0.00    -0.392 OA
ATOM     30  H   UNL d   1       5.006  -1.128   0.181  0.00  0.00     0.210 HD
ENDBRANCH  19  29
ENDBRANCH  18  19
ENDBRANCH  14  18
ENDBRANCH  13  14
ENDBRANCH   1  13
BRANCH   5  31
ATOM     31  C   UNL d   1      -4.625  -2.218   1.422  0.00  0.00     0.301 C 
ATOM     32  O   UNL d   1      -4.620  -0.998   1.494  0.00  0.00    -0.259 OA
BRANCH  31  33
ATOM     33  O   UNL d   1      -5.753  -2.976   1.355  0.00  0.00    -0.312 OA
BRANCH  33  34
ATOM     34  C   UNL d   1      -7.013  -2.284   1.376  0.00  0.00     0.124 C 
ATOM     35  C   UNL d   1      -7.169  -1.441   0.117  0.00  0.00     0.040 C 
ATOM     36  C   UNL d   1      -8.126  -3.333   1.414  0.00  0.00     0.040 C 
ENDBRANCH  33  34
ENDBRANCH  31  33
ENDBRANCH   5  31
TORSDOF 12
