REMARK  11 active torsions:
REMARK  status: ('A' for Active; 'I' for Inactive)
REMARK    1  A    between atoms: C_2  and  C_3 
REMARK    2  A    between atoms: C_3  and  N_4 
REMARK    3  A    between atoms: C_5  and  S_6 
REMARK    4  A    between atoms: S_6  and  C_7 
REMARK    5  A    between atoms: C_7  and  C_8 
REMARK       I    between atoms: C_8  and  N_10 
REMARK    6  A    between atoms: N_10  and  C_11 
REMARK    7  A    between atoms: C_15  and  C_16 
REMARK    8  A    between atoms: C_16  and  O_18 
REMARK    9  A    between atoms: O_18  and  C_19 
REMARK   10  A    between atoms: C_26  and  C_27 
REMARK   11  A    between atoms: C_30  and  N_31 
ROOT
ATOM      1  S   UNL d   1       4.823   2.150  -0.292  0.00  0.00    -0.081 SA
ENDROOT
BRANCH   1   2
ATOM      2  C   UNL d   1       5.308   0.473  -0.433  0.00  0.00     0.192 A 
ATOM      3  N   UNL d   1       4.598  -0.708  -0.523  0.00  0.00    -0.304 N 
ATOM      4  C   UNL d   1       5.534  -1.739  -0.412  0.00  0.00     0.164 A 
ATOM      5  N   UNL d   1       6.727  -1.199  -0.281  0.00  0.00    -0.128 NA
ATOM      6  N   UNL d   1       6.588   0.164  -0.314  0.00  0.00    -0.122 NA
BRANCH   3   7
ATOM      7  C   UNL d   1       3.178  -0.974  -0.672  0.00  0.00     0.159 C 
BRANCH   7   8
ATOM      8  C   UNL d   1       2.306  -0.165   0.217  0.00  0.00    -0.017 C 
ATOM      9  C   UNL d   1       0.976  -0.061   0.113  0.00  0.00     0.008 C 
ENDBRANCH   7   8
ENDBRANCH   3   7
BRANCH   4  10
ATOM     10  C   UNL d   1       5.271  -3.188  -0.443  0.00  0.00     0.012 A 
ATOM     11  C   UNL d   1       5.677  -4.009   0.622  0.00  0.00     0.018 A 
ATOM     12  C   UNL d   1       5.565  -5.406   0.538  0.00  0.00     0.037 A 
ATOM     13  C   UNL d   1       4.939  -5.987  -0.570  0.00  0.00     0.102 A 
ATOM     14  C   UNL d   1       4.512  -5.184  -1.634  0.00  0.00     0.037 A 
ATOM     15  C   UNL d   1       4.690  -3.794  -1.569  0.00  0.00     0.018 A 
BRANCH  13  16
ATOM     16  N   UNL d   1       4.664  -7.433  -0.584  0.00  0.00    -0.116 N 
ATOM     17  O   UNL d   1       5.025  -8.099   0.396  0.00  0.00    -0.532 OA
ATOM     18  O   UNL d   1       4.051  -7.893  -1.559  0.00  0.00    -0.532 OA
ENDBRANCH  13  16
ENDBRANCH   4  10
ENDBRANCH   1   2
BRANCH   1  19
ATOM     19  C   UNL d   1       3.076   2.486  -0.675  0.00  0.00     0.185 C 
BRANCH  19  20
ATOM     20  C   UNL d   1       2.651   3.954  -0.597  0.00  0.00     0.232 C 
ATOM     21  O   UNL d   1       3.449   4.853  -0.328  0.00  0.00    -0.272 OA
ATOM     22  N   UNL d   1       1.274   4.196  -0.787  0.00  0.00    -0.320 N 
ATOM     23  H   UNL d   1       0.562   3.475  -0.755  0.00  0.00     0.169 HD
BRANCH  22  24
ATOM     24  C   UNL d   1       0.852   5.503  -1.007  0.00  0.00     0.094 C 
ATOM     25  S   UNL d   1      -0.587   6.037  -0.193  0.00  0.00    -0.075 SA
ATOM     26  C   UNL d   1      -0.307   7.516  -0.748  0.00  0.00    -0.008 C 
ATOM     27  C   UNL d   1       0.550   7.766  -1.703  0.00  0.00    -0.026 C 
ATOM     28  C   UNL d   1      -0.271   8.859  -1.077  0.00  0.00     0.047 C 
ATOM     29  C   UNL d   1       1.414   6.509  -1.809  0.00  0.00     0.080 C 
ATOM     30  C   UNL d   1       0.468   9.727  -2.145  0.00  0.00     0.041 C 
ATOM     31  C   UNL d   1       1.462   8.813  -2.226  0.00  0.00     0.010 C 
BRANCH  29  32
ATOM     32  C   UNL d   1       2.609   6.365  -2.654  0.00  0.00     0.296 C 
ATOM     33  O   UNL d   1       3.198   7.300  -3.187  0.00  0.00    -0.259 OA
BRANCH  32  34
ATOM     34  O   UNL d   1       2.988   5.082  -2.895  0.00  0.00    -0.318 OA
BRANCH  34  35
ATOM     35  C   UNL d   1       4.246   5.061  -3.562  0.00  0.00     0.174 C 
ATOM     36  C   UNL d   1       4.769   3.658  -3.506  0.00  0.00     0.034 C 
ENDBRANCH  34  35
ENDBRANCH  32  34
ENDBRANCH  29  32
ENDBRANCH  22  24
ENDBRANCH  19  20
ENDBRANCH   1  19
TORSDOF 11
