@<TRIPOS>MOLECULE
*****
 35 36 0 0 0
SMALL
GASTEIGER

@<TRIPOS>ATOM
      1 O           1.1256   -0.0616   -0.1082 O.2     1  UNL1       -0.2739
      2 C           2.3516   -0.0054   -0.0134 C.2     1  UNL1        0.2334
      3 C           3.0614    0.6606    1.1554 C.3     1  UNL1        0.0505
      4 C           2.1503    1.2346    2.2238 C.ar    1  UNL1       -0.0382
      5 C           2.0880    2.6185    2.4486 C.ar    1  UNL1       -0.0517
      6 C           1.3432    3.1318    3.5153 C.ar    1  UNL1        0.0159
      7 C           0.5769    2.2652    4.3045 C.ar    1  UNL1        0.2732
      8 N          -0.3069    2.8153    5.3402 N.pl3   1  UNL1        0.0796
      9 O          -0.3119    4.0446    5.5006 O.2     1  UNL1        0.0414
     10 O          -1.0064    2.0208    5.9852 O.co2   1  UNL1       -0.5760
     11 C           0.6046    0.8854    4.0753 C.ar    1  UNL1        0.0159
     12 C           1.3949    0.3772    3.0409 C.ar    1  UNL1       -0.0517
     13 N           3.1358   -0.5712   -0.9969 N.am    1  UNL1       -0.2339
     14 N           4.5415   -0.6122   -1.0166 N.am    1  UNL1       -0.2304
     15 C           5.1705   -1.1652   -2.1235 C.2     1  UNL1        0.2601
     16 O           4.5596   -1.6315   -3.0870 O.2     1  UNL1       -0.2687
     17 C           6.6625   -1.1925   -2.1072 C.ar    1  UNL1        0.0382
     18 C           7.3792   -0.9781   -3.2957 C.ar    1  UNL1       -0.0482
     19 C           8.7715   -1.1424   -3.3235 C.ar    1  UNL1       -0.0427
     20 C           9.4550   -1.4621   -2.1522 C.ar    1  UNL1        0.0410
     21 CL         11.1725   -1.5707   -2.1605 Cl      1  UNL1       -0.0835
     22 C           8.7528   -1.6716   -0.9658 C.ar    1  UNL1       -0.0427
     23 C           7.3576   -1.5437   -0.9423 C.ar    1  UNL1       -0.0482
     24 H           3.7091    1.4531    0.7618 H       1  UNL1        0.0407
     25 H           3.7105   -0.0790    1.6408 H       1  UNL1        0.0407
     26 H           2.6127    3.3116    1.7934 H       1  UNL1        0.0622
     27 H           1.3652    4.2018    3.7127 H       1  UNL1        0.0685
     28 H           0.0201    0.1974    4.6827 H       1  UNL1        0.0685
     29 H           1.3998   -0.6962    2.8582 H       1  UNL1        0.0622
     30 H           2.6542   -1.0218   -1.7780 H       1  UNL1        0.1728
     31 H           5.0665   -0.1474   -0.2856 H       1  UNL1        0.1731
     32 H           6.8611   -0.6883   -4.2085 H       1  UNL1        0.0625
     33 H           9.3155   -1.0331   -4.2597 H       1  UNL1        0.0632
     34 H           9.2857   -1.9582   -0.0620 H       1  UNL1        0.0632
     35 H           6.8276   -1.7636   -0.0205 H       1  UNL1        0.0625
@<TRIPOS>UNITY_ATOM_ATTR
8 1
charge 1
10 1
charge -1
@<TRIPOS>BOND
     1     1     2    2
     2     2     3    1
     3     3     4    1
     4     4     5   ar
     5     5     6   ar
     6     6     7   ar
     7     7     8    1
     8     8     9    2
     9     8    10    1
    10     7    11   ar
    11    11    12   ar
    12     4    12   ar
    13     2    13   am
    14    13    14    1
    15    14    15   am
    16    15    16    2
    17    15    17    1
    18    17    18   ar
    19    18    19   ar
    20    19    20   ar
    21    20    21    1
    22    20    22   ar
    23    22    23   ar
    24    17    23   ar
    25     3    24    1
    26     3    25    1
    27     5    26    1
    28     6    27    1
    29    11    28    1
    30    12    29    1
    31    13    30    1
    32    14    31    1
    33    18    32    1
    34    19    33    1
    35    22    34    1
    36    23    35    1
