@<TRIPOS>MOLECULE
*****
 47 49 0 0 0
SMALL
GASTEIGER

@<TRIPOS>ATOM
      1 C           2.4429   -0.3467    0.4477 C.3     1  UNL1       -0.0378
      2 C           0.9837   -0.1008    0.2302 C.ar    1  UNL1       -0.0258
      3 C           0.1860   -1.2617    0.1221 C.ar    1  UNL1       -0.0147
      4 C          -1.2021   -1.1940    0.0475 C.ar    1  UNL1        0.1288
      5 O          -1.8616   -2.4084    0.0213 O.3     1  UNL1       -0.4560
      6 C          -3.2365   -2.4169   -0.0080 C.ar    1  UNL1        0.1285
      7 C          -3.9441   -1.8734   -1.0816 C.ar    1  UNL1       -0.0181
      8 C          -5.3401   -1.8349   -1.0527 C.ar    1  UNL1       -0.0409
      9 C          -6.0371   -2.3998    0.0196 C.ar    1  UNL1        0.0520
     10 C          -7.4794   -2.3546    0.0408 C.1     1  UNL1        0.0992
     11 N          -8.6285   -2.3071    0.0471 N.1     1  UNL1       -0.1909
     12 C          -5.3264   -3.0064    1.0620 C.ar    1  UNL1       -0.0409
     13 C          -3.9249   -3.0198    1.0459 C.ar    1  UNL1       -0.0181
     14 C          -1.7961    0.0667    0.0471 C.ar    1  UNL1       -0.0176
     15 C          -1.0147    1.2387    0.0496 C.ar    1  UNL1       -0.0367
     16 C           0.3933    1.1763    0.0978 C.ar    1  UNL1        0.0368
     17 N           1.1197    2.4036   -0.0577 N.am    1  UNL1       -0.2813
     18 C           2.5074    2.6085   -0.1239 C.2     1  UNL1        0.2483
     19 O           3.0513    3.3756    0.6665 O.2     1  UNL1       -0.2699
     20 C           3.3375    1.9192   -1.1965 C.ar    1  UNL1        0.0388
     21 C           4.7087    1.7111   -1.0632 C.ar    1  UNL1       -0.0495
     22 C           5.3370    0.7522   -1.8857 C.ar    1  UNL1       -0.0593
     23 C           4.5915   -0.0606   -2.7790 C.ar    1  UNL1       -0.0404
     24 C           3.2047    0.1135   -2.8836 C.ar    1  UNL1        0.0355
     25 N           2.3748   -0.8351   -3.5510 N.am    1  UNL1       -0.2696
     26 C           1.0138   -0.9968   -3.6405 C.2     1  UNL1        0.3013
     27 N           0.1622   -0.1817   -2.9835 N.am    1  UNL1       -0.3131
     28 O           0.5300   -1.8761   -4.3520 O.2     1  UNL1       -0.2527
     29 C           2.6612    1.1906   -2.1831 C.ar    1  UNL1       -0.0283
     30 H           2.7207   -1.3954    0.5380 H       1  UNL1        0.0278
     31 H           2.8536    0.2736    1.2454 H       1  UNL1        0.0278
     32 H           2.9789   -0.1413   -0.4448 H       1  UNL1        0.0278
     33 H           0.6794   -2.2328    0.0865 H       1  UNL1        0.0657
     34 H          -3.4093   -1.4360   -1.9199 H       1  UNL1        0.0655
     35 H          -5.8734   -1.3539   -1.8701 H       1  UNL1        0.0631
     36 H          -5.8553   -3.4637    1.8967 H       1  UNL1        0.0631
     37 H          -3.3789   -3.4867    1.8624 H       1  UNL1        0.0655
     38 H          -2.8766    0.1709    0.0270 H       1  UNL1        0.0655
     39 H          -1.5525    2.1852   -0.0090 H       1  UNL1        0.0637
     40 H           0.5989    3.2475    0.1665 H       1  UNL1        0.1551
     41 H           5.2619    2.2020   -0.2641 H       1  UNL1        0.0625
     42 H           6.4085    0.5870   -1.7711 H       1  UNL1        0.0618
     43 H           5.1164   -0.8459   -3.3245 H       1  UNL1        0.0636
     44 H           2.8494   -1.5657   -4.0740 H       1  UNL1        0.1564
     45 H           0.3870    0.2011   -2.0885 H       1  UNL1        0.1465
     46 H          -0.8151   -0.4407   -2.9902 H       1  UNL1        0.1465
     47 H           1.6121    1.3434   -2.1744 H       1  UNL1        0.0644
@<TRIPOS>BOND
     1     1     2    1
     2     2     3   ar
     3     3     4   ar
     4     4     5    1
     5     5     6    1
     6     6     7   ar
     7     7     8   ar
     8     8     9   ar
     9     9    10    1
    10    10    11    3
    11     9    12   ar
    12    12    13   ar
    13     6    13   ar
    14     4    14   ar
    15    14    15   ar
    16    15    16   ar
    17     2    16   ar
    18    16    17    1
    19    17    18   am
    20    18    19    2
    21    18    20    1
    22    20    21   ar
    23    21    22   ar
    24    22    23   ar
    25    23    24   ar
    26    24    25    1
    27    25    26   am
    28    26    27   am
    29    26    28    2
    30    24    29   ar
    31    20    29   ar
    32     1    30    1
    33     1    31    1
    34     1    32    1
    35     3    33    1
    36     7    34    1
    37     8    35    1
    38    12    36    1
    39    13    37    1
    40    14    38    1
    41    15    39    1
    42    17    40    1
    43    21    41    1
    44    22    42    1
    45    23    43    1
    46    25    44    1
    47    27    45    1
    48    27    46    1
    49    29    47    1
