@<TRIPOS>MOLECULE
*****
 60 65 0 0 0
SMALL
GASTEIGER

@<TRIPOS>ATOM
      1 O           1.0710    0.5816   -0.1191 O.2     1  UNL1       -0.2748
      2 C           2.0274   -0.0661    0.2752 C.2     1  UNL1        0.2273
      3 C           2.5233   -1.3118   -0.3728 C.3     1  UNL1        0.0677
      4 C           3.2844   -1.0583   -1.6636 C.3     1  UNL1        0.0508
      5 C           2.6063   -1.7070   -2.9303 C.3     1  UNL1        0.0962
      6 O           2.7829   -0.8006   -4.0325 O.3     1  UNL1       -0.3856
      7 C           1.1369   -2.1128   -2.7977 C.ar    1  UNL1       -0.0176
      8 C           0.7651   -3.2051   -1.9761 C.ar    1  UNL1       -0.0547
      9 C          -0.5756   -3.5211   -1.7423 C.ar    1  UNL1       -0.0430
     10 C          -1.5657   -2.8180   -2.4143 C.ar    1  UNL1        0.0410
     11 CL         -3.2090   -3.2990   -2.2580 Cl      1  UNL1       -0.0835
     12 C          -1.2279   -1.7581   -3.2514 C.ar    1  UNL1       -0.0430
     13 C           0.1127   -1.4090   -3.4426 C.ar    1  UNL1       -0.0547
     14 N           4.6496   -1.5910   -1.4736 N.3     1  UNL1       -0.2925
     15 C           4.7527   -2.2233   -0.1578 C.3     1  UNL1        0.1358
     16 C           5.0953   -3.7596   -0.3883 C.2     1  UNL1        0.2428
     17 O           4.6135   -4.5233   -1.2121 O.2     1  UNL1       -0.2730
     18 N           6.1094   -4.0928    0.5053 N.am    1  UNL1       -0.2834
     19 C           6.6319   -2.9531    1.0962 C.ar    1  UNL1        0.0389
     20 C           7.6816   -2.8732    1.9811 C.ar    1  UNL1       -0.0401
     21 C           8.0102   -1.6028    2.4637 C.ar    1  UNL1       -0.0600
     22 C           7.3138   -0.4575    2.0365 C.ar    1  UNL1       -0.0613
     23 C           6.2947   -0.5558    1.0971 C.ar    1  UNL1       -0.0546
     24 C           5.9441   -1.8193    0.6582 C.ar    1  UNL1        0.0034
     25 C           3.4438   -1.9923    0.6076 C.3     1  UNL1        0.0796
     26 C           3.4239   -0.9935    1.7618 C.2     1  UNL1        0.2283
     27 O           3.9043   -1.2074    2.8692 O.2     1  UNL1       -0.2748
     28 N           2.7573    0.1457    1.3962 N.am    1  UNL1       -0.2412
     29 C           2.5934    1.3553    2.2017 C.3     1  UNL1        0.0263
     30 C           1.4565    1.2993    3.2283 C.3     1  UNL1       -0.0113
     31 C           1.3135    2.5461    4.0866 C.ar    1  UNL1       -0.0459
     32 C           2.3678    3.0015    4.8931 C.ar    1  UNL1       -0.0585
     33 C           2.1559    4.0032    5.8475 C.ar    1  UNL1       -0.0615
     34 C           0.9098    4.6142    5.9600 C.ar    1  UNL1       -0.0617
     35 C          -0.1168    4.2460    5.0953 C.ar    1  UNL1       -0.0615
     36 C           0.0749    3.2016    4.1838 C.ar    1  UNL1       -0.0585
     37 H           1.6321   -1.9081   -0.4259 H       1  UNL1        0.0419
     38 H           3.4130    0.0204   -1.8371 H       1  UNL1        0.0497
     39 H           3.1525   -2.6143   -3.2168 H       1  UNL1        0.0659
     40 H           2.4078    0.0556   -3.7650 H       1  UNL1        0.2103
     41 H           1.5224   -3.7706   -1.4288 H       1  UNL1        0.0622
     42 H          -0.8344   -4.3106   -1.0410 H       1  UNL1        0.0632
     43 H          -2.0017   -1.1973   -3.7669 H       1  UNL1        0.0632
     44 H           0.3388   -0.5921   -4.1221 H       1  UNL1        0.0622
     45 H           5.3945   -0.9198   -1.6515 H       1  UNL1        0.1236
     46 H           6.5066   -5.0200    0.5649 H       1  UNL1        0.1549
     47 H           8.2194   -3.7526    2.3152 H       1  UNL1        0.0636
     48 H           8.8091   -1.4926    3.1918 H       1  UNL1        0.0618
     49 H           7.5449    0.5132    2.4665 H       1  UNL1        0.0618
     50 H           5.7309    0.3198    0.7944 H       1  UNL1        0.0622
     51 H           2.9870   -2.9370    0.9271 H       1  UNL1        0.0429
     52 H           3.5530    1.5533    2.6873 H       1  UNL1        0.0473
     53 H           2.3931    2.1828    1.5084 H       1  UNL1        0.0473
     54 H           1.6010    0.4461    3.9024 H       1  UNL1        0.0329
     55 H           0.5097    1.1099    2.7060 H       1  UNL1        0.0329
     56 H           3.3572    2.5568    4.8222 H       1  UNL1        0.0620
     57 H           2.9595    4.2913    6.5211 H       1  UNL1        0.0618
     58 H           0.7376    5.3703    6.7223 H       1  UNL1        0.0618
     59 H          -1.0777    4.7522    5.1511 H       1  UNL1        0.0618
     60 H          -0.7668    2.8880    3.5698 H       1  UNL1        0.0620
@<TRIPOS>BOND
     1     2     3    1
     2     3     4    1
     3     5     6    1
     4     5     7    1
     5     7     8   ar
     6     8     9   ar
     7     9    10   ar
     8    10    11    1
     9    10    12   ar
    10    12    13   ar
    11     7    13   ar
    12     4    14    1
    13    14    15    1
    14    15    16    1
    15    16    18   am
    16    18    19    1
    17    19    20   ar
    18    20    21   ar
    19    21    22   ar
    20    22    23   ar
    21    23    24   ar
    22    19    24   ar
    23    15    24    1
    24    15    25    1
    25     3    25    1
    26    25    26    1
    27    26    28   am
    28     2    28   am
    29    29    30    1
    30    30    31    1
    31    31    32   ar
    32    32    33   ar
    33    33    34   ar
    34    34    35   ar
    35    35    36   ar
    36    31    36   ar
    37     1     2    2
    38    16    17    2
    39    26    27    2
    40    28    29    1
    41     4     5    1
    42     3    37    1
    43     4    38    1
    44     5    39    1
    45     6    40    1
    46     8    41    1
    47     9    42    1
    48    12    43    1
    49    13    44    1
    50    14    45    1
    51    18    46    1
    52    20    47    1
    53    21    48    1
    54    22    49    1
    55    23    50    1
    56    25    51    1
    57    29    52    1
    58    29    53    1
    59    30    54    1
    60    30    55    1
    61    32    56    1
    62    33    57    1
    63    34    58    1
    64    35    59    1
    65    36    60    1
