REMARK  3 active torsions:
REMARK  status: ('A' for Active; 'I' for Inactive)
REMARK    1  A    between atoms: C_5  and  N_6 
REMARK       I    between atoms: N_6  and  C_7 
REMARK    2  A    between atoms: C_7  and  C_9 
REMARK    3  A    between atoms: C_17  and  O_18 
ROOT
ATOM      1  N   UNL d   1      -2.288  -2.018  -0.064  0.00  0.00    -0.320 N 
ATOM      2  C   UNL d   1      -2.271  -3.412  -0.103  0.00  0.00     0.258 C 
ATOM      3  O   UNL d   1      -1.280  -4.133  -0.206  0.00  0.00    -0.267 OA
ATOM      4  H   UNL d   1      -3.187  -1.561  -0.047  0.00  0.00     0.169 HD
ENDROOT
BRANCH   1   5
ATOM      5  C   UNL d   1      -1.114  -1.195  -0.030  0.00  0.00     0.068 A 
ATOM      6  C   UNL d   1       0.167  -1.767   0.003  0.00  0.00     0.033 A 
ATOM      7  C   UNL d   1       1.335  -1.002   0.021  0.00  0.00     0.009 A 
ATOM      8  C   UNL d   1       1.262   0.383   0.004  0.00  0.00    -0.059 A 
ATOM      9  C   UNL d   1       2.503   1.220  -0.001  0.00  0.00     0.048 C 
ATOM     10  C   UNL d   1      -0.001   0.983  -0.010  0.00  0.00     0.045 A 
ATOM     11  C   UNL d   1      -1.173   0.210  -0.020  0.00  0.00     0.092 A 
BRANCH  11  12
ATOM     12  O   UNL d   1      -2.326   0.948  -0.024  0.00  0.00    -0.358 OA
ATOM     13  H   UNL d   1      -3.095   0.371   0.040  0.00  0.00     0.217 HD
ENDBRANCH  11  12
ENDBRANCH   1   5
BRANCH   2  14
ATOM     14  C   UNL d   1      -3.562  -4.133  -0.066  0.00  0.00     0.054 A 
ATOM     15  C   UNL d   1      -4.577  -3.784  -0.968  0.00  0.00     0.020 A 
ATOM     16  C   UNL d   1      -5.746  -4.551  -1.031  0.00  0.00     0.025 A 
ATOM     17  C   UNL d   1      -5.898  -5.666  -0.206  0.00  0.00     0.035 A 
ATOM     18 CL   UNL d   1      -7.343  -6.597  -0.283  0.00  0.00    -0.084 Cl
ATOM     19  C   UNL d   1      -4.891  -6.032   0.680  0.00  0.00     0.048 A 
ATOM     20  C   UNL d   1      -3.721  -5.271   0.750  0.00  0.00     0.051 A 
ATOM     21 CL   UNL d   1      -2.535  -5.792   1.900  0.00  0.00    -0.083 Cl
ENDBRANCH   2  14
TORSDOF 3
