REMARK  3 active torsions:
REMARK  status: ('A' for Active; 'I' for Inactive)
REMARK    1  A    between atoms: C_9  and  N_10 
REMARK    2  A    between atoms: C_20  and  C_21 
REMARK    3  A    between atoms: C_26  and  N_27 
ROOT
ATOM      1  N   UNL d   1       1.010   0.053  -0.084  0.00  0.00    -0.101 N 
ATOM      2  C   UNL d   1       2.270   0.053  -0.084  0.00  0.00    -0.005 C 
ATOM      3  C   UNL d   1       3.790   0.053  -0.084  0.00  0.00     0.184 C 
ATOM      4  C   UNL d   1       4.450  -1.067   0.689  0.00  0.00     0.241 C 
ATOM      5  O   UNL d   1       3.850  -1.967   1.264  0.00  0.00    -0.272 OA
ATOM      6  N   UNL d   1       5.849  -1.019   0.623  0.00  0.00    -0.309 N 
ATOM      7  C   UNL d   1       6.565   0.165   0.685  0.00  0.00     0.162 A 
ATOM      8  N   UNL d   1       7.934   0.097   0.861  0.00  0.00    -0.046 NA
ATOM      9  C   UNL d   1       8.584   1.205   1.102  0.00  0.00     0.707 A 
ATOM     10  N   UNL d   1       7.929   2.406   1.139  0.00  0.00    -0.154 N 
ATOM     11  C   UNL d   1       6.604   2.549   0.924  0.00  0.00     0.270 A 
ATOM     12  O   UNL d   1       6.063   3.657   0.954  0.00  0.00    -0.267 OA
ATOM     13  C   UNL d   1       5.867   1.308   0.660  0.00  0.00     0.067 A 
ATOM     14  C   UNL d   1       4.376   1.356   0.457  0.00  0.00     0.089 C 
ATOM     15  H   UNL d   1       6.354  -1.873   0.831  0.00  0.00     0.170 HD
ATOM     16  H   UNL d   1       8.454   3.260   1.237  0.00  0.00     0.187 HD
ENDROOT
BRANCH  14  17
ATOM     17  C   UNL d   1       3.968   2.481  -0.476  0.00  0.00    -0.015 C 
ATOM     18  C   UNL d   1       4.409   2.394  -1.822  0.00  0.00     0.010 C 
ATOM     19  C   UNL d   1       3.977   3.301  -2.777  0.00  0.00     0.001 C 
ATOM     20  C   UNL d   1       3.338   4.458  -2.362  0.00  0.00     0.002 C 
ATOM     21  C   UNL d   1       3.002   4.634  -1.019  0.00  0.00     0.037 C 
ATOM     22  C   UNL d   1       3.219   3.609  -0.086  0.00  0.00     0.110 C 
BRANCH  22  23
ATOM     23  N   UNL d   1       2.619   3.788   1.260  0.00  0.00    -0.115 N 
ATOM     24  O   UNL d   1       2.006   4.841   1.477  0.00  0.00    -0.532 OA
ATOM     25  O   UNL d   1       2.702   2.876   2.090  0.00  0.00    -0.532 OA
ENDBRANCH  22  23
ENDBRANCH  14  17
BRANCH   9  26
ATOM     26  N   UNL d   1       9.951   1.321   1.286  0.00  0.00    -0.216 N 
ATOM     27  C   UNL d   1      10.574   1.877   2.496  0.00  0.00     0.141 C 
ATOM     28  C   UNL d   1      11.555   2.990   2.108  0.00  0.00     0.020 C 
ATOM     29  C   UNL d   1      12.585   2.501   1.088  0.00  0.00     0.003 C 
ATOM     30  C   UNL d   1      11.901   1.801  -0.089  0.00  0.00     0.020 C 
ATOM     31  C   UNL d   1      10.919   0.713   0.379  0.00  0.00     0.141 C 
ENDBRANCH   9  26
TORSDOF 3
