REMARK  11 active torsions:
REMARK  status: ('A' for Active; 'I' for Inactive)
REMARK       I    between atoms: C_2  and  N_3 
REMARK    1  A    between atoms: C_2  and  C_25 
REMARK    2  A    between atoms: N_3  and  N_4 
REMARK    3  A    between atoms: N_4  and  C_5 
REMARK    4  A    between atoms: C_5  and  N_7 
REMARK       I    between atoms: N_7  and  C_8 
REMARK    5  A    between atoms: C_8  and  C_10 
REMARK    6  A    between atoms: C_15  and  O_16 
REMARK    7  A    between atoms: O_16  and  C_17 
REMARK    8  A    between atoms: C_17  and  C_18 
REMARK    9  A    between atoms: C_18  and  C_19 
REMARK   10  A    between atoms: C_28  and  N_29 
REMARK       I    between atoms: N_29  and  C_30 
REMARK   11  A    between atoms: C_30  and  C_32 
ROOT
ATOM      1  C   UNL d   1       3.295   0.877  -3.654  0.00  0.00     0.193 C 
ATOM      2  S   UNL d   1       4.882   1.346  -3.330  0.00  0.00    -0.039 SA
ENDROOT
BRANCH   1   3
ATOM      3  N   UNL d   1       2.573   0.142  -2.679  0.00  0.00    -0.273 N 
ATOM      4  H   UNL d   1       1.555   0.102  -2.639  0.00  0.00     0.189 HD
BRANCH   3   5
ATOM      5  N   UNL d   1       3.181  -0.026  -1.345  0.00  0.00    -0.264 N 
ATOM      6  C   UNL d   1       2.439  -0.464  -0.258  0.00  0.00     0.270 C 
ATOM      7  O   UNL d   1       1.272  -0.851  -0.349  0.00  0.00    -0.266 OA
ATOM      8  H   UNL d   1       4.081   0.431  -1.221  0.00  0.00     0.190 HD
BRANCH   6   9
ATOM      9  C   UNL d   1       3.111  -0.513   1.076  0.00  0.00     0.033 C 
ATOM     10  C   UNL d   1       4.239   0.208   1.500  0.00  0.00     0.019 C 
ATOM     11  C   UNL d   1       4.991  -0.262   2.600  0.00  0.00     0.030 C 
ATOM     12  C   UNL d   1       4.561  -1.390   3.315  0.00  0.00     0.034 C 
ATOM     13  C   UNL d   1       3.370  -2.001   2.933  0.00  0.00     0.030 C 
ATOM     14  C   UNL d   1       2.626  -1.539   1.870  0.00  0.00     0.019 C 
BRANCH  12  15
ATOM     15  N   UNL d   1       5.299  -1.891   4.413  0.00  0.00    -0.327 N 
ATOM     16  C   UNL d   1       4.912  -2.973   5.181  0.00  0.00     0.226 C 
ATOM     17  O   UNL d   1       3.904  -3.680   5.048  0.00  0.00    -0.273 OA
ATOM     18  H   UNL d   1       6.141  -1.394   4.680  0.00  0.00     0.169 HD
BRANCH  16  19
ATOM     19  C   UNL d   1       5.772  -3.318   6.324  0.00  0.00     0.078 A 
ATOM     20  C   UNL d   1       6.486  -4.657   6.266  0.00  0.00     0.015 A 
ATOM     21  C   UNL d   1       7.269  -3.376   6.253  0.00  0.00     0.015 A 
ENDBRANCH  16  19
ENDBRANCH  12  15
ENDBRANCH   6   9
ENDBRANCH   3   5
ENDBRANCH   1   3
BRANCH   1  22
ATOM     22  N   UNL d   1       2.611   1.127  -4.884  0.00  0.00    -0.298 N 
ATOM     23  C   UNL d   1       3.095   1.878  -6.007  0.00  0.00     0.260 C 
ATOM     24  O   UNL d   1       4.285   2.123  -6.196  0.00  0.00    -0.267 OA
ATOM     25  H   UNL d   1       1.631   0.884  -4.914  0.00  0.00     0.171 HD
BRANCH  23  26
ATOM     26  C   UNL d   1       2.182   2.378  -7.115  0.00  0.00     0.065 A 
ATOM     27  C   UNL d   1       2.602   2.005  -8.418  0.00  0.00     0.020 A 
ATOM     28  C   UNL d   1       2.016   2.533  -9.580  0.00  0.00     0.001 A 
ATOM     29  C   UNL d   1       0.944   3.406  -9.476  0.00  0.00     0.003 A 
ATOM     30  C   UNL d   1       0.535   3.824  -8.212  0.00  0.00     0.038 A 
ATOM     31  C   UNL d   1       1.170   3.365  -7.032  0.00  0.00     0.084 A 
BRANCH  31  32
ATOM     32  O   UNL d   1       0.705   4.068  -5.942  0.00  0.00    -0.350 OA
BRANCH  32  33
ATOM     33  C   UNL d   1       1.284   3.702  -4.712  0.00  0.00     0.180 C 
BRANCH  33  34
ATOM     34  C   UNL d   1       0.629   4.353  -3.517  0.00  0.00     0.065 C 
BRANCH  34  35
ATOM     35  C   UNL d   1       1.256   3.876  -2.239  0.00  0.00    -0.056 C 
ATOM     36  C   UNL d   1       0.994   2.570  -1.887  0.00  0.00     0.007 C 
ATOM     37  C   UNL d   1       1.296   2.142  -0.615  0.00  0.00     0.001 C 
ATOM     38  C   UNL d   1       2.091   2.873   0.247  0.00  0.00     0.000 C 
ATOM     39  C   UNL d   1       2.377   4.177  -0.096  0.00  0.00     0.001 C 
ATOM     40  C   UNL d   1       1.934   4.688  -1.326  0.00  0.00     0.007 C 
ENDBRANCH  34  35
ENDBRANCH  33  34
ENDBRANCH  32  33
ENDBRANCH  31  32
ENDBRANCH  23  26
ENDBRANCH   1  22
TORSDOF 11
