REMARK  5 active torsions:
REMARK  status: ('A' for Active; 'I' for Inactive)
REMARK    1  A    between atoms: C_2  and  C_4 
REMARK       I    between atoms: C_4  and  N_6 
REMARK    2  A    between atoms: N_6  and  C_7 
REMARK    3  A    between atoms: C_7  and  C_8 
REMARK    4  A    between atoms: C_8  and  C_9 
REMARK    5  A    between atoms: C_12  and  O_13 
ROOT
ATOM      1  C   UNL d   1       6.530   3.077  -0.688  0.00  0.00     0.058 C 
ENDROOT
BRANCH   1   2
ATOM      2  C   UNL d   1       4.998   2.984  -0.686  0.00  0.00     0.127 C 
BRANCH   2   3
ATOM      3  N   UNL d   1       4.465   1.663  -0.437  0.00  0.00    -0.360 N 
ATOM      4  C   UNL d   1       3.094   1.500  -0.380  0.00  0.00     0.221 C 
ATOM      5  O   UNL d   1       2.320   2.445  -0.537  0.00  0.00    -0.273 OA
ATOM      6  H   UNL d   1       5.087   0.896  -0.221  0.00  0.00     0.162 HD
BRANCH   4   7
ATOM      7  C   UNL d   1       2.611   0.084  -0.084  0.00  0.00     0.070 C 
ATOM      8  C   UNL d   1       1.081   0.048  -0.047  0.00  0.00     0.019 C 
ATOM      9  C   UNL d   1       3.114  -0.900  -1.136  0.00  0.00     0.019 C 
ENDBRANCH   4   7
ENDBRANCH   2   3
ENDBRANCH   1   2
BRANCH   1  10
ATOM     10  C   UNL d   1       7.020   4.484  -0.971  0.00  0.00    -0.057 A 
ATOM     11  C   UNL d   1       8.190   4.714  -1.713  0.00  0.00     0.010 A 
ATOM     12  C   UNL d   1       8.607   6.024  -1.998  0.00  0.00     0.037 A 
ATOM     13  C   UNL d   1       7.858   7.101  -1.534  0.00  0.00     0.065 A 
ATOM     14  C   UNL d   1       6.724   6.894  -0.770  0.00  0.00     0.037 A 
ATOM     15  C   UNL d   1       6.320   5.596  -0.476  0.00  0.00     0.010 A 
BRANCH  13  16
ATOM     16  O   UNL d   1       8.192   8.396  -1.796  0.00  0.00    -0.361 OA
ATOM     17  H   UNL d   1       8.983   8.414  -2.355  0.00  0.00     0.217 HD
ENDBRANCH  13  16
ENDBRANCH   1  10
TORSDOF 5
