REMARK  10 active torsions:
REMARK  status: ('A' for Active; 'I' for Inactive)
REMARK    1  A    between atoms: C_2  and  C_3 
REMARK    2  A    between atoms: C_3  and  C_4 
REMARK    3  A    between atoms: C_4  and  C_5 
REMARK    4  A    between atoms: C_4  and  N_13 
REMARK       I    between atoms: C_5  and  N_7 
REMARK    5  A    between atoms: N_7  and  C_8 
REMARK       I    between atoms: N_13  and  C_14 
REMARK    6  A    between atoms: N_13  and  C_25 
REMARK    7  A    between atoms: C_14  and  C_16 
REMARK    8  A    between atoms: C_19  and  C_20 
REMARK       I    between atoms: C_20  and  N_21 
REMARK    9  A    between atoms: C_23  and  N_24 
REMARK   10  A    between atoms: C_28  and  C_29 
ROOT
ATOM      1  N   UNL d   1       4.958  -2.801   0.819  0.00  0.00    -0.299 N 
ATOM      2  C   UNL d   1       4.030  -3.914   1.048  0.00  0.00     0.269 C 
ATOM      3  O   UNL d   1       4.448  -4.982   1.490  0.00  0.00    -0.266 OA
ENDROOT
BRANCH   1   4
ATOM      4  C   UNL d   1       4.602  -1.319   0.664  0.00  0.00     0.185 C 
BRANCH   4   5
ATOM      5  C   UNL d   1       3.121  -1.022   0.732  0.00  0.00     0.035 C 
BRANCH   5   6
ATOM      6  C   UNL d   1       2.521   0.254   0.186  0.00  0.00    -0.002 C 
ATOM      7  C   UNL d   1       1.019   0.158   0.142  0.00  0.00     0.005 C 
ENDBRANCH   5   6
ENDBRANCH   4   5
BRANCH   4   8
ATOM      8  C   UNL d   1       5.060  -0.318   1.728  0.00  0.00     0.241 C 
ATOM      9  O   UNL d   1       5.333  -0.625   2.874  0.00  0.00    -0.271 OA
ATOM     10  N   UNL d   1       5.010   1.002   1.309  0.00  0.00    -0.355 N 
ATOM     11  H   UNL d   1       4.630   1.270   0.410  0.00  0.00     0.162 HD
BRANCH  10  12
ATOM     12  C   UNL d   1       5.292   2.034   2.254  0.00  0.00     0.084 C 
ATOM     13  C   UNL d   1       6.780   2.301   2.240  0.00  0.00     0.025 C 
ATOM     14  C   UNL d   1       6.894   3.651   2.909  0.00  0.00     0.002 C 
ATOM     15  C   UNL d   1       5.589   4.387   2.589  0.00  0.00     0.002 C 
ATOM     16  C   UNL d   1       4.677   3.378   1.898  0.00  0.00     0.025 C 
ENDBRANCH  10  12
ENDBRANCH   4   8
ENDBRANCH   1   4
BRANCH   1  17
ATOM     17  C   UNL d   1       6.405  -3.084   0.879  0.00  0.00     0.038 A 
ATOM     18  C   UNL d   1       6.972  -4.287   0.433  0.00  0.00     0.030 A 
ATOM     19  C   UNL d   1       8.346  -4.575   0.627  0.00  0.00     0.009 A 
ATOM     20  C   UNL d   1       9.205  -3.647   1.228  0.00  0.00    -0.058 A 
ATOM     21  C   UNL d   1       8.650  -2.453   1.646  0.00  0.00     0.009 A 
ATOM     22  C   UNL d   1       7.313  -2.167   1.414  0.00  0.00     0.030 A 
BRANCH  20  23
ATOM     23  C   UNL d   1      10.691  -3.882   1.349  0.00  0.00     0.034 C 
ATOM     24  C   UNL d   1      11.457  -2.714   1.978  0.00  0.00     0.010 C 
ENDBRANCH  20  23
ENDBRANCH   1  17
BRANCH   2  25
ATOM     25  C   UNL d   1       2.576  -3.801   0.775  0.00  0.00     0.115 C 
ATOM     26  S   UNL d   1       1.441  -4.080   2.042  0.00  0.00     0.019 SA
ATOM     27  N   UNL d   1       0.094  -3.471   1.253  0.00  0.00    -0.203 NA
ATOM     28  C   UNL d   1       0.429  -3.179  -0.014  0.00  0.00     0.155 C 
ATOM     29  C   UNL d   1       1.830  -3.452  -0.347  0.00  0.00     0.065 C 
BRANCH  28  30
ATOM     30  C   UNL d   1      -0.502  -2.473  -0.935  0.00  0.00     0.270 C 
ATOM     31  N   UNL d   1      -1.767  -2.172  -0.527  0.00  0.00    -0.365 N 
ATOM     32  H   UNL d   1      -2.150  -2.498   0.350  0.00  0.00     0.159 HD
ATOM     33  H   UNL d   1      -2.345  -1.648  -1.173  0.00  0.00     0.159 HD
ATOM     34  O   UNL d   1      -0.143  -2.044  -2.047  0.00  0.00    -0.266 OA
ENDBRANCH  28  30
BRANCH  29  35
ATOM     35  N   UNL d   1       2.388  -3.055  -1.538  0.00  0.00    -0.299 NA
ATOM     36  H   UNL d   1       1.884  -2.281  -2.001  0.00  0.00     0.124 HD
ATOM     37  H   UNL d   1       3.386  -2.853  -1.567  0.00  0.00     0.124 HD
ENDBRANCH  29  35
ENDBRANCH   2  25
TORSDOF 10
