REMARK  3 active torsions:
REMARK  status: ('A' for Active; 'I' for Inactive)
REMARK    1  A    between atoms: C_5  and  C_6 
REMARK       I    between atoms: C_6  and  N_8 
REMARK    2  A    between atoms: N_8  and  C_9 
REMARK    3  A    between atoms: C_15  and  O_16 
ROOT
ATOM      1  C   UNL d   1      -3.348  -0.005  -0.043  0.00  0.00     0.256 C 
ATOM      2  O   UNL d   1      -3.869  -1.118  -0.156  0.00  0.00    -0.267 OA
ATOM      3  N   UNL d   1      -4.057   1.196  -0.052  0.00  0.00    -0.320 N 
ATOM      4  H   UNL d   1      -3.578   2.055  -0.271  0.00  0.00     0.169 HD
ENDROOT
BRANCH   3   5
ATOM      5  C   UNL d   1      -5.474   1.240  -0.059  0.00  0.00     0.070 A 
ATOM      6  C   UNL d   1      -6.128   2.146  -0.903  0.00  0.00     0.056 A 
ATOM      7  C   UNL d   1      -7.526   2.155  -0.958  0.00  0.00     0.036 A 
ATOM      8 CL   UNL d   1      -8.341   3.224  -2.036  0.00  0.00    -0.084 Cl
ATOM      9  C   UNL d   1      -8.280   1.294  -0.160  0.00  0.00     0.026 A 
ATOM     10  C   UNL d   1      -7.635   0.422   0.716  0.00  0.00     0.040 A 
ATOM     11  C   UNL d   1      -6.242   0.414   0.777  0.00  0.00     0.092 A 
BRANCH  11  12
ATOM     12  O   UNL d   1      -5.626  -0.319   1.755  0.00  0.00    -0.358 OA
ATOM     13  H   UNL d   1      -6.236  -0.997   2.080  0.00  0.00     0.217 HD
ENDBRANCH  11  12
ENDBRANCH   3   5
BRANCH   1  14
ATOM     14  C   UNL d   1      -1.851   0.052  -0.003  0.00  0.00     0.032 A 
ATOM     15  C   UNL d   1      -1.145  -1.165   0.003  0.00  0.00     0.017 A 
ATOM     16  C   UNL d   1       0.254  -1.192   0.006  0.00  0.00     0.007 A 
ATOM     17  C   UNL d   1       0.978   0.002   0.003  0.00  0.00    -0.062 A 
ATOM     18  C   UNL d   1       2.478  -0.000  -0.013  0.00  0.00     0.048 C 
ATOM     19  C   UNL d   1       0.281   1.216   0.008  0.00  0.00     0.007 A 
ATOM     20  C   UNL d   1      -1.120   1.244   0.009  0.00  0.00     0.017 A 
ENDBRANCH   1  14
TORSDOF 3
