REMARK  6 active torsions:
REMARK  status: ('A' for Active; 'I' for Inactive)
REMARK    1  A    between atoms: C_3  and  C_2 
REMARK    2  A    between atoms: C_3  and  N_5 
REMARK       I    between atoms: N_5  and  C_6 
REMARK    3  A    between atoms: C_6  and  C_8 
REMARK    4  A    between atoms: C_8  and  C_9 
REMARK    5  A    between atoms: C_9  and  C_10 
REMARK    6  A    between atoms: C_14  and  N_15 
ROOT
ATOM      1  C   UNL d   1       7.259   1.346   3.961  0.00  0.00     0.048 C 
ENDROOT
BRANCH   1   2
ATOM      2  C   UNL d   1       6.721   0.933   2.582  0.00  0.00     0.107 C 
BRANCH   2   3
ATOM      3  C   UNL d   1       5.226   1.137   2.553  0.00  0.00     0.218 C 
ATOM      4  N   UNL d   1       4.543   0.516   1.526  0.00  0.00    -0.357 N 
ATOM      5  H   UNL d   1       5.062   0.179   0.723  0.00  0.00     0.162 HD
ATOM      6  O   UNL d   1       4.659   1.810   3.418  0.00  0.00    -0.274 OA
BRANCH   4   7
ATOM      7  C   UNL d   1       3.076   0.474   1.500  0.00  0.00     0.080 C 
ATOM      8  C   UNL d   1       2.553   0.062   0.116  0.00  0.00     0.032 C 
BRANCH   7   9
ATOM      9  C   UNL d   1       2.490  -0.512   2.540  0.00  0.00     0.020 C 
ATOM     10  C   UNL d   1       3.040  -0.387   3.951  0.00  0.00     0.007 C 
ENDBRANCH   7   9
ENDBRANCH   4   7
ENDBRANCH   2   3
ENDBRANCH   1   2
BRANCH   1  11
ATOM     11  C   UNL d   1       8.761   1.352   4.010  0.00  0.00    -0.056 A 
ATOM     12  C   UNL d   1       9.460   2.563   4.019  0.00  0.00     0.007 A 
ATOM     13  C   UNL d   1      10.851   2.562   4.010  0.00  0.00     0.003 A 
ATOM     14  C   UNL d   1      11.547   1.350   3.992  0.00  0.00     0.029 A 
ATOM     15  C   UNL d   1      10.868   0.130   4.026  0.00  0.00     0.026 A 
ATOM     16  C   UNL d   1       9.472   0.144   4.017  0.00  0.00     0.036 A 
BRANCH  15  17
ATOM     17  N   UNL d   1      11.555  -1.067   3.859  0.00  0.00    -0.399 N 
ATOM     18  H   UNL d   1      12.550  -1.070   4.045  0.00  0.00     0.156 HD
ATOM     19  H   UNL d   1      11.061  -1.928   4.063  0.00  0.00     0.156 HD
ENDBRANCH  15  17
ENDBRANCH   1  11
TORSDOF 6
