@<TRIPOS>MOLECULE
*****
 42 42 0 0 0
SMALL
GASTEIGER

@<TRIPOS>ATOM
      1 C           0.9483   -0.0133    0.0045 C.3     1  UNL1       -0.0639
      2 C           2.4777    0.0050   -0.0024 C.3     1  UNL1       -0.0402
      3 C           3.0364    1.3433   -0.5079 C.3     1  UNL1        0.0128
      4 N           4.5011    1.4201   -0.5367 N.am    1  UNL1       -0.2982
      5 C           5.1524    2.5623   -0.9682 C.2     1  UNL1        0.3160
      6 O           4.5563    3.5704   -1.3488 O.2     1  UNL1       -0.2513
      7 N           6.5364    2.4940   -0.9421 N.am    1  UNL1       -0.2182
      8 N           7.3139    3.6247   -1.3694 N.am    1  UNL1       -0.2332
      9 C           8.7009    3.5504   -1.3419 C.2     1  UNL1        0.2291
     10 O           9.2802    2.5338   -0.9570 O.2     1  UNL1       -0.2743
     11 C           9.4594    4.8070   -1.8167 C.3     1  UNL1        0.0258
     12 C          10.9902    4.6197   -1.7462 C.3     1  UNL1       -0.0377
     13 C          11.8013    5.8442   -2.1997 C.3     1  UNL1        0.0109
     14 C          13.3072    5.5903   -2.1183 C.2     1  UNL1        0.1632
     15 O          13.7961    4.5136   -1.7782 O.2     1  UNL1       -0.2921
     16 C          14.2302    6.6861   -2.5170 C.ar    1  UNL1        0.0176
     17 C          14.0105    7.9999   -2.0880 C.ar    1  UNL1       -0.0486
     18 C          14.8970    9.0118   -2.4651 C.ar    1  UNL1       -0.0258
     19 C          15.9966    8.7060   -3.2605 C.ar    1  UNL1        0.1234
     20 F          16.8401    9.6823   -3.6195 F       1  UNL1       -0.2055
     21 C          16.2340    7.4026   -3.6830 C.ar    1  UNL1       -0.0258
     22 C          15.3523    6.3853   -3.3056 C.ar    1  UNL1       -0.0486
     23 H           0.5731   -0.9772    0.3686 H       1  UNL1        0.0230
     24 H           0.5440    0.1406   -1.0016 H       1  UNL1        0.0230
     25 H           0.5440    0.7673    0.6577 H       1  UNL1        0.0230
     26 H           2.8359   -0.8169   -0.6332 H       1  UNL1        0.0278
     27 H           2.8359   -0.1947    1.0143 H       1  UNL1        0.0278
     28 H           2.6702    2.1578    0.1283 H       1  UNL1        0.0462
     29 H           2.6703    1.5339   -1.5236 H       1  UNL1        0.0462
     30 H           5.0372    0.6197   -0.2348 H       1  UNL1        0.1503
     31 H           7.0644    1.6817   -0.6360 H       1  UNL1        0.1744
     32 H           6.7845    4.4381   -1.6777 H       1  UNL1        0.1728
     33 H           9.1711    5.6586   -1.1894 H       1  UNL1        0.0359
     34 H           9.1711    5.0319   -2.8502 H       1  UNL1        0.0359
     35 H          11.2782    3.7564   -2.3595 H       1  UNL1        0.0274
     36 H          11.2773    4.3725   -0.7160 H       1  UNL1        0.0274
     37 H          11.5435    6.6999   -1.5688 H       1  UNL1        0.0345
     38 H          11.5604    6.0853   -3.2417 H       1  UNL1        0.0345
     39 H          13.1769    8.2467   -1.4382 H       1  UNL1        0.0625
     40 H          14.7420   10.0351   -2.1372 H       1  UNL1        0.0646
     41 H          17.1032    7.1889   -4.2982 H       1  UNL1        0.0646
     42 H          15.5399    5.3630   -3.6299 H       1  UNL1        0.0625
@<TRIPOS>BOND
     1     1     2    1
     2     2     3    1
     3     3     4    1
     4     4     5   am
     5     5     6    2
     6     5     7   am
     7     7     8    1
     8     8     9   am
     9     9    10    2
    10     9    11    1
    11    11    12    1
    12    12    13    1
    13    13    14    1
    14    14    15    2
    15    14    16    1
    16    16    17   ar
    17    17    18   ar
    18    18    19   ar
    19    19    20    1
    20    19    21   ar
    21    21    22   ar
    22    16    22   ar
    23     1    23    1
    24     1    24    1
    25     1    25    1
    26     2    26    1
    27     2    27    1
    28     3    28    1
    29     3    29    1
    30     4    30    1
    31     7    31    1
    32     8    32    1
    33    11    33    1
    34    11    34    1
    35    12    35    1
    36    12    36    1
    37    13    37    1
    38    13    38    1
    39    17    39    1
    40    18    40    1
    41    21    41    1
    42    22    42    1
