REMARK  4 active torsions:
REMARK  status: ('A' for Active; 'I' for Inactive)
REMARK       I    between atoms: C_2  and  N_3 
REMARK       I    between atoms: C_2  and  N_12 
REMARK    1  A    between atoms: N_3  and  O_4 
REMARK    2  A    between atoms: O_4  and  C_5 
REMARK    3  A    between atoms: C_5  and  C_6 
REMARK    4  A    between atoms: N_12  and  C_13 
ROOT
ATOM      1  O   UNL d   1       1.109   0.077   0.019  0.00  0.00    -0.252 OA
ATOM      2  C   UNL d   1       2.338   0.167  -0.007  0.00  0.00     0.318 C 
ATOM      3  N   UNL d   1       3.081   0.550  -1.086  0.00  0.00    -0.221 N 
ATOM      4  N   UNL d   1       3.053  -0.183   1.122  0.00  0.00    -0.234 NA
ATOM      5  H   UNL d   1       4.087   0.593  -1.082  0.00  0.00     0.198 HD
ATOM      6  H   UNL d   1       2.411  -0.572   1.804  0.00  0.00     0.133 HD
ENDROOT
BRANCH   3   7
ATOM      7  O   UNL d   1       2.395   1.002  -2.238  0.00  0.00    -0.272 OA
BRANCH   7   8
ATOM      8  C   UNL d   1       3.334   1.516  -3.192  0.00  0.00     0.240 C 
BRANCH   8   9
ATOM      9  C   UNL d   1       2.601   2.120  -4.363  0.00  0.00    -0.032 A 
ATOM     10  C   UNL d   1       2.719   3.487  -4.658  0.00  0.00     0.009 A 
ATOM     11  C   UNL d   1       1.967   4.057  -5.687  0.00  0.00     0.001 A 
ATOM     12  C   UNL d   1       1.156   3.255  -6.487  0.00  0.00     0.000 A 
ATOM     13  C   UNL d   1       1.061   1.889  -6.229  0.00  0.00     0.001 A 
ATOM     14  C   UNL d   1       1.772   1.326  -5.167  0.00  0.00     0.009 A 
ENDBRANCH   8   9
ENDBRANCH   7   8
ENDBRANCH   3   7
BRANCH   4  15
ATOM     15  C   UNL d   1       4.294  -0.923   1.018  0.00  0.00     0.098 C 
ATOM     16  C   UNL d   1       3.923  -2.295   0.400  0.00  0.00     0.029 C 
ATOM     17  C   UNL d   1       4.115  -3.372   1.461  0.00  0.00     0.041 C 
ATOM     18  C   UNL d   1       4.811  -2.660   2.566  0.00  0.00    -0.047 A 
ATOM     19  C   UNL d   1       5.235  -3.243   3.747  0.00  0.00     0.049 A 
ATOM     20  C   UNL d   1       4.918  -1.285   2.341  0.00  0.00    -0.034 A 
ATOM     21  C   UNL d   1       5.764  -2.420   4.729  0.00  0.00     0.117 A 
ATOM     22  F   UNL d   1       6.040  -2.937   5.933  0.00  0.00    -0.206 F 
ATOM     23  C   UNL d   1       5.971  -1.058   4.495  0.00  0.00     0.043 A 
ATOM     24  C   UNL d   1       5.549  -0.478   3.288  0.00  0.00     0.012 A 
ENDBRANCH   4  15
TORSDOF 4
