@<TRIPOS>MOLECULE
*****
 66 70 0 0 0
SMALL
GASTEIGER

@<TRIPOS>ATOM
      1 C           0.9199   -0.0676   -0.0321 C.3     1  UNL1       -0.0239
      2 C           2.4067   -0.0433   -0.0582 C.ar    1  UNL1        0.0209
      3 C           3.2389    1.0608   -0.0416 C.ar    1  UNL1       -0.0406
      4 C           4.5668    0.5989    0.0034 C.ar    1  UNL1       -0.0406
      5 C           4.5314   -0.7811    0.0366 C.ar    1  UNL1        0.0209
      6 C           5.6871   -1.7200    0.0071 C.3     1  UNL1       -0.0239
      7 N           3.2003   -1.1811    0.0037 N.ar    1  UNL1       -0.3177
      8 C           2.7510   -2.5281   -0.0231 C.ar    1  UNL1        0.0466
      9 C           3.1717   -3.4155    0.9691 C.ar    1  UNL1       -0.0371
     10 C           2.8489   -4.7714    0.8665 C.ar    1  UNL1       -0.0461
     11 C           2.0405   -5.2386   -0.1831 C.ar    1  UNL1        0.0562
     12 C           1.6153   -6.6799   -0.1734 C.2     1  UNL1        0.3405
     13 O           1.9856   -7.3917    0.7470 O.2     1  UNL1       -0.2484
     14 N           0.7955   -7.0896   -1.2105 N.am    1  UNL1        0.0006
     15 C           0.3023   -8.2981   -1.1913 C.2     1  UNL1        0.3842
     16 N          -0.5279   -8.6950   -2.2101 N.pl3   1  UNL1       -0.2767
     17 C          -0.9740   -7.8186   -3.2622 C.3     1  UNL1        0.0684
     18 C          -1.8968   -8.5536   -4.2186 C.3     1  UNL1        0.0059
     19 C          -2.4416   -7.7470   -5.3555 C.2     1  UNL1        0.0106
     20 C          -3.1568   -8.3261   -6.3190 C.ar    1  UNL1        0.0510
     21 C          -3.5168   -9.6828   -6.5192 C.ar    1  UNL1       -0.0482
     22 C          -4.0270  -10.0237   -7.7064 C.ar    1  UNL1       -0.0608
     23 C          -4.3796   -9.0133   -8.6927 C.ar    1  UNL1       -0.0555
     24 C          -4.1707   -7.6897   -8.5233 C.ar    1  UNL1        0.0098
     25 C          -3.4907   -7.2708   -7.2798 C.ar    1  UNL1        0.2086
     26 N          -3.0918   -6.1247   -6.8746 N.2     1  UNL1       -0.2369
     27 C          -2.2574   -6.2832   -5.6439 C.3     1  UNL1        0.1661
     28 N           0.4804   -9.2337   -0.2006 N.pl3   1  UNL1       -0.2450
     29 C           0.2268  -10.6167   -0.1661 C.ar    1  UNL1        0.1000
     30 C          -0.1505  -11.2136    1.0488 C.ar    1  UNL1       -0.0205
     31 C          -0.4452  -12.5795    1.1124 C.ar    1  UNL1       -0.0232
     32 C          -0.4376  -13.3349   -0.0527 C.ar    1  UNL1        0.1236
     33 F          -0.8012  -14.6225   -0.0127 F       1  UNL1       -0.2055
     34 C          -0.0697  -12.7693   -1.2644 C.ar    1  UNL1       -0.0232
     35 C           0.2883  -11.4228   -1.3107 C.ar    1  UNL1       -0.0205
     36 C           1.6193   -4.3383   -1.1715 C.ar    1  UNL1       -0.0461
     37 C           1.9716   -2.9833   -1.0923 C.ar    1  UNL1       -0.0371
     38 H           0.5192    0.9514   -0.0098 H       1  UNL1        0.0292
     39 H           0.5569   -0.5887    0.8594 H       1  UNL1        0.0292
     40 H           0.5150   -0.5551   -0.9220 H       1  UNL1        0.0292
     41 H           2.9189    2.0955   -0.0509 H       1  UNL1        0.0635
     42 H           5.4656    1.2035    0.0003 H       1  UNL1        0.0635
     43 H           6.6303   -1.1645   -0.0125 H       1  UNL1        0.0292
     44 H           5.6537   -2.3500   -0.8879 H       1  UNL1        0.0292
     45 H           5.7074   -2.3557    0.8951 H       1  UNL1        0.0292
     46 H           3.7243   -3.0611    1.8375 H       1  UNL1        0.0638
     47 H           3.2330   -5.4605    1.6166 H       1  UNL1        0.0626
     48 H          -1.0205   -9.5707   -2.0825 H       1  UNL1        0.2577
     49 H          -0.1054   -7.4540   -3.8185 H       1  UNL1        0.0658
     50 H          -1.5124   -6.9680   -2.8347 H       1  UNL1        0.0658
     51 H          -2.7509   -8.9657   -3.6616 H       1  UNL1        0.0343
     52 H          -1.3606   -9.4220   -4.6317 H       1  UNL1        0.0343
     53 H          -3.3099  -10.4155   -5.7469 H       1  UNL1        0.0626
     54 H          -4.1850  -11.0738   -7.9370 H       1  UNL1        0.0618
     55 H          -4.8643   -9.3970   -9.5887 H       1  UNL1        0.0620
     56 H          -4.4555   -6.9802   -9.2912 H       1  UNL1        0.0683
     57 H          -3.3274   -5.2584   -7.3581 H       1  UNL1        0.4459
     58 H          -2.6309   -5.6268   -4.8552 H       1  UNL1        0.1077
     59 H          -1.2219   -6.0371   -5.9077 H       1  UNL1        0.1077
     60 H           1.1128   -8.9267    0.5451 H       1  UNL1        0.2646
     61 H          -0.2443  -10.6138    1.9530 H       1  UNL1        0.0653
     62 H          -0.6888  -13.0552    2.0577 H       1  UNL1        0.0647
     63 H          -0.0480  -13.3773   -2.1622 H       1  UNL1        0.0647
     64 H           0.6329  -11.0074   -2.2536 H       1  UNL1        0.0653
     65 H           1.0308   -4.6839   -2.0161 H       1  UNL1        0.0626
     66 H           1.6776   -2.3049   -1.8891 H       1  UNL1        0.0638
@<TRIPOS>UNITY_ATOM_ATTR
26 1
charge 1
@<TRIPOS>BOND
     1     1     2    1
     2     2     3   ar
     3     3     4   ar
     4     4     5   ar
     5     5     6    1
     6     5     7   ar
     7     2     7   ar
     8     7     8    1
     9     8     9   ar
    10     9    10   ar
    11    10    11   ar
    12    11    12    1
    13    12    13    2
    14    12    14    1
    15    14    15    2
    16    15    16    1
    17    16    17    1
    18    17    18    1
    19    18    19    1
    20    19    20    2
    21    20    21   ar
    22    21    22   ar
    23    22    23   ar
    24    23    24   ar
    25    24    25   ar
    26    20    25   ar
    27    25    26    2
    28    26    27    1
    29    19    27    1
    30    15    28    1
    31    28    29    1
    32    29    30   ar
    33    30    31   ar
    34    31    32   ar
    35    32    33    1
    36    32    34   ar
    37    34    35   ar
    38    29    35   ar
    39    11    36   ar
    40    36    37   ar
    41     8    37   ar
    42     1    38    1
    43     1    39    1
    44     1    40    1
    45     3    41    1
    46     4    42    1
    47     6    43    1
    48     6    44    1
    49     6    45    1
    50     9    46    1
    51    10    47    1
    52    16    48    1
    53    17    49    1
    54    17    50    1
    55    18    51    1
    56    18    52    1
    57    21    53    1
    58    22    54    1
    59    23    55    1
    60    24    56    1
    61    26    57    1
    62    27    58    1
    63    27    59    1
    64    28    60    1
    65    30    61    1
    66    31    62    1
    67    34    63    1
    68    35    64    1
    69    36    65    1
    70    37    66    1
