REMARK  3 active torsions:
REMARK  status: ('A' for Active; 'I' for Inactive)
REMARK    1  A    between atoms: C_7  and  C_8 
REMARK       I    between atoms: C_8  and  N_10 
REMARK    2  A    between atoms: N_10  and  C_11 
REMARK    3  A    between atoms: C_11  and  C_12 
ROOT
ATOM      1  C   UNL d   1       0.007  -3.302  -0.007  0.00  0.00     0.252 C 
ATOM      2  O   UNL d   1      -1.075  -3.889  -0.011  0.00  0.00    -0.268 OA
ATOM      3  N   UNL d   1       1.205  -3.988  -0.008  0.00  0.00    -0.351 N 
ATOM      4  H   UNL d   1       2.111  -3.542  -0.008  0.00  0.00     0.163 HD
ENDROOT
BRANCH   3   5
ATOM      5  C   UNL d   1       1.239  -5.435  -0.015  0.00  0.00     0.185 C 
BRANCH   5   6
ATOM      6  C   UNL d   1       2.646  -5.967  -0.013  0.00  0.00     0.085 A 
ATOM      7  N   UNL d   1       3.730  -5.167  -0.017  0.00  0.00    -0.176 NA
ATOM      8  N   UNL d   1       4.764  -6.036  -0.018  0.00  0.00    -0.277 N 
ATOM      9  C   UNL d   1       4.400  -7.355  -0.020  0.00  0.00     0.062 A 
ATOM     10  H   UNL d   1       5.708  -5.666  -0.017  0.00  0.00     0.189 HD
ATOM     11  C   UNL d   1       5.157  -8.534  -0.027  0.00  0.00     0.032 A 
ATOM     12  C   UNL d   1       3.012  -7.346  -0.012  0.00  0.00     0.020 A 
ATOM     13  C   UNL d   1       4.452  -9.743  -0.025  0.00  0.00     0.002 A 
ATOM     14  C   UNL d   1       3.057  -9.764  -0.014  0.00  0.00     0.001 A 
ATOM     15  C   UNL d   1       2.322  -8.572  -0.007  0.00  0.00     0.016 A 
ENDBRANCH   5   6
ENDBRANCH   3   5
BRANCH   1  16
ATOM     16  C   UNL d   1       0.039  -1.802  -0.002  0.00  0.00     0.033 A 
ATOM     17  C   UNL d   1      -1.178  -1.096  -0.004  0.00  0.00     0.023 A 
ATOM     18  C   UNL d   1      -1.208   0.310  -0.004  0.00  0.00    -0.061 A 
ATOM     19  C   UNL d   1       0.001   1.016  -0.007  0.00  0.00     0.013 A 
ATOM     20  C   UNL d   1      -2.526   1.032  -0.005  0.00  0.00     0.048 C 
ATOM     21  C   UNL d   1       1.222   0.331  -0.000  0.00  0.00    -0.061 A 
ATOM     22  C   UNL d   1       2.528   1.071   0.008  0.00  0.00     0.048 C 
ATOM     23  C   UNL d   1       1.233  -1.073   0.004  0.00  0.00     0.023 A 
ENDBRANCH   1  16
TORSDOF 3
