REMARK  12 active torsions:
REMARK  status: ('A' for Active; 'I' for Inactive)
REMARK    1  A    between atoms: C_2  and  C_4 
REMARK    2  A    between atoms: C_2  and  O_3 
REMARK    3  A    between atoms: C_4  and  N_5 
REMARK    4  A    between atoms: C_4  and  C_17 
REMARK    5  A    between atoms: N_5  and  S_6 
REMARK    6  A    between atoms: S_6  and  C_9 
REMARK    7  A    between atoms: C_17  and  O_19 
REMARK    8  A    between atoms: O_19  and  C_20 
REMARK    9  A    between atoms: C_20  and  C_21 
REMARK       I    between atoms: C_21  and  N_23 
REMARK   10  A    between atoms: N_23  and  C_24 
REMARK   11  A    between atoms: C_24  and  C_25 
REMARK   12  A    between atoms: C_25  and  C_26 
ROOT
ATOM      1  C   UNL d   1       3.135   0.018  -1.472  0.00  0.00     0.199 C 
ENDROOT
BRANCH   1   2
ATOM      2  C   UNL d   1       2.659  -0.096   0.011  0.00  0.00     0.142 C 
ATOM      3  C   UNL d   1       3.193  -1.319   0.731  0.00  0.00     0.041 C 
BRANCH   2   4
ATOM      4  O   UNL d   1       1.255  -0.299   0.189  0.00  0.00    -0.394 OA
ATOM      5  H   UNL d   1       0.887  -0.850  -0.519  0.00  0.00     0.210 HD
ENDBRANCH   2   4
ENDBRANCH   1   2
BRANCH   1   6
ATOM      6  N   UNL d   1       2.508   1.222  -2.183  0.00  0.00    -0.199 NA
ATOM      7  H   UNL d   1       2.862   1.262  -3.145  0.00  0.00     0.141 HD
BRANCH   6   8
ATOM      8  S   UNL d   1       0.792   1.254  -2.219  0.00  0.00     0.242 S 
ATOM      9  O   UNL d   1       0.393   0.084  -2.961  0.00  0.00    -0.206 OA
ATOM     10  O   UNL d   1       0.241   1.580  -0.923  0.00  0.00    -0.206 OA
BRANCH   8  11
ATOM     11  C   UNL d   1       0.395   2.694  -3.144  0.00  0.00     0.076 A 
ATOM     12  C   UNL d   1      -0.554   2.645  -4.162  0.00  0.00     0.026 A 
ATOM     13  C   UNL d   1      -0.944   3.838  -4.771  0.00  0.00     0.027 A 
ATOM     14  C   UNL d   1      -0.397   5.059  -4.350  0.00  0.00     0.055 A 
ATOM     15 CL   UNL d   1      -0.912   6.493  -5.162  0.00  0.00    -0.083 Cl
ATOM     16  C   UNL d   1       0.531   5.093  -3.301  0.00  0.00     0.057 A 
ATOM     17 CL   UNL d   1       1.253   6.553  -2.733  0.00  0.00    -0.083 Cl
ATOM     18  C   UNL d   1       0.912   3.908  -2.683  0.00  0.00     0.050 A 
ENDBRANCH   8  11
ENDBRANCH   6   8
ENDBRANCH   1   6
BRANCH   1  19
ATOM     19  C   UNL d   1       4.697   0.100  -1.484  0.00  0.00     0.280 C 
ATOM     20  O   UNL d   1       5.400   0.178  -0.482  0.00  0.00    -0.263 OA
BRANCH  19  21
ATOM     21  O   UNL d   1       5.244   0.030  -2.735  0.00  0.00    -0.311 OA
BRANCH  21  22
ATOM     22  C   UNL d   1       6.702   0.021  -2.762  0.00  0.00     0.281 C 
BRANCH  22  23
ATOM     23  C   UNL d   1       7.221   0.018  -4.213  0.00  0.00     0.241 C 
ATOM     24  O   UNL d   1       6.451   0.017  -5.172  0.00  0.00    -0.271 OA
ATOM     25  N   UNL d   1       8.600   0.022  -4.386  0.00  0.00    -0.359 N 
ATOM     26  H   UNL d   1       9.231   0.011  -3.595  0.00  0.00     0.162 HD
BRANCH  25  27
ATOM     27  C   UNL d   1       9.163   0.024  -5.736  0.00  0.00     0.127 C 
BRANCH  27  28
ATOM     28  C   UNL d   1      10.696   0.023  -5.775  0.00  0.00     0.053 C 
BRANCH  28  29
ATOM     29  C   UNL d   1      11.212  -0.001  -7.197  0.00  0.00    -0.082 C 
ATOM     30  C   UNL d   1      11.375  -1.165  -7.852  0.00  0.00    -0.024 C 
ATOM     31  C   UNL d   1      11.870  -1.263  -9.264  0.00  0.00     0.027 C 
ATOM     32  C   UNL d   1      12.538   0.024  -9.745  0.00  0.00     0.004 C 
ATOM     33  C   UNL d   1      11.711   1.246  -9.361  0.00  0.00     0.005 C 
ATOM     34  C   UNL d   1      11.523   1.330  -7.843  0.00  0.00     0.034 C 
ENDBRANCH  28  29
ENDBRANCH  27  28
ENDBRANCH  25  27
ENDBRANCH  22  23
ENDBRANCH  21  22
ENDBRANCH  19  21
ENDBRANCH   1  19
TORSDOF 12
