@<TRIPOS>MOLECULE
*****
 31 32 0 0 0
SMALL
GASTEIGER

@<TRIPOS>ATOM
      1 O           0.9986    0.1119    0.0510 O.2     1  UNL1       -0.2513
      2 C           2.2254   -0.0221   -0.0315 C.2     1  UNL1        0.3161
      3 N           2.8448   -0.8545   -0.9237 N.am    1  UNL1       -0.2203
      4 N           2.2039   -1.4001   -2.0143 N.pl3   1  UNL1       -0.2633
      5 C           2.9637   -2.0936   -2.9678 C.ar    1  UNL1        0.0447
      6 C           2.6306   -1.9764   -4.3202 C.ar    1  UNL1       -0.0359
      7 C           3.3144   -2.7011   -5.3116 C.ar    1  UNL1       -0.0178
      8 C           4.4194   -3.4921   -4.9901 C.ar    1  UNL1        0.1301
      9 O           5.0414   -4.0943   -6.0490 O.3     1  UNL1       -0.4057
     10 C           6.2374   -4.8168   -5.7868 C.3     1  UNL1        0.5752
     11 F           7.1634   -4.0404   -5.1815 F       1  UNL1       -0.1328
     12 F           5.9865   -5.8977   -5.0171 F       1  UNL1       -0.1328
     13 F           6.7614   -5.2492   -6.9563 F       1  UNL1       -0.1328
     14 C           4.7941   -3.5829   -3.6518 C.ar    1  UNL1       -0.0178
     15 C           4.0882   -2.8748   -2.6576 C.ar    1  UNL1       -0.0359
     16 N           3.0480    0.6614    0.8349 N.am    1  UNL1       -0.2954
     17 C           4.4794    0.7326    0.9490 C.3     1  UNL1        0.0247
     18 C           5.5127    0.1297    0.0282 C.3     1  UNL1       -0.0328
     19 C           5.2740    1.6089    0.0184 C.3     1  UNL1       -0.0328
     20 H           3.8292   -0.7893   -1.0299 H       1  UNL1        0.1743
     21 H           1.1939   -1.3043   -2.0860 H       1  UNL1        0.1700
     22 H           1.8355   -1.2974   -4.6185 H       1  UNL1        0.0638
     23 H           2.9669   -2.6425   -6.3411 H       1  UNL1        0.0655
     24 H           5.6187   -4.2154   -3.3335 H       1  UNL1        0.0655
     25 H           4.4101   -2.9983   -1.6260 H       1  UNL1        0.0638
     26 H           2.5132    1.1889    1.5217 H       1  UNL1        0.1506
     27 H           4.7735    0.8126    1.9989 H       1  UNL1        0.0499
     28 H           5.4139   -0.2848   -0.9635 H       1  UNL1        0.0284
     29 H           6.3578   -0.3357    0.5223 H       1  UNL1        0.0284
     30 H           4.7238    2.0458   -0.8111 H       1  UNL1        0.0284
     31 H           6.1108    2.2108    0.3460 H       1  UNL1        0.0284
@<TRIPOS>BOND
     1     1     2    2
     2     2     3   am
     3     3     4    1
     4     4     5    1
     5     5     6   ar
     6     6     7   ar
     7     7     8   ar
     8     8     9    1
     9     9    10    1
    10    10    11    1
    11    10    12    1
    12    10    13    1
    13     8    14   ar
    14    14    15   ar
    15     5    15   ar
    16     2    16   am
    17    16    17    1
    18    17    18    1
    19    18    19    1
    20    17    19    1
    21     3    20    1
    22     4    21    1
    23     6    22    1
    24     7    23    1
    25    14    24    1
    26    15    25    1
    27    16    26    1
    28    17    27    1
    29    18    28    1
    30    18    29    1
    31    19    30    1
    32    19    31    1
