REMARK  5 active torsions:
REMARK  status: ('A' for Active; 'I' for Inactive)
REMARK    1  A    between atoms: O_2  and  C_3 
REMARK    2  A    between atoms: C_5  and  C_6 
REMARK    3  A    between atoms: C_19  and  S_20 
REMARK    4  A    between atoms: C_27  and  O_28 
REMARK    5  A    between atoms: C_30  and  O_31 
ROOT
ATOM      1  C   UNL d   1       6.748   2.275  -0.069  0.00  0.00     0.100 A 
ATOM      2  C   UNL d   1       7.357   2.946   1.144  0.00  0.00     0.024 A 
ATOM      3  C   UNL d   1       8.179   4.009   1.011  0.00  0.00     0.022 A 
ATOM      4  C   UNL d   1       8.705   4.771   2.204  0.00  0.00     0.067 C 
ATOM      5  C   UNL d   1       7.822   4.578   3.457  0.00  0.00    -0.036 C 
ATOM      6  C   UNL d   1       6.446   5.255   3.263  0.00  0.00     0.015 C 
ATOM      7  C   UNL d   1       8.503   5.206   4.676  0.00  0.00     0.015 C 
ATOM      8  C   UNL d   1       7.648   3.072   3.692  0.00  0.00     0.092 C 
ATOM      9  C   UNL d   1       6.974   2.442   2.501  0.00  0.00     0.159 C 
ATOM     10  O   UNL d   1       6.162   1.534   2.653  0.00  0.00    -0.293 OA
ATOM     11  N   UNL d   1       8.510   4.473  -0.248  0.00  0.00    -0.343 N 
ATOM     12  C   UNL d   1       8.097   3.914  -1.446  0.00  0.00     0.143 A 
ATOM     13  N   UNL d   1       8.521   4.454  -2.643  0.00  0.00    -0.206 NA
ATOM     14  C   UNL d   1       8.097   3.898  -3.726  0.00  0.00     0.170 A 
ATOM     15  N   UNL d   1       7.271   2.819  -3.760  0.00  0.00    -0.302 N 
ATOM     16  C   UNL d   1       6.840   2.214  -2.629  0.00  0.00     0.258 A 
ATOM     17  O   UNL d   1       6.148   1.196  -2.668  0.00  0.00    -0.267 OA
ATOM     18  C   UNL d   1       7.272   2.845  -1.375  0.00  0.00     0.069 A 
ATOM     19  H   UNL d   1       9.106   5.289  -0.342  0.00  0.00     0.167 HD
ATOM     20  H   UNL d   1       6.986   2.415  -4.638  0.00  0.00     0.171 HD
ENDROOT
BRANCH   1  21
ATOM     21  C   UNL d   1       5.225   2.365  -0.027  0.00  0.00    -0.039 A 
ATOM     22  C   UNL d   1       4.472   1.187   0.004  0.00  0.00     0.048 A 
ATOM     23  C   UNL d   1       3.080   1.232   0.022  0.00  0.00     0.104 A 
ATOM     24  C   UNL d   1       2.418   2.478   0.032  0.00  0.00     0.133 A 
ATOM     25  C   UNL d   1       3.151   3.676   0.008  0.00  0.00     0.104 A 
ATOM     26  C   UNL d   1       4.553   3.601  -0.028  0.00  0.00     0.048 A 
BRANCH  23  27
ATOM     27  O   UNL d   1       2.494  -0.014   0.023  0.00  0.00    -0.353 OA
ATOM     28  C   UNL d   1       1.072  -0.062   0.009  0.00  0.00     0.210 C 
ENDBRANCH  23  27
BRANCH  24  29
ATOM     29  O   UNL d   1       1.057   2.402   0.054  0.00  0.00    -0.356 OA
ATOM     30  H   UNL d   1       0.575   3.220   0.125  0.00  0.00     0.218 HD
ENDBRANCH  24  29
BRANCH  25  31
ATOM     31  O   UNL d   1       2.698   4.971   0.008  0.00  0.00    -0.353 OA
ATOM     32  C   UNL d   1       1.303   5.198   0.039  0.00  0.00     0.210 C 
ENDBRANCH  25  31
ENDBRANCH   1  21
BRANCH  14  33
ATOM     33  S   UNL d   1       8.514   4.428  -5.330  0.00  0.00    -0.096 SA
ATOM     34  C   UNL d   1       9.588   5.848  -5.031  0.00  0.00     0.099 C 
ENDBRANCH  14  33
TORSDOF 5
