REMARK  3 active torsions:
REMARK  status: ('A' for Active; 'I' for Inactive)
REMARK    1  A    between atoms: N_2  and  C_4 
REMARK    2  A    between atoms: C_13  and  C_14 
REMARK    3  A    between atoms: C_16  and  C_17 
ROOT
ATOM      1  C   UNL d   1       2.852  -0.719   1.018  0.00  0.00     0.146 A 
ATOM      2  C   UNL d   1       2.438  -2.055   1.147  0.00  0.00     0.041 A 
ATOM      3  C   UNL d   1       3.025  -2.862   2.117  0.00  0.00     0.020 A 
ATOM      4  C   UNL d   1       4.014  -2.322   2.923  0.00  0.00     0.090 A 
ATOM      5  N   UNL d   1       4.397  -1.054   2.739  0.00  0.00    -0.350 N 
ATOM      6  C   UNL d   1       3.874  -0.211   1.823  0.00  0.00     0.136 A 
ATOM      7  N   UNL d   1       4.534   0.984   1.814  0.00  0.00    -0.365 N 
ATOM      8  C   UNL d   1       5.772   0.936   1.014  0.00  0.00     0.125 C 
ATOM      9  C   UNL d   1       6.777   1.870   1.675  0.00  0.00     0.030 C 
ATOM     10  C   UNL d   1       6.234   3.311   1.777  0.00  0.00     0.042 C 
ATOM     11  C   UNL d   1       4.847   3.308   2.468  0.00  0.00     0.030 C 
ATOM     12  C   UNL d   1       3.868   2.303   1.831  0.00  0.00     0.125 C 
ATOM     13  H   UNL d   1       5.136  -0.653   3.316  0.00  0.00     0.166 HD
ENDROOT
BRANCH  10  14
ATOM     14  C   UNL d   1       6.192   3.973   0.419  0.00  0.00     0.061 A 
ATOM     15  C   UNL d   1       5.403   3.602  -0.685  0.00  0.00     0.063 A 
ATOM     16  C   UNL d   1       5.720   4.455  -1.699  0.00  0.00     0.086 A 
ATOM     17  N   UNL d   1       6.666   5.290  -1.190  0.00  0.00    -0.275 N 
ATOM     18  N   UNL d   1       6.965   5.024   0.112  0.00  0.00    -0.179 NA
ATOM     19  H   UNL d   1       7.116   6.076  -1.648  0.00  0.00     0.189 HD
BRANCH  16  20
ATOM     20  C   UNL d   1       5.134   4.469  -2.990  0.00  0.00     0.103 A 
ATOM     21  C   UNL d   1       3.779   4.519  -3.271  0.00  0.00     0.041 A 
ATOM     22  C   UNL d   1       3.640   4.391  -4.668  0.00  0.00     0.027 A 
ATOM     23  C   UNL d   1       4.914   4.227  -5.157  0.00  0.00     0.142 A 
ATOM     24  O   UNL d   1       5.826   4.282  -4.151  0.00  0.00    -0.320 OA
ENDBRANCH  16  20
ENDBRANCH  10  14
BRANCH   1  25
ATOM     25  N   UNL d   1       2.193   0.100   0.031  0.00  0.00    -0.112 N 
ATOM     26  O   UNL d   1       0.963   0.088   0.040  0.00  0.00    -0.532 OA
ATOM     27  O   UNL d   1       2.910   0.741  -0.751  0.00  0.00    -0.532 OA
ENDBRANCH   1  25
TORSDOF 3
