REMARK  7 active torsions:
REMARK  status: ('A' for Active; 'I' for Inactive)
REMARK    1  A    between atoms: C_7  and  N_8 
REMARK       I    between atoms: N_8  and  C_9 
REMARK       I    between atoms: C_9  and  N_11 
REMARK    2  A    between atoms: N_11  and  C_12 
REMARK    3  A    between atoms: C_15  and  N_16 
REMARK    4  A    between atoms: C_22  and  C_23 
REMARK       I    between atoms: C_23  and  N_25 
REMARK    5  A    between atoms: N_25  and  C_26 
REMARK    6  A    between atoms: C_26  and  C_27 
REMARK    7  A    between atoms: C_27  and  C_28 
ROOT
ATOM      1  C   UNL d   1       4.623   3.912  -0.098  0.00  0.00     0.037 A 
ATOM      2  C   UNL d   1       5.357   3.027  -0.913  0.00  0.00     0.032 A 
ATOM      3  C   UNL d   1       6.756   3.004  -0.918  0.00  0.00     0.032 A 
ATOM      4  C   UNL d   1       7.507   3.869  -0.115  0.00  0.00     0.046 A 
ATOM      5  C   UNL d   1       6.790   4.716   0.788  0.00  0.00     0.060 A 
ATOM      6  C   UNL d   1       5.354   4.727   0.774  0.00  0.00     0.049 A 
ENDROOT
BRANCH   1   7
ATOM      7  N   UNL d   1       3.157   3.891  -0.118  0.00  0.00    -0.309 N 
ATOM      8  C   UNL d   1       2.565   2.651   0.019  0.00  0.00     0.325 C 
ATOM      9  N   UNL d   1       1.191   2.500  -0.030  0.00  0.00    -0.308 N 
ATOM     10  O   UNL d   1       3.371   1.729   0.201  0.00  0.00    -0.247 OA
ATOM     11  H   UNL d   1       0.625   3.339  -0.039  0.00  0.00     0.170 HD
ATOM     12  H   UNL d   1       2.675   4.686   0.278  0.00  0.00     0.170 HD
BRANCH   9  13
ATOM     13  C   UNL d   1       0.437   1.233  -0.004  0.00  0.00     0.042 A 
ATOM     14  C   UNL d   1      -0.979   1.273  -0.003  0.00  0.00     0.030 A 
ATOM     15  C   UNL d   1      -1.767   0.090  -0.006  0.00  0.00     0.002 A 
ATOM     16  C   UNL d   1      -1.174  -1.165   0.001  0.00  0.00     0.001 A 
ATOM     17  C   UNL d   1       0.200  -1.237   0.004  0.00  0.00     0.009 A 
ATOM     18  C   UNL d   1       0.998  -0.073  -0.005  0.00  0.00    -0.035 A 
ATOM     19  C   UNL d   1       2.453  -0.391  -0.014  0.00  0.00     0.050 C 
ENDBRANCH   9  13
ENDBRANCH   1   7
BRANCH   5  20
ATOM     20  C   UNL d   1       7.452   5.646   1.806  0.00  0.00     0.254 C 
ATOM     21  O   UNL d   1       6.785   6.211   2.663  0.00  0.00    -0.268 OA
ATOM     22  N   UNL d   1       8.821   5.823   1.712  0.00  0.00    -0.356 N 
ATOM     23  H   UNL d   1       9.239   5.436   0.876  0.00  0.00     0.162 HD
BRANCH  22  24
ATOM     24  C   UNL d   1       9.671   6.513   2.686  0.00  0.00     0.127 C 
BRANCH  24  25
ATOM     25  C   UNL d   1      11.200   6.220   2.560  0.00  0.00     0.058 C 
BRANCH  25  26
ATOM     26  C   UNL d   1      11.673   4.798   2.845  0.00  0.00    -0.057 A 
ATOM     27  C   UNL d   1      12.954   4.367   2.447  0.00  0.00     0.007 A 
ATOM     28  C   UNL d   1      13.296   3.006   2.478  0.00  0.00     0.001 A 
ATOM     29  C   UNL d   1      12.373   2.062   2.919  0.00  0.00     0.000 A 
ATOM     30  C   UNL d   1      11.118   2.480   3.360  0.00  0.00     0.001 A 
ATOM     31  C   UNL d   1      10.793   3.840   3.372  0.00  0.00     0.007 A 
ENDBRANCH  25  26
ENDBRANCH  24  25
ENDBRANCH  22  24
ENDBRANCH   5  20
BRANCH   4  32
ATOM     32  N   UNL d   1       8.885   3.785  -0.214  0.00  0.00    -0.380 N 
ATOM     33  C   UNL d   1       9.676   4.090  -1.405  0.00  0.00     0.123 C 
ATOM     34  C   UNL d   1      10.552   2.890  -1.810  0.00  0.00     0.020 C 
ATOM     35  C   UNL d   1      11.381   2.360  -0.656  0.00  0.00     0.003 C 
ATOM     36  C   UNL d   1      10.402   1.940   0.418  0.00  0.00     0.020 C 
ATOM     37  C   UNL d   1       9.615   3.153   0.857  0.00  0.00     0.123 C 
ENDBRANCH   4  32
TORSDOF 7
