@<TRIPOS>MOLECULE
*****
 43 43 0 0 0
SMALL
GASTEIGER

@<TRIPOS>ATOM
      1 C           0.9322   -0.0718    0.0055 C.3     1  UNL1       -0.0653
      2 C           2.4525   -0.0781    0.0023 C.3     1  UNL1       -0.0559
      3 C           3.0010   -1.3687   -0.6047 C.3     1  UNL1       -0.0519
      4 C           4.5374   -1.3747   -0.6115 C.3     1  UNL1       -0.0374
      5 C           5.0750   -2.6674   -1.2226 C.3     1  UNL1        0.0107
      6 N           6.5472   -2.7606   -1.2804 N.am    1  UNL1       -0.3254
      7 C           7.2256   -3.9004   -1.7024 C.2     1  UNL1        0.1468
      8 S           6.4247   -5.2647   -2.2800 S.2     1  UNL1       -0.0174
      9 N           8.6191   -3.8276   -1.5690 N.am    1  UNL1       -0.2456
     10 N           9.4428   -5.0149   -1.7150 N.am    1  UNL1       -0.2310
     11 C          10.7934   -4.9018   -2.0602 C.2     1  UNL1        0.2639
     12 O          11.4498   -3.8913   -1.8475 O.2     1  UNL1       -0.2685
     13 C          11.4720   -6.0946   -2.7070 C.ar    1  UNL1        0.0861
     14 C          12.6387   -6.5586   -2.0475 C.ar    1  UNL1        0.0313
     15 C          13.4675   -7.5409   -2.6331 C.ar    1  UNL1        0.2741
     16 N          14.7885   -7.8487   -2.0572 N.pl3   1  UNL1        0.0796
     17 O          15.1218   -7.2443   -1.0288 O.2     1  UNL1        0.0414
     18 O          15.5020   -8.6696   -2.6519 O.co2   1  UNL1       -0.5760
     19 C          13.0986   -8.1603   -3.8248 C.ar    1  UNL1        0.0191
     20 C          11.9646   -7.6995   -4.4886 C.ar    1  UNL1       -0.0128
     21 C          11.1706   -6.6447   -3.9756 C.ar    1  UNL1        0.1327
     22 O          10.2343   -6.2807   -4.9096 O.3     1  UNL1       -0.4943
     23 C           9.3112   -5.2721   -4.5714 C.3     1  UNL1        0.0788
     24 H           0.5564    0.8585    0.4423 H       1  UNL1        0.0230
     25 H           0.5393   -0.9077    0.5932 H       1  UNL1        0.0230
     26 H           0.5392   -0.1535   -1.0130 H       1  UNL1        0.0230
     27 H           2.8160    0.0334    1.0303 H       1  UNL1        0.0263
     28 H           2.8157    0.7845   -0.5681 H       1  UNL1        0.0263
     29 H           2.6226   -1.4787   -1.6291 H       1  UNL1        0.0266
     30 H           2.6251   -2.2277   -0.0338 H       1  UNL1        0.0266
     31 H           4.9057   -1.2675    0.4154 H       1  UNL1        0.0280
     32 H           4.9038   -0.5131   -1.1804 H       1  UNL1        0.0280
     33 H           4.6924   -2.7707   -2.2451 H       1  UNL1        0.0462
     34 H           4.7023   -3.5170   -0.6370 H       1  UNL1        0.0462
     35 H           7.0735   -1.9918   -0.8865 H       1  UNL1        0.1478
     36 H           9.1167   -2.9746   -1.3205 H       1  UNL1        0.1718
     37 H           8.9187   -5.8668   -1.8976 H       1  UNL1        0.1731
     38 H          12.9208   -6.1170   -1.0921 H       1  UNL1        0.0694
     39 H          13.6960   -8.9557   -4.2701 H       1  UNL1        0.0686
     40 H          11.7226   -8.1324   -5.4612 H       1  UNL1        0.0656
     41 H           8.6236   -5.0686   -5.3931 H       1  UNL1        0.0660
     42 H           9.8146   -4.3367   -4.3124 H       1  UNL1        0.0660
     43 H           8.6866   -5.6767   -3.7907 H       1  UNL1        0.0660
@<TRIPOS>UNITY_ATOM_ATTR
16 1
charge 1
18 1
charge -1
@<TRIPOS>BOND
     1     1     2    1
     2     2     3    1
     3     3     4    1
     4     4     5    1
     5     5     6    1
     6     6     7    1
     7     7     8    2
     8     7     9    1
     9     9    10    1
    10    10    11   am
    11    11    12    2
    12    11    13    1
    13    13    14   ar
    14    14    15   ar
    15    15    16    1
    16    16    17    2
    17    16    18    1
    18    15    19   ar
    19    19    20   ar
    20    20    21   ar
    21    13    21   ar
    22    21    22    1
    23    22    23    1
    24     1    24    1
    25     1    25    1
    26     1    26    1
    27     2    27    1
    28     2    28    1
    29     3    29    1
    30     3    30    1
    31     4    31    1
    32     4    32    1
    33     5    33    1
    34     5    34    1
    35     6    35    1
    36     9    36    1
    37    10    37    1
    38    14    38    1
    39    19    39    1
    40    20    40    1
    41    23    41    1
    42    23    42    1
    43    23    43    1
