REMARK  7 active torsions:
REMARK  status: ('A' for Active; 'I' for Inactive)
REMARK    1  A    between atoms: C_3  and  C_4 
REMARK       I    between atoms: C_4  and  N_6 
REMARK    2  A    between atoms: N_6  and  N_7 
REMARK    3  A    between atoms: N_13  and  C_14 
REMARK    4  A    between atoms: C_14  and  C_15 
REMARK    5  A    between atoms: N_20  and  C_21 
REMARK    6  A    between atoms: C_21  and  C_22 
REMARK       I    between atoms: C_22  and  N_24 
REMARK    7  A    between atoms: N_24  and  C_25 
ROOT
ATOM      1  C   UNL d   1       1.313   0.004   0.065  0.00  0.00     0.051 C 
ATOM      2  C   UNL d   1       2.833  -0.078   0.049  0.00  0.00    -0.021 A 
ATOM      3  C   UNL d   1       3.593  -1.284   0.053  0.00  0.00     0.083 A 
ATOM      4  S   UNL d   1       5.267  -0.939  -0.000  0.00  0.00    -0.065 SA
ATOM      5  C   UNL d   1       5.051   0.705  -0.034  0.00  0.00     0.098 A 
ATOM      6  C   UNL d   1       3.745   1.126   0.017  0.00  0.00     0.074 A 
ATOM      7  C   UNL d   1       3.544   2.612   0.018  0.00  0.00     0.265 C 
ATOM      8  O   UNL d   1       2.429   3.124   0.050  0.00  0.00    -0.267 OA
ATOM      9  N   UNL d   1       4.751   3.368   0.034  0.00  0.00    -0.265 N 
ATOM     10  C   UNL d   1       5.924   2.765   0.470  0.00  0.00     0.333 C 
ATOM     11  O   UNL d   1       6.702   3.295   1.270  0.00  0.00    -0.246 OA
ATOM     12  N   UNL d   1       6.190   1.497  -0.010  0.00  0.00    -0.283 N 
ENDROOT
BRANCH  12  13
ATOM     13  C   UNL d   1       7.580   0.956   0.081  0.00  0.00     0.237 C 
BRANCH  13  14
ATOM     14  C   UNL d   1       8.754   1.958  -0.038  0.00  0.00     0.240 C 
ATOM     15  O   UNL d   1       8.591   3.114  -0.422  0.00  0.00    -0.271 OA
ATOM     16  N   UNL d   1      10.046   1.493   0.194  0.00  0.00    -0.326 N 
ATOM     17  H   UNL d   1      10.265   0.556  -0.121  0.00  0.00     0.169 HD
BRANCH  16  18
ATOM     18  C   UNL d   1      11.087   2.468   0.149  0.00  0.00     0.034 A 
ATOM     19  C   UNL d   1      12.158   2.340  -0.734  0.00  0.00     0.031 A 
ATOM     20  C   UNL d   1      13.124   3.356  -0.808  0.00  0.00     0.021 A 
ATOM     21  C   UNL d   1      13.030   4.482   0.014  0.00  0.00     0.011 A 
ATOM     22 BR   UNL d   1      14.367   5.817  -0.055  0.00  0.00    -0.051 Br
ATOM     23  C   UNL d   1      11.960   4.625   0.888  0.00  0.00     0.021 A 
ATOM     24  C   UNL d   1      10.990   3.623   0.947  0.00  0.00     0.031 A 
ENDBRANCH  16  18
ENDBRANCH  13  14
ENDBRANCH  12  13
BRANCH   9  25
ATOM     25  C   UNL d   1       4.727   4.866   0.051  0.00  0.00     0.141 C 
BRANCH  25  26
ATOM     26  C   UNL d   1       6.118   5.596  -0.034  0.00  0.00    -0.004 C 
ATOM     27  C   UNL d   1       6.888   5.211  -1.300  0.00  0.00     0.011 C 
ATOM     28  C   UNL d   1       6.037   7.120   0.032  0.00  0.00     0.011 C 
ENDBRANCH  25  26
ENDBRANCH   9  25
BRANCH   3  29
ATOM     29  C   UNL d   1       3.288  -2.745   0.076  0.00  0.00     0.273 C 
ATOM     30  O   UNL d   1       2.154  -3.224   0.066  0.00  0.00    -0.266 OA
ATOM     31  N   UNL d   1       4.426  -3.608   0.117  0.00  0.00    -0.289 N 
ATOM     32  H   UNL d   1       5.357  -3.198   0.041  0.00  0.00     0.183 HD
BRANCH  31  33
ATOM     33  N   UNL d   1       4.330  -5.019   0.017  0.00  0.00    -0.247 NA
ATOM     34  H   UNL d   1       3.335  -5.266   0.039  0.00  0.00     0.143 HD
ATOM     35  H   UNL d   1       4.732  -5.444   0.859  0.00  0.00     0.143 HD
ENDBRANCH  31  33
ENDBRANCH   3  29
TORSDOF 7
