@<TRIPOS>MOLECULE
*****
 60 64 0 0 0
SMALL
GASTEIGER

@<TRIPOS>ATOM
      1 O         -11.5271   -3.5110   -9.4636 O.2     1  UNL1       -0.2717
      2 C         -11.3365   -4.6254   -8.9846 C.2     1  UNL1        0.2549
      3 C         -11.6377   -5.9234   -9.7308 C.3     1  UNL1        0.1656
      4 O         -11.8365   -7.1139   -8.9843 O.3     1  UNL1       -0.4809
      5 C         -11.0914   -7.1776   -7.8408 C.ar    1  UNL1        0.1423
      6 C         -10.9442   -8.4379   -7.2720 C.ar    1  UNL1       -0.0174
      7 C         -10.2355   -8.5808   -6.0824 C.ar    1  UNL1       -0.0476
      8 C          -9.6722   -7.4613   -5.4549 C.ar    1  UNL1        0.0228
      9 C          -8.9124   -7.6900   -4.1967 C.2     1  UNL1        0.2004
     10 O          -8.8068   -8.8372   -3.7656 O.2     1  UNL1       -0.2884
     11 C          -8.2809   -6.4953   -3.5244 C.3     1  UNL1        0.1548
     12 O          -7.5333   -6.9441   -2.4008 O.3     1  UNL1       -0.4553
     13 C          -6.9658   -5.9216   -1.7238 C.2     1  UNL1        0.3284
     14 O          -7.0750   -4.7692   -2.1403 O.2     1  UNL1       -0.2487
     15 C          -6.2593   -6.3663   -0.4019 C.3     1  UNL1        0.1247
     16 C          -4.9452   -5.5677   -0.2436 C.3     1  UNL1        0.0032
     17 C          -5.1293   -4.0730   -0.1182 C.ar    1  UNL1       -0.0201
     18 C          -6.3208   -3.3784    0.0031 C.ar    1  UNL1        0.0060
     19 N          -6.0718   -2.0422   -0.1033 N.ar    1  UNL1       -0.3604
     20 C          -4.7200   -1.8263   -0.1616 C.ar    1  UNL1        0.0467
     21 C          -4.0114   -0.6243   -0.2253 C.ar    1  UNL1       -0.0378
     22 C          -2.6194   -0.7057   -0.2894 C.ar    1  UNL1       -0.0598
     23 C          -1.9692   -1.9384   -0.2929 C.ar    1  UNL1       -0.0611
     24 C          -2.6965   -3.1319   -0.2375 C.ar    1  UNL1       -0.0523
     25 C          -4.1011   -3.0789   -0.1663 C.ar    1  UNL1        0.0029
     26 N          -6.0328   -7.8289   -0.3308 N.am    1  UNL1       -0.2981
     27 C          -7.1108   -8.6989   -0.2887 C.2     1  UNL1        0.2447
     28 O          -8.2782   -8.3241   -0.1927 O.2     1  UNL1       -0.2702
     29 C          -6.8150  -10.1487   -0.4024 C.ar    1  UNL1        0.0369
     30 C          -5.8570  -10.7433    0.4255 C.ar    1  UNL1       -0.0469
     31 C          -5.6469  -12.1244    0.3613 C.ar    1  UNL1       -0.0257
     32 C          -6.3891  -12.8995   -0.5262 C.ar    1  UNL1        0.1234
     33 F          -6.1852  -14.2227   -0.5741 F       1  UNL1       -0.2055
     34 C          -7.3426  -12.3208   -1.3553 C.ar    1  UNL1       -0.0257
     35 C          -7.5609  -10.9408   -1.2907 C.ar    1  UNL1       -0.0469
     36 C          -9.8306   -6.1885   -6.0218 C.ar    1  UNL1       -0.0263
     37 C         -10.5461   -6.0544   -7.2119 C.ar    1  UNL1        0.0764
     38 N         -10.7432   -4.7867   -7.7613 N.am    1  UNL1       -0.2798
     39 H         -10.8160   -6.0988  -10.4355 H       1  UNL1        0.0795
     40 H         -12.5501   -5.7599  -10.3130 H       1  UNL1        0.0795
     41 H         -11.3812   -9.3093   -7.7516 H       1  UNL1        0.0655
     42 H         -10.1262   -9.5719   -5.6435 H       1  UNL1        0.0626
     43 H          -9.0740   -5.8027   -3.2084 H       1  UNL1        0.0782
     44 H          -7.5917   -6.0153   -4.2282 H       1  UNL1        0.0782
     45 H          -6.9254   -6.1313    0.4391 H       1  UNL1        0.0618
     46 H          -4.3931   -5.9149    0.6402 H       1  UNL1        0.0337
     47 H          -4.2974   -5.7766   -1.1080 H       1  UNL1        0.0337
     48 H          -7.3476   -3.7193    0.0239 H       1  UNL1        0.0810
     49 H          -6.7828   -1.3255   -0.1466 H       1  UNL1        0.1653
     50 H          -4.5198    0.3343   -0.2220 H       1  UNL1        0.0638
     51 H          -2.0361    0.2099   -0.3385 H       1  UNL1        0.0618
     52 H          -0.8846   -1.9768   -0.3406 H       1  UNL1        0.0618
     53 H          -2.1818   -4.0871   -0.2405 H       1  UNL1        0.0624
     54 H          -5.0937   -8.1953   -0.4198 H       1  UNL1        0.1498
     55 H          -5.3083  -10.1489    1.1490 H       1  UNL1        0.0626
     56 H          -4.9222  -12.6062    1.0099 H       1  UNL1        0.0646
     57 H          -7.9152  -12.9447   -2.0356 H       1  UNL1        0.0646
     58 H          -8.3148  -10.4867   -1.9319 H       1  UNL1        0.0626
     59 H          -9.4023   -5.3038   -5.5607 H       1  UNL1        0.0644
     60 H         -10.4671   -3.9438   -7.2746 H       1  UNL1        0.1550
@<TRIPOS>BOND
     1     1     2    2
     2     2     3    1
     3     3     4    1
     4     4     5    1
     5     5     6   ar
     6     6     7   ar
     7     7     8   ar
     8     8     9    1
     9     9    10    2
    10     9    11    1
    11    11    12    1
    12    12    13    1
    13    13    14    2
    14    16    17    1
    15    17    18   ar
    16    18    19   ar
    17    19    20   ar
    18    20    21   ar
    19    21    22   ar
    20    22    23   ar
    21    23    24   ar
    22    24    25   ar
    23    17    25   ar
    24    20    25   ar
    25    15    26    1
    26    26    27   am
    27    27    28    2
    28    27    29    1
    29    29    30   ar
    30    30    31   ar
    31    31    32   ar
    32    32    33    1
    33    32    34   ar
    34    34    35   ar
    35    29    35   ar
    36     8    36   ar
    37    36    37   ar
    38     5    37   ar
    39    37    38    1
    40     2    38   am
    41    15    16    1
    42    15    13    1
    43     3    39    1
    44     3    40    1
    45     6    41    1
    46     7    42    1
    47    11    43    1
    48    11    44    1
    49    15    45    1
    50    16    46    1
    51    16    47    1
    52    18    48    1
    53    19    49    1
    54    21    50    1
    55    22    51    1
    56    23    52    1
    57    24    53    1
    58    26    54    1
    59    30    55    1
    60    31    56    1
    61    34    57    1
    62    35    58    1
    63    36    59    1
    64    38    60    1
