@<TRIPOS>MOLECULE
*****
 50 52 0 0 0
SMALL
GASTEIGER

@<TRIPOS>ATOM
      1 C           1.0766    0.0982    0.3531 C.3     1  UNL1        0.0791
      2 O           2.4760    0.0563    0.0879 O.3     1  UNL1       -0.4889
      3 C           3.0436   -1.1352   -0.2675 C.ar    1  UNL1        0.1972
      4 C           4.2002   -1.4497    0.4680 C.ar    1  UNL1       -0.0124
      5 C           5.0053   -2.5458    0.1182 C.ar    1  UNL1       -0.0457
      6 C           4.6458   -3.4180   -0.9291 C.ar    1  UNL1        0.0437
      7 C           5.4797   -4.6391   -1.1475 C.2     1  UNL1        0.2497
      8 O           6.4174   -4.7248   -0.3631 O.2     1  UNL1       -0.2698
      9 N           5.1619   -5.6136   -2.1325 N.am    1  UNL1       -0.2636
     10 C           5.9356   -6.7730   -2.3993 C.2     1  UNL1        0.1411
     11 S           7.4065   -7.0821   -1.6176 S.2     1  UNL1       -0.0182
     12 N           5.4055   -7.6187   -3.4148 N.am    1  UNL1       -0.2966
     13 C           5.9672   -8.9070   -3.7419 C.ar    1  UNL1        0.0327
     14 C           6.1901   -9.3544   -5.0521 C.ar    1  UNL1       -0.0388
     15 C           6.7951  -10.6274   -5.2950 C.ar    1  UNL1       -0.0387
     16 C           7.2273  -11.4406   -4.2328 C.ar    1  UNL1        0.0338
     17 N           7.9394  -12.6594   -4.4570 N.am    1  UNL1       -0.2815
     18 C           8.4225  -13.4835   -3.4333 C.2     1  UNL1        0.2483
     19 O           8.3036  -13.3114   -2.2297 O.2     1  UNL1       -0.2699
     20 C           9.1713  -14.7094   -3.7956 C.ar    1  UNL1        0.0384
     21 C           8.9607  -15.8494   -2.9957 C.ar    1  UNL1       -0.0495
     22 C           9.7916  -16.9624   -3.1125 C.ar    1  UNL1       -0.0597
     23 C          10.8003  -16.9645   -4.0718 C.ar    1  UNL1       -0.0433
     24 C          11.0061  -15.8326   -4.8661 C.ar    1  UNL1        0.0417
     25 CL         12.3096  -15.8202   -5.9903 Cl      1  UNL1       -0.0835
     26 C          10.2043  -14.6960   -4.7299 C.ar    1  UNL1       -0.0313
     27 C           6.9446  -10.9928   -2.9496 C.ar    1  UNL1       -0.0387
     28 C           6.3043   -9.7795   -2.7140 C.ar    1  UNL1       -0.0388
     29 C           3.5213   -3.1024   -1.6704 C.ar    1  UNL1        0.0315
     30 C           2.7277   -1.9650   -1.3570 C.ar    1  UNL1        0.3149
     31 N           1.6258   -1.7252   -2.2950 N.pl3   1  UNL1        0.0834
     32 O           1.2276   -2.7081   -2.9437 O.2     1  UNL1        0.0416
     33 O           1.1878   -0.5847   -2.4488 O.co2   1  UNL1       -0.5759
     34 H           0.8380    1.1143    0.6860 H       1  UNL1        0.0660
     35 H           0.7886   -0.6162    1.1267 H       1  UNL1        0.0660
     36 H           0.4508   -0.0573   -0.5199 H       1  UNL1        0.0660
     37 H           4.5001   -0.8428    1.3251 H       1  UNL1        0.0656
     38 H           5.9304   -2.7128    0.6782 H       1  UNL1        0.0626
     39 H           4.3323   -5.4839   -2.6886 H       1  UNL1        0.1568
     40 H           4.7268   -7.2642   -4.0770 H       1  UNL1        0.1538
     41 H           5.9856   -8.7089   -5.9037 H       1  UNL1        0.0637
     42 H           6.9320  -10.9511   -6.3254 H       1  UNL1        0.0637
     43 H           8.1099  -12.9273   -5.4168 H       1  UNL1        0.1551
     44 H           8.1695  -15.8501   -2.2458 H       1  UNL1        0.0625
     45 H           9.6715  -17.8071   -2.4376 H       1  UNL1        0.0618
     46 H          11.4331  -17.8421   -4.1810 H       1  UNL1        0.0632
     47 H          10.4309  -13.7989   -5.2963 H       1  UNL1        0.0640
     48 H           7.2106  -11.5463   -2.0595 H       1  UNL1        0.0637
     49 H           6.1101   -9.5315   -1.6752 H       1  UNL1        0.0637
     50 H           3.2585   -3.7138   -2.5245 H       1  UNL1        0.0694
@<TRIPOS>UNITY_ATOM_ATTR
31 1
charge 1
33 1
charge -1
@<TRIPOS>BOND
     1     1     2    1
     2     2     3    1
     3     3     4   ar
     4     4     5   ar
     5     5     6   ar
     6     6     7    1
     7     7     8    2
     8     7     9   am
     9     9    10    1
    10    10    11    2
    11    10    12    1
    12    12    13    1
    13    13    14   ar
    14    14    15   ar
    15    15    16   ar
    16    16    17    1
    17    17    18   am
    18    18    19    2
    19    18    20    1
    20    20    21   ar
    21    21    22   ar
    22    22    23   ar
    23    23    24   ar
    24    24    25    1
    25    24    26   ar
    26    20    26   ar
    27    16    27   ar
    28    27    28   ar
    29    13    28   ar
    30     6    29   ar
    31    29    30   ar
    32     3    30   ar
    33    30    31    1
    34    31    32    2
    35    31    33    1
    36     1    34    1
    37     1    35    1
    38     1    36    1
    39     4    37    1
    40     5    38    1
    41     9    39    1
    42    12    40    1
    43    14    41    1
    44    15    42    1
    45    17    43    1
    46    21    44    1
    47    22    45    1
    48    23    46    1
    49    26    47    1
    50    27    48    1
    51    28    49    1
    52    29    50    1
