REMARK  10 active torsions:
REMARK  status: ('A' for Active; 'I' for Inactive)
REMARK    1  A    between atoms: C_2  and  O_3 
REMARK    2  A    between atoms: O_3  and  C_4 
REMARK       I    between atoms: C_4  and  N_6 
REMARK    3  A    between atoms: C_7  and  N_6 
REMARK    4  A    between atoms: C_7  and  C_23 
REMARK    5  A    between atoms: C_7  and  C_8 
REMARK    6  A    between atoms: C_8  and  N_9 
REMARK       I    between atoms: N_9  and  C_10 
REMARK       I    between atoms: C_10  and  N_12 
REMARK    7  A    between atoms: N_12  and  C_13 
REMARK    8  A    between atoms: C_13  and  C_14 
REMARK    9  A    between atoms: C_18  and  N_19 
REMARK   10  A    between atoms: C_23  and  C_24 
ROOT
ATOM      1  N   UNL d   1       4.327   1.483  -1.393  0.00  0.00    -0.341 N 
ATOM      2  C   UNL d   1       3.024   1.428  -0.982  0.00  0.00     0.316 C 
ATOM      3  O   UNL d   1       2.106   1.073  -1.710  0.00  0.00    -0.247 OA
ATOM      4  N   UNL d   1       2.845   1.827   0.312  0.00  0.00    -0.339 N 
ATOM      5  H   UNL d   1       5.070   1.659  -0.732  0.00  0.00     0.164 HD
ATOM      6  H   UNL d   1       3.636   2.169   0.829  0.00  0.00     0.164 HD
ENDROOT
BRANCH   1   7
ATOM      7  C   UNL d   1       4.675   1.093  -2.750  0.00  0.00     0.149 C 
BRANCH   7   8
ATOM      8  C   UNL d   1       6.187   1.140  -3.009  0.00  0.00     0.105 C 
BRANCH   8   9
ATOM      9  C   UNL d   1       6.503   1.628  -4.443  0.00  0.00     0.031 C 
BRANCH   9  10
ATOM     10  C   UNL d   1       8.011   1.772  -4.755  0.00  0.00    -0.021 C 
ATOM     11  C   UNL d   1       8.754   0.440  -4.720  0.00  0.00     0.009 C 
ATOM     12  C   UNL d   1       8.216   2.373  -6.146  0.00  0.00     0.009 C 
ENDBRANCH   9  10
ENDBRANCH   8   9
BRANCH   8  13
ATOM     13  N   UNL d   1       6.755  -0.171  -2.711  0.00  0.00    -0.331 N 
ATOM     14  C   UNL d   1       7.482  -0.440  -1.589  0.00  0.00     0.360 C 
ATOM     15  O   UNL d   1       8.325  -1.332  -1.552  0.00  0.00    -0.239 OA
ATOM     16  H   UNL d   1       6.867  -0.839  -3.464  0.00  0.00     0.165 HD
BRANCH  14  17
ATOM     17  O   UNL d   1       7.161   0.380  -0.561  0.00  0.00    -0.304 OA
BRANCH  17  18
ATOM     18  C   UNL d   1       7.860   0.118   0.659  0.00  0.00     0.176 C 
ATOM     19  C   UNL d   1       7.253   1.005   1.730  0.00  0.00     0.034 C 
ENDBRANCH  17  18
ENDBRANCH  14  17
ENDBRANCH   8  13
ENDBRANCH   7   8
ENDBRANCH   1   7
BRANCH   4  20
ATOM     20  C   UNL d   1       1.515   1.861   0.889  0.00  0.00     0.162 C 
BRANCH  20  21
ATOM     21  C   UNL d   1       1.450   2.293   2.340  0.00  0.00    -0.038 A 
ATOM     22  C   UNL d   1       2.524   2.102   3.223  0.00  0.00     0.009 A 
ATOM     23  C   UNL d   1       2.378   2.315   4.596  0.00  0.00     0.003 A 
ATOM     24  C   UNL d   1       1.175   2.789   5.111  0.00  0.00     0.036 A 
ATOM     25  C   UNL d   1       0.098   3.002   4.245  0.00  0.00     0.103 A 
ATOM     26  C   UNL d   1       0.228   2.756   2.867  0.00  0.00     0.045 A 
BRANCH  25  27
ATOM     27  N   UNL d   1      -1.198   3.420   4.798  0.00  0.00    -0.116 N 
ATOM     28  O   UNL d   1      -1.273   3.598   6.023  0.00  0.00    -0.532 OA
ATOM     29  O   UNL d   1      -2.145   3.558   4.010  0.00  0.00    -0.532 OA
ENDBRANCH  25  27
ENDBRANCH  20  21
ENDBRANCH   4  20
TORSDOF 10
