REMARK  5 active torsions:
REMARK  status: ('A' for Active; 'I' for Inactive)
REMARK    1  A    between atoms: S_2  and  C_3 
REMARK    2  A    between atoms: C_3  and  C_5 
REMARK       I    between atoms: C_5  and  N_7 
REMARK    3  A    between atoms: N_7  and  C_8 
REMARK    4  A    between atoms: C_10  and  C_11 
REMARK       I    between atoms: C_11  and  N_13 
REMARK    5  A    between atoms: N_13  and  C_14 
ROOT
ATOM      1  C   UNL d   1       7.168  -2.353   1.802  0.00  0.00     0.041 A 
ATOM      2  C   UNL d   1       7.888  -1.153   1.943  0.00  0.00     0.047 A 
ATOM      3  C   UNL d   1       9.284  -1.130   1.958  0.00  0.00     0.034 A 
ATOM      4  C   UNL d   1       9.970  -2.345   1.830  0.00  0.00     0.018 A 
ATOM      5  C   UNL d   1       9.270  -3.550   1.698  0.00  0.00     0.010 A 
ATOM      6  C   UNL d   1       7.862  -3.571   1.694  0.00  0.00    -0.035 A 
ATOM      7  C   UNL d   1       7.159  -4.879   1.466  0.00  0.00     0.050 C 
ENDROOT
BRANCH   3   8
ATOM      8  C   UNL d   1      10.077   0.132   2.094  0.00  0.00     0.256 C 
ATOM      9  O   UNL d   1      11.309   0.040   2.052  0.00  0.00    -0.267 OA
ATOM     10  N   UNL d   1       9.398   1.323   2.321  0.00  0.00    -0.323 N 
ATOM     11  H   UNL d   1       8.407   1.322   2.518  0.00  0.00     0.169 HD
BRANCH  10  12
ATOM     12  C   UNL d   1      10.032   2.583   2.390  0.00  0.00     0.035 A 
ATOM     13  C   UNL d   1       9.544   3.561   3.263  0.00  0.00     0.029 A 
ATOM     14  C   UNL d   1      10.127   4.834   3.286  0.00  0.00     0.002 A 
ATOM     15  C   UNL d   1      11.207   5.125   2.453  0.00  0.00     0.000 A 
ATOM     16  C   UNL d   1      11.686   4.156   1.576  0.00  0.00     0.002 A 
ATOM     17  C   UNL d   1      11.101   2.891   1.548  0.00  0.00     0.029 A 
ENDBRANCH  10  12
ENDBRANCH   3   8
BRANCH   1  18
ATOM     18  N   UNL d   1       5.743  -2.302   1.764  0.00  0.00    -0.326 N 
ATOM     19  C   UNL d   1       5.080  -1.331   1.005  0.00  0.00     0.235 C 
ATOM     20  O   UNL d   1       5.704  -0.482   0.364  0.00  0.00    -0.272 OA
ATOM     21  H   UNL d   1       5.242  -3.128   2.060  0.00  0.00     0.169 HD
BRANCH  19  22
ATOM     22  C   UNL d   1       3.522  -1.380   1.004  0.00  0.00     0.135 C 
ATOM     23  C   UNL d   1       3.006  -2.709   0.466  0.00  0.00     0.031 C 
BRANCH  22  24
ATOM     24  S   UNL d   1       2.922   0.042  -0.057  0.00  0.00    -0.160 SA
ATOM     25  C   UNL d   1       1.124  -0.082   0.019  0.00  0.00     0.090 C 
ENDBRANCH  22  24
ENDBRANCH  19  22
ENDBRANCH   1  18
TORSDOF 5
