REMARK  7 active torsions:
REMARK  status: ('A' for Active; 'I' for Inactive)
REMARK    1  A    between atoms: N_1  and  C_2 
REMARK    2  A    between atoms: C_6  and  N_7 
REMARK    3  A    between atoms: C_10  and  C_11 
REMARK       I    between atoms: C_11  and  N_13 
REMARK    4  A    between atoms: N_13  and  N_14 
REMARK    5  A    between atoms: C_15  and  C_16 
REMARK    6  A    between atoms: C_25  and  C_26 
REMARK    7  A    between atoms: C_26  and  N_27 
ROOT
ATOM      1  N   UNL d   1       0.321  -2.721  -0.204  0.00  0.00    -0.215 N 
ATOM      2  N   UNL d   1       0.020  -3.833  -0.913  0.00  0.00     0.012 NA
ATOM      3  N   UNL d   1       0.634  -4.880  -0.378  0.00  0.00    -0.152 NA
ATOM      4  C   UNL d   1       1.242  -4.506   0.796  0.00  0.00     0.170 C 
ATOM      5  C   UNL d   1       0.963  -3.139   0.985  0.00  0.00     0.096 C 
ENDROOT
BRANCH   4   6
ATOM      6  C   UNL d   1       2.029  -5.480   1.644  0.00  0.00     0.293 C 
ATOM      7  O   UNL d   1       2.150  -6.663   1.290  0.00  0.00    -0.264 OA
ATOM      8  N   UNL d   1       2.631  -4.993   2.826  0.00  0.00    -0.242 N 
ATOM      9  H   UNL d   1       2.559  -4.053   3.140  0.00  0.00     0.192 HD
BRANCH   8  10
ATOM     10  N   UNL d   1       3.385  -5.772   3.672  0.00  0.00    -0.183 NA
ATOM     11  C   UNL d   1       3.818  -5.219   4.771  0.00  0.00     0.150 C 
BRANCH  11  12
ATOM     12  C   UNL d   1       4.639  -5.991   5.734  0.00  0.00    -0.014 A 
ATOM     13  C   UNL d   1       5.627  -6.835   5.198  0.00  0.00     0.016 A 
ATOM     14  C   UNL d   1       6.380  -7.666   6.029  0.00  0.00     0.040 A 
ATOM     15  C   UNL d   1       6.113  -7.636   7.380  0.00  0.00     0.105 A 
ATOM     16  C   UNL d   1       5.163  -6.793   7.913  0.00  0.00     0.105 A 
ATOM     17  O   UNL d   1       6.718  -8.410   8.319  0.00  0.00    -0.323 OA
ATOM     18  C   UNL d   1       4.419  -5.932   7.121  0.00  0.00     0.052 A 
ATOM     19  O   UNL d   1       5.051  -6.950   9.263  0.00  0.00    -0.323 OA
ATOM     20  C   UNL d   1       5.974  -8.043   9.497  0.00  0.00     0.352 A 
ENDBRANCH  11  12
ENDBRANCH   8  10
ENDBRANCH   4   6
BRANCH   5  21
ATOM     21  C   UNL d   1       1.330  -2.392   2.201  0.00  0.00     0.296 C 
BRANCH  21  22
ATOM     22  N   UNL d   1       1.131  -0.934   2.440  0.00  0.00    -0.066 N 
ATOM     23  C   UNL d   1       2.047  -0.201   1.542  0.00  0.00     0.235 C 
ATOM     24  C   UNL d   1       1.786   1.288   1.431  0.00  0.00     0.028 C 
ATOM     25  C   UNL d   1       0.344   1.759   1.505  0.00  0.00     0.003 C 
ATOM     26  C   UNL d   1      -0.374   1.050   2.626  0.00  0.00     0.028 C 
ATOM     27  C   UNL d   1      -0.306  -0.470   2.512  0.00  0.00     0.235 C 
ATOM     28  H   UNL d   1       1.502  -0.757   3.381  0.00  0.00     0.280 HD
ENDBRANCH  21  22
ENDBRANCH   5  21
BRANCH   1  29
ATOM     29  C   UNL d   1      -0.021  -1.418  -0.712  0.00  0.00     0.225 A 
ATOM     30  N   UNL d   1      -1.297  -1.032  -0.597  0.00  0.00    -0.081 NA
ATOM     31  O   UNL d   1      -1.301   0.302  -1.001  0.00  0.00    -0.103 OA
ATOM     32  N   UNL d   1      -0.026   0.721  -1.361  0.00  0.00    -0.083 NA
ATOM     33  C   UNL d   1       0.775  -0.326  -1.177  0.00  0.00     0.201 A 
BRANCH  33  34
ATOM     34  N   UNL d   1       2.131  -0.221  -1.275  0.00  0.00    -0.379 N 
ATOM     35  H   UNL d   1       2.565   0.687  -1.083  0.00  0.00     0.158 HD
ATOM     36  H   UNL d   1       2.778  -0.981  -1.093  0.00  0.00     0.158 HD
ENDBRANCH  33  34
ENDBRANCH   1  29
TORSDOF 7
