@<TRIPOS>MOLECULE
*****
 33 34 0 0 0
SMALL
GASTEIGER

@<TRIPOS>ATOM
      1 C           3.4088    0.8995   -0.9498 C.3     1  UNL1       -0.0381
      2 C           2.6423    0.0704    0.0653 C.3     1  UNL1        0.0948
      3 N           1.1579    0.0721   -0.1204 N.pl3   1  UNL1       -0.3331
      4 C           0.3960    0.4232   -1.2226 C.ar    1  UNL1        0.0278
      5 C           0.9338    0.7995   -2.4581 C.ar    1  UNL1       -0.0381
      6 C           0.1954    1.1822   -3.5684 C.ar    1  UNL1       -0.0247
      7 C          -1.1686    1.1548   -3.4868 C.ar    1  UNL1        0.1235
      8 F          -1.8860    1.5209   -4.5542 F       1  UNL1       -0.2055
      9 C          -1.7824    0.7508   -2.3081 C.ar    1  UNL1       -0.0247
     10 C          -1.0072    0.3861   -1.1833 C.ar    1  UNL1       -0.0381
     11 C           3.0322    0.6173    1.4626 C.2     1  UNL1        0.2373
     12 O           2.1873    1.0386    2.2417 O.2     1  UNL1       -0.2734
     13 N           4.4149    0.6357    1.7259 N.am    1  UNL1       -0.2815
     14 C           4.9033    1.1810    2.9373 C.ar    1  UNL1        0.0707
     15 C           5.9155    2.1491    2.9023 C.ar    1  UNL1       -0.0361
     16 C           6.3291    2.7420    4.0982 C.ar    1  UNL1       -0.0417
     17 C           5.7595    2.3084    5.2859 C.ar    1  UNL1        0.0294
     18 N           4.8376    1.3307    5.3633 N.ar    1  UNL1       -0.2417
     19 C           4.4206    0.7978    4.1944 C.ar    1  UNL1        0.1503
     20 CL          3.4115   -0.5836    4.4307 Cl      1  UNL1       -0.0601
     21 H           4.4567    1.0884   -0.7324 H       1  UNL1        0.0252
     22 H           2.9411    1.8870   -1.0596 H       1  UNL1        0.0252
     23 H           3.4677    0.3402   -1.8837 H       1  UNL1        0.0252
     24 H           2.9722   -0.9744    0.0207 H       1  UNL1        0.0591
     25 H           0.6520   -0.0450    0.7617 H       1  UNL1        0.1468
     26 H           1.9772    0.8609   -2.6675 H       1  UNL1        0.0637
     27 H           0.7180    1.4968   -4.4644 H       1  UNL1        0.0647
     28 H          -2.8658    0.7306   -2.2725 H       1  UNL1        0.0647
     29 H          -1.5323    0.0842   -0.2784 H       1  UNL1        0.0637
     30 H           5.0663    0.5984    0.9539 H       1  UNL1        0.1549
     31 H           6.3445    2.5054    1.9685 H       1  UNL1        0.0637
     32 H           7.0652    3.5405    4.1125 H       1  UNL1        0.0633
     33 H           6.0413    2.7424    6.2409 H       1  UNL1        0.0830
@<TRIPOS>BOND
     1     3     4    1
     2     4     5   ar
     3     5     6   ar
     4     6     7   ar
     5     7     8    1
     6     7     9   ar
     7     9    10   ar
     8     4    10   ar
     9     2    11    1
    10    11    12    2
    11    11    13   am
    12    13    14    1
    13    14    15   ar
    14    15    16   ar
    15    16    17   ar
    16    17    18   ar
    17    18    19   ar
    18    14    19   ar
    19    19    20    1
    20     2     3    1
    21     2     1    1
    22     1    21    1
    23     1    22    1
    24     1    23    1
    25     2    24    1
    26     3    25    1
    27     5    26    1
    28     6    27    1
    29     9    28    1
    30    10    29    1
    31    13    30    1
    32    15    31    1
    33    16    32    1
    34    17    33    1
