@<TRIPOS>MOLECULE
*****
 72 75 0 0 0
SMALL
GASTEIGER

@<TRIPOS>ATOM
      1 C           0.6890   -0.1519   -0.0804 C.3     1  UNL1       -0.0306
      2 C           2.1452   -0.1621   -0.2001 C.3     1  UNL1        0.0897
      3 O           2.4382    1.0398   -1.0303 O.3     1  UNL1       -0.4636
      4 C           3.5622    1.5261   -0.5413 C.2     1  UNL1        0.3289
      5 O           3.9429    0.8400    0.4393 O.2     1  UNL1       -0.2488
      6 C           4.4518    3.0979   -1.1916 C.3     1  UNL1        0.1422
      7 N           6.3942    3.4121   -1.3190 N.ar    1  UNL1       -0.2136
      8 N           7.4798    2.8777   -2.4044 N.ar    1  UNL1       -0.0432
      9 N           8.6164    2.4990   -1.8324 N.ar    1  UNL1       -0.0228
     10 N           8.5632    2.7486   -0.5396 N.ar    1  UNL1       -0.1075
     11 C           7.3783    3.2618   -0.2993 C.ar    1  UNL1        0.1999
     12 C           6.9965    3.8120    0.9227 C.3     1  UNL1        0.0419
     13 C           7.4889    5.2001    0.8496 C.3     1  UNL1       -0.0051
     14 C           8.9683    5.2349    0.7549 C.3     1  UNL1       -0.0597
     15 N           5.5532    3.7960    0.9200 N.4     1  UNL1        0.2484
     16 C           5.3266    2.2950    0.7481 C.3     1  UNL1        0.0003
     17 C           5.7856    1.3323   -0.8635 C.ar    1  UNL1        0.0618
     18 C           5.7489   -0.0060   -0.9354 C.ar    1  UNL1       -0.0392
     19 C           5.7213   -0.5892   -2.2378 C.ar    1  UNL1       -0.0007
     20 C           5.4012   -1.8971   -2.3185 C.ar    1  UNL1       -0.0524
     21 C           5.2725   -2.3681   -3.5922 C.ar    1  UNL1       -0.0579
     22 C           5.8861   -1.6693   -4.6623 C.ar    1  UNL1       -0.0456
     23 C           6.2027   -2.2804   -5.9406 C.3     1  UNL1       -0.0394
     24 C           6.3202   -0.3930   -4.5831 C.ar    1  UNL1       -0.0236
     25 C           6.9450    0.5475   -5.5793 C.3     1  UNL1       -0.0375
     26 C           5.9615    0.0870   -3.4224 C.ar    1  UNL1        0.0524
     27 N           5.6197    1.3492   -3.6317 N.ar    1  UNL1       -0.3215
     28 C           5.5035    1.9981   -2.6231 C.ar    1  UNL1        0.2575
     29 O           5.3974    3.1764   -3.1293 O.2     1  UNL1       -0.2674
     30 C           4.8101    4.3834    2.0605 C.3     1  UNL1       -0.0199
     31 C           5.4414    3.7079    3.2462 C.3     1  UNL1       -0.0096
     32 C           5.1671    4.4079    4.5093 C.3     1  UNL1       -0.0480
     33 C           5.5262    5.8714    4.3444 C.3     1  UNL1       -0.0527
     34 C           4.6903    6.5536    3.2567 C.3     1  UNL1       -0.0480
     35 C           4.8494    5.9052    1.9176 C.3     1  UNL1       -0.0096
     36 H           0.3845   -1.0242    0.4909 H       1  UNL1        0.0262
     37 H           0.3242   -0.1252   -1.0985 H       1  UNL1        0.0262
     38 H           0.4242    0.7759    0.4429 H       1  UNL1        0.0262
     39 H           2.6375   -1.0403   -0.6367 H       1  UNL1        0.0694
     40 H           2.4449   -0.1610    0.8856 H       1  UNL1        0.0694
     41 H           4.0853    4.0625   -0.9121 H       1  UNL1        0.0626
     42 H           3.9268    3.0379   -2.1709 H       1  UNL1        0.0626
     43 H           7.3623    3.1173    1.6742 H       1  UNL1        0.0936
     44 H           7.2926    5.6103    1.8230 H       1  UNL1        0.0322
     45 H           7.0072    5.7487    0.0125 H       1  UNL1        0.0322
     46 H           9.3220    4.6048    1.5754 H       1  UNL1        0.0232
     47 H           9.2638    6.2676    0.8637 H       1  UNL1        0.0232
     48 H           9.3376    4.8632   -0.2004 H       1  UNL1        0.0232
     49 H           5.2354    4.4482    0.1925 H       1  UNL1        0.2047
     50 H           4.2329    2.5258    0.9246 H       1  UNL1        0.0869
     51 H           5.5444    1.7219    1.6493 H       1  UNL1        0.0869
     52 H           5.3965   -0.6606   -0.1351 H       1  UNL1        0.0630
     53 H           5.2165   -2.4746   -1.4247 H       1  UNL1        0.0624
     54 H           4.7718   -3.3093   -3.7380 H       1  UNL1        0.0620
     55 H           5.8951   -3.3098   -5.8922 H       1  UNL1        0.0278
     56 H           7.2923   -2.1850   -6.0244 H       1  UNL1        0.0278
     57 H           5.6880   -1.6973   -6.7061 H       1  UNL1        0.0278
     58 H           7.2008    0.0463   -6.4901 H       1  UNL1        0.0278
     59 H           7.8393    0.9982   -5.1108 H       1  UNL1        0.0278
     60 H           6.2830    1.3872   -5.8679 H       1  UNL1        0.0278
     61 H           6.0784    2.0298   -4.2448 H       1  UNL1        0.1689
     62 H           3.7360    4.1244    1.9875 H       1  UNL1        0.0851
     63 H           6.5260    3.7007    3.1631 H       1  UNL1        0.0320
     64 H           5.1266    2.6626    3.3187 H       1  UNL1        0.0320
     65 H           5.7912    3.9183    5.2614 H       1  UNL1        0.0267
     66 H           4.1138    4.2647    4.7434 H       1  UNL1        0.0267
     67 H           6.6006    5.9649    4.1177 H       1  UNL1        0.0265
     68 H           5.3393    6.3632    5.2943 H       1  UNL1        0.0265
     69 H           5.0079    7.5951    3.1580 H       1  UNL1        0.0267
     70 H           3.6314    6.5089    3.5059 H       1  UNL1        0.0267
     71 H           5.7571    6.3320    1.5313 H       1  UNL1        0.0320
     72 H           4.1593    6.2626    1.1386 H       1  UNL1        0.0320
@<TRIPOS>UNITY_ATOM_ATTR
15 1
charge 1
@<TRIPOS>BOND
     1     1     2    1
     2     2     3    1
     3     3     4    1
     4     4     5    2
     5     4     6    1
     6     6     7    1
     7     7     8   ar
     8     8     9   ar
     9     9    10   ar
    10    10    11   ar
    11     7    11   ar
    12    11    12    1
    13    12    13    1
    14    13    14    1
    15    12    15    1
    16    15    16    1
    17    16    17    1
    18    17    18   ar
    19    18    19   ar
    20    19    20   ar
    21    20    21   ar
    22    21    22   ar
    23    22    23    1
    24    22    24   ar
    25    24    25    1
    26    24    26   ar
    27    19    26   ar
    28    26    27   ar
    29    27    28   ar
    30    17    28   ar
    31    28    29    2
    32    15    30    1
    33    30    31    1
    34    31    32    1
    35    32    33    1
    36    33    34    1
    37    34    35    1
    38    30    35    1
    39     1    36    1
    40     1    37    1
    41     1    38    1
    42     2    39    1
    43     2    40    1
    44     6    41    1
    45     6    42    1
    46    12    43    1
    47    13    44    1
    48    13    45    1
    49    14    46    1
    50    14    47    1
    51    14    48    1
    52    15    49    1
    53    16    50    1
    54    16    51    1
    55    18    52    1
    56    20    53    1
    57    21    54    1
    58    23    55    1
    59    23    56    1
    60    23    57    1
    61    25    58    1
    62    25    59    1
    63    25    60    1
    64    27    61    1
    65    30    62    1
    66    31    63    1
    67    31    64    1
    68    32    65    1
    69    32    66    1
    70    33    67    1
    71    33    68    1
    72    34    69    1
    73    34    70    1
    74    35    71    1
    75    35    72    1
