@<TRIPOS>MOLECULE
*****
 27 28 0 0 0
SMALL
GASTEIGER

@<TRIPOS>ATOM
      1 O           1.0723    0.0517   -0.1730 O.2     1  UNL1       -0.2697
      2 C           2.3010   -0.0589   -0.1425 C.2     1  UNL1        0.2518
      3 N           3.0059   -1.1119   -0.7284 N.am    1  UNL1       -0.2801
      4 C           2.2994   -2.1924   -1.3373 C.ar    1  UNL1        0.0536
      5 C           1.2041   -1.8963   -2.1615 C.ar    1  UNL1       -0.0390
      6 C           0.4204   -2.9012   -2.7198 C.ar    1  UNL1       -0.0585
      7 C           0.7346   -4.2322   -2.4775 C.ar    1  UNL1       -0.0419
      8 C           1.8471   -4.5556   -1.6912 C.ar    1  UNL1        0.0610
      9 CL          2.1673   -6.2415   -1.4554 Cl      1  UNL1       -0.0820
     10 C           2.6437   -3.5401   -1.1238 C.ar    1  UNL1        0.0804
     11 CL          3.9815   -3.9315   -0.0900 Cl      1  UNL1       -0.0801
     12 C           3.0803    0.9583    0.6074 C.ar    1  UNL1        0.0783
     13 C           4.2192    1.5504    0.0445 C.ar    1  UNL1       -0.0461
     14 C           4.9103    2.5426    0.7515 C.ar    1  UNL1       -0.0608
     15 C           4.4685    2.9471    2.0132 C.ar    1  UNL1       -0.0583
     16 C           3.3208    2.3805    2.5676 C.ar    1  UNL1       -0.0194
     17 C           2.6277    1.3949    1.8634 C.ar    1  UNL1        0.1290
     18 O           1.5190    0.8260    2.4266 O.3     1  UNL1       -0.5060
     19 H           3.9525   -1.2900   -0.4083 H       1  UNL1        0.1552
     20 H           0.9463   -0.8605   -2.3726 H       1  UNL1        0.0637
     21 H          -0.4376   -2.6327   -3.3304 H       1  UNL1        0.0619
     22 H           0.1061   -5.0107   -2.9043 H       1  UNL1        0.0633
     23 H           4.5572    1.2750   -0.9508 H       1  UNL1        0.0626
     24 H           5.7924    3.0101    0.3183 H       1  UNL1        0.0618
     25 H           5.0182    3.7071    2.5652 H       1  UNL1        0.0619
     26 H           2.9877    2.7077    3.5485 H       1  UNL1        0.0654
     27 H           1.2509    1.3106    3.2220 H       1  UNL1        0.2922
@<TRIPOS>BOND
     1     1     2    2
     2     2     3   am
     3     3     4    1
     4     4     5   ar
     5     5     6   ar
     6     6     7   ar
     7     7     8   ar
     8     8     9    1
     9     8    10   ar
    10     4    10   ar
    11    10    11    1
    12     2    12    1
    13    12    13   ar
    14    13    14   ar
    15    14    15   ar
    16    15    16   ar
    17    16    17   ar
    18    12    17   ar
    19    17    18    1
    20     3    19    1
    21     5    20    1
    22     6    21    1
    23     7    22    1
    24    13    23    1
    25    14    24    1
    26    15    25    1
    27    16    26    1
    28    18    27    1
