@<TRIPOS>MOLECULE
*****
 64 66 0 0 0
SMALL
GASTEIGER

@<TRIPOS>ATOM
      1 C           1.0197    0.0888    0.0342 C.3     1  UNL1       -0.0587
      2 C           2.5452    0.0413    0.0209 C.3     1  UNL1       -0.0215
      3 C           3.0818   -0.8203    1.1650 C.3     1  UNL1       -0.0587
      4 C           3.0489   -0.4602   -1.3181 C.ar    1  UNL1       -0.0447
      5 C           2.8960   -1.7925   -1.7310 C.ar    1  UNL1       -0.0566
      6 C           3.4318   -2.2433   -2.9541 C.ar    1  UNL1       -0.0402
      7 C           4.0498   -1.3427   -3.8344 C.ar    1  UNL1        0.0338
      8 N           4.4699   -1.7596   -5.1324 N.am    1  UNL1       -0.2777
      9 C           5.0003   -0.9223   -6.1259 C.2     1  UNL1        0.3048
     10 O           5.2395    0.2816   -6.0452 O.2     1  UNL1       -0.2648
     11 C           5.3116   -1.5772   -7.4882 C.2     1  UNL1        0.3184
     12 O           5.0646   -2.7740   -7.6410 O.2     1  UNL1       -0.2634
     13 N           5.8620   -0.6943   -8.4303 N.am    1  UNL1       -0.1992
     14 N           6.1859   -1.1399   -9.6946 N.2     1  UNL1       -0.1873
     15 C           6.7760   -0.3255  -10.5167 C.2     1  UNL1        0.0528
     16 C           7.1563   -0.7756  -11.8914 C.ar    1  UNL1       -0.0052
     17 C           8.3764   -0.4078  -12.4674 C.ar    1  UNL1       -0.0496
     18 C           8.6972   -0.8397  -13.7723 C.ar    1  UNL1       -0.0193
     19 C           7.8343   -1.6804  -14.4931 C.ar    1  UNL1        0.1212
     20 O           8.2897   -2.1142  -15.7114 O.3     1  UNL1       -0.4828
     21 C           7.5218   -3.0885  -16.4321 C.3     1  UNL1        0.1651
     22 C           8.2625   -3.5580  -17.7088 C.2     1  UNL1        0.2507
     23 O           9.3847   -3.1588  -18.0136 O.2     1  UNL1       -0.2721
     24 N           7.5826   -4.4773  -18.5023 N.am    1  UNL1       -0.3100
     25 C           8.1667   -4.9338  -19.7674 C.3     1  UNL1        0.0380
     26 C           7.2916   -5.9316  -20.5490 C.3     1  UNL1        0.0742
     27 C           7.6035   -7.3902  -20.2483 C.3     1  UNL1       -0.0231
     28 C           7.2212   -8.0868  -21.5317 C.3     1  UNL1       -0.0271
     29 C           7.5648   -7.0602  -22.5877 C.3     1  UNL1        0.0482
     30 O           7.4737   -5.7683  -21.9707 O.3     1  UNL1       -0.3750
     31 C           6.6093   -2.0156  -13.9214 C.ar    1  UNL1       -0.0193
     32 C           6.2734   -1.5688  -12.6301 C.ar    1  UNL1       -0.0496
     33 C           4.1961   -0.0217   -3.4040 C.ar    1  UNL1       -0.0402
     34 C           3.7048    0.4191   -2.1738 C.ar    1  UNL1       -0.0566
     35 H           0.6500    0.4740    0.9899 H       1  UNL1        0.0235
     36 H           0.5898   -0.9065   -0.1184 H       1  UNL1        0.0235
     37 H           0.6433    0.7405   -0.7625 H       1  UNL1        0.0235
     38 H           2.9143    1.0644    0.1862 H       1  UNL1        0.0343
     39 H           2.7440   -1.8584    1.0821 H       1  UNL1        0.0235
     40 H           2.7440   -0.4398    2.1338 H       1  UNL1        0.0235
     41 H           4.1779   -0.8272    1.1645 H       1  UNL1        0.0235
     42 H           2.3502   -2.4908   -1.0973 H       1  UNL1        0.0621
     43 H           3.3433   -3.3034   -3.1801 H       1  UNL1        0.0636
     44 H           4.3034   -2.7291   -5.3976 H       1  UNL1        0.1553
     45 H           6.0195    0.2768   -8.1567 H       1  UNL1        0.1777
     46 H           7.0302    0.7196  -10.2557 H       1  UNL1        0.0851
     47 H           9.1063    0.1735  -11.9086 H       1  UNL1        0.0625
     48 H           9.6381   -0.5261  -14.2250 H       1  UNL1        0.0654
     49 H           6.5700   -2.6411  -16.7409 H       1  UNL1        0.0795
     50 H           7.3430   -3.9748  -15.8101 H       1  UNL1        0.0795
     51 H           6.6362   -4.7493  -18.2719 H       1  UNL1        0.1489
     52 H           9.1457   -5.3737  -19.5393 H       1  UNL1        0.0487
     53 H           8.3703   -4.0476  -20.3815 H       1  UNL1        0.0487
     54 H           6.2311   -5.7294  -20.3571 H       1  UNL1        0.0611
     55 H           7.0515   -7.7634  -19.3814 H       1  UNL1        0.0291
     56 H           8.6730   -7.5394  -20.0604 H       1  UNL1        0.0291
     57 H           6.1441   -8.2884  -21.5423 H       1  UNL1        0.0288
     58 H           7.7420   -9.0369  -21.6846 H       1  UNL1        0.0288
     59 H           6.8889   -7.1118  -23.4478 H       1  UNL1        0.0560
     60 H           8.5902   -7.1847  -22.9512 H       1  UNL1        0.0560
     61 H           5.8872   -2.6244  -14.4527 H       1  UNL1        0.0654
     62 H           5.3117   -1.8455  -12.2053 H       1  UNL1        0.0625
     63 H           4.7003    0.7226   -4.0047 H       1  UNL1        0.0636
     64 H           3.8400    1.4648   -1.9074 H       1  UNL1        0.0621
@<TRIPOS>BOND
     1     1     2    1
     2     2     3    1
     3     2     4    1
     4     4     5   ar
     5     5     6   ar
     6     6     7   ar
     7     7     8    1
     8     8     9   am
     9     9    10    2
    10     9    11    1
    11    11    12    2
    12    11    13   am
    13    13    14    1
    14    14    15    2
    15    15    16    1
    16    16    17   ar
    17    17    18   ar
    18    18    19   ar
    19    19    20    1
    20    20    21    1
    21    21    22    1
    22    22    23    2
    23    22    24   am
    24    24    25    1
    25    25    26    1
    26    26    27    1
    27    27    28    1
    28    28    29    1
    29    29    30    1
    30    26    30    1
    31    19    31   ar
    32    31    32   ar
    33    16    32   ar
    34     7    33   ar
    35    33    34   ar
    36     4    34   ar
    37     1    35    1
    38     1    36    1
    39     1    37    1
    40     2    38    1
    41     3    39    1
    42     3    40    1
    43     3    41    1
    44     5    42    1
    45     6    43    1
    46     8    44    1
    47    13    45    1
    48    15    46    1
    49    17    47    1
    50    18    48    1
    51    21    49    1
    52    21    50    1
    53    24    51    1
    54    25    52    1
    55    25    53    1
    56    26    54    1
    57    27    55    1
    58    27    56    1
    59    28    57    1
    60    28    58    1
    61    29    59    1
    62    29    60    1
    63    31    61    1
    64    32    62    1
    65    33    63    1
    66    34    64    1
