@<TRIPOS>MOLECULE
*****
 33 33 0 0 0
SMALL
GASTEIGER

@<TRIPOS>ATOM
      1 C           0.9596   -0.0362    0.0495 C.3     1  UNL1       -0.0639
      2 C           2.4892   -0.0299    0.0678 C.3     1  UNL1       -0.0402
      3 C           3.0512    0.4560    1.4128 C.3     1  UNL1        0.0128
      4 N           4.5184    0.4811    1.4856 N.am    1  UNL1       -0.2982
      5 C           5.1769    0.9035    2.6279 C.2     1  UNL1        0.3160
      6 O           4.5840    1.2711    3.6421 O.2     1  UNL1       -0.2513
      7 N           6.5654    0.8947    2.5484 N.am    1  UNL1       -0.2180
      8 N           7.3309    1.3398    3.6818 N.am    1  UNL1       -0.2291
      9 C           8.7245    1.3204    3.6749 C.2     1  UNL1        0.2618
     10 O           9.3846    1.0083    2.6810 O.2     1  UNL1       -0.2686
     11 C           9.4563    1.7255    4.9361 C.ar    1  UNL1        0.0628
     12 C          10.6320    2.5174    4.8352 C.ar    1  UNL1        0.0291
     13 C          11.3579    2.8856    5.9942 C.ar    1  UNL1        0.2740
     14 N          12.5733    3.7198    5.9015 N.pl3   1  UNL1        0.0796
     15 O          12.9329    4.0916    4.7778 O.2     1  UNL1        0.0414
     16 O          13.1597    4.0037    6.9576 O.co2   1  UNL1       -0.5760
     17 C          10.9343    2.4628    7.2575 C.ar    1  UNL1        0.0170
     18 C           9.7968    1.6611    7.3572 C.ar    1  UNL1       -0.0362
     19 C           9.0669    1.2869    6.2124 C.ar    1  UNL1        0.0535
     20 CL          7.7351    0.2208    6.4756 Cl      1  UNL1       -0.0828
     21 H           0.5843   -0.3867   -0.9194 H       1  UNL1        0.0230
     22 H           0.5552    0.9677    0.2172 H       1  UNL1        0.0230
     23 H           0.5550   -0.7003    0.8206 H       1  UNL1        0.0230
     24 H           2.8469    0.6124   -0.7454 H       1  UNL1        0.0278
     25 H           2.8467   -1.0438   -0.1468 H       1  UNL1        0.0278
     26 H           2.6846   -0.1907    2.2188 H       1  UNL1        0.0462
     27 H           2.6857    1.4693    1.6178 H       1  UNL1        0.0462
     28 H           5.0493    0.1918    0.6780 H       1  UNL1        0.1503
     29 H           7.0900    0.5772    1.7400 H       1  UNL1        0.1744
     30 H           6.7784    1.5534    4.5130 H       1  UNL1        0.1732
     31 H          10.9796    2.8434    3.8544 H       1  UNL1        0.0693
     32 H          11.4762    2.7335    8.1648 H       1  UNL1        0.0686
     33 H           9.4868    1.3144    8.3426 H       1  UNL1        0.0634
@<TRIPOS>UNITY_ATOM_ATTR
14 1
charge 1
16 1
charge -1
@<TRIPOS>BOND
     1     1     2    1
     2     2     3    1
     3     3     4    1
     4     4     5   am
     5     5     6    2
     6     5     7   am
     7     7     8    1
     8     8     9   am
     9     9    10    2
    10     9    11    1
    11    11    12   ar
    12    12    13   ar
    13    13    14    1
    14    14    15    2
    15    14    16    1
    16    13    17   ar
    17    17    18   ar
    18    18    19   ar
    19    11    19   ar
    20    19    20    1
    21     1    21    1
    22     1    22    1
    23     1    23    1
    24     2    24    1
    25     2    25    1
    26     3    26    1
    27     3    27    1
    28     4    28    1
    29     7    29    1
    30     8    30    1
    31    12    31    1
    32    17    32    1
    33    18    33    1
