@<TRIPOS>MOLECULE
*****
 31 32 0 0 0
SMALL
GASTEIGER

@<TRIPOS>ATOM
      1 O           0.9849   -0.0356    0.1266 O.2     1  UNL1       -0.2698
      2 C           2.2035    0.1378    0.0892 C.2     1  UNL1        0.2485
      3 N           2.9027    0.8403   -0.8914 N.am    1  UNL1       -0.2785
      4 C           2.2234    1.4891   -1.9534 C.ar    1  UNL1        0.0770
      5 C           2.6415    1.2806   -3.2734 C.ar    1  UNL1       -0.0185
      6 C           1.9073    1.8405   -4.3262 C.ar    1  UNL1        0.0430
      7 CL          2.3614    1.5257   -5.9587 Cl      1  UNL1       -0.0835
      8 C           0.7885    2.6360   -4.0765 C.ar    1  UNL1       -0.0398
      9 C           0.4040    2.8936   -2.7619 C.ar    1  UNL1       -0.0170
     10 C           1.1299    2.3346   -1.7108 C.ar    1  UNL1        0.1381
     11 O           0.8361    2.6969   -0.4238 O.3     1  UNL1       -0.5049
     12 C           3.0344   -0.6129    1.0671 C.ar    1  UNL1        0.0405
     13 C           4.2299   -0.1009    1.5700 C.ar    1  UNL1       -0.0494
     14 C           5.0500   -0.9177    2.3502 C.ar    1  UNL1       -0.0576
     15 C           4.6398   -2.2118    2.6900 C.ar    1  UNL1       -0.0197
     16 C           3.4173   -2.7126    2.2332 C.ar    1  UNL1        0.1276
     17 O           3.1410   -4.0067    2.5845 O.3     1  UNL1       -0.4342
     18 C           1.9208   -4.5449    2.0892 C.3     1  UNL1        0.3893
     19 F           1.9521   -4.5663    0.7329 F       1  UNL1       -0.1663
     20 F           1.8467   -5.8392    2.4897 F       1  UNL1       -0.1663
     21 C           2.6112   -1.8998    1.4351 C.ar    1  UNL1       -0.0076
     22 H           3.8731    0.5932   -1.0379 H       1  UNL1        0.1552
     23 H           3.4860    0.6364   -3.4998 H       1  UNL1        0.0652
     24 H           0.2192    3.0649   -4.8976 H       1  UNL1        0.0633
     25 H          -0.4483    3.5376   -2.5714 H       1  UNL1        0.0655
     26 H          -0.0303    3.1299   -0.4044 H       1  UNL1        0.2922
     27 H           4.5195    0.9267    1.3693 H       1  UNL1        0.0625
     28 H           6.0208   -0.5550    2.6797 H       1  UNL1        0.0619
     29 H           5.2846   -2.8311    3.3118 H       1  UNL1        0.0654
     30 H           1.0408   -4.0062    2.4572 H       1  UNL1        0.1520
     31 H           1.6585   -2.2466    1.0441 H       1  UNL1        0.0662
@<TRIPOS>BOND
     1     1     2    2
     2     2     3   am
     3     3     4    1
     4     4     5   ar
     5     5     6   ar
     6     6     7    1
     7     6     8   ar
     8     8     9   ar
     9     9    10   ar
    10     4    10   ar
    11    10    11    1
    12     2    12    1
    13    12    13   ar
    14    13    14   ar
    15    14    15   ar
    16    15    16   ar
    17    16    17    1
    18    17    18    1
    19    18    19    1
    20    18    20    1
    21    16    21   ar
    22    12    21   ar
    23     3    22    1
    24     5    23    1
    25     8    24    1
    26     9    25    1
    27    11    26    1
    28    13    27    1
    29    14    28    1
    30    15    29    1
    31    18    30    1
    32    21    31    1
