@<TRIPOS>MOLECULE
*****
 69 73 0 0 0
SMALL
GASTEIGER

@<TRIPOS>ATOM
      1 C           5.8023    1.0842    3.1749 C.3     1  UNL1        0.0122
      2 C           5.6249   -1.0572    2.9409 C.2     1  UNL1        0.2104
      3 O           5.8397   -2.0839    3.6704 O.2     1  UNL1       -0.2761
      4 N           5.3267   -1.8808    1.6179 N.am    1  UNL1       -0.3043
      5 C           4.7970   -1.4219    0.2224 C.3     1  UNL1        0.1138
      6 C           5.2477    0.0309   -0.2103 C.3     1  UNL1        0.2231
      7 O           4.6195    0.9212    0.6106 O.3     1  UNL1       -0.4616
      8 C           5.1125    0.2953    1.6645 C.ar    1  UNL1        0.1242
      9 C           6.9553    0.0300    1.9832 C.ar    1  UNL1       -0.0195
     10 C           7.4512   -0.1741    3.6741 C.ar    1  UNL1       -0.0546
     11 C           6.2770   -0.2368    4.9208 C.ar    1  UNL1       -0.0406
     12 C           4.5893   -0.0777    4.5843 C.ar    1  UNL1       -0.0404
     13 C           3.9434    0.1466    3.0129 C.ar    1  UNL1       -0.0164
     14 C           3.5839   -0.5480    5.5582 C.3     1  UNL1       -0.0270
     15 C           4.2128   -1.4497    6.5427 C.3     1  UNL1       -0.0454
     16 C           5.5403   -1.0092    7.1669 C.3     1  UNL1       -0.0302
     17 C           6.7080   -1.0121    6.1516 C.3     1  UNL1       -0.0124
     18 C           7.2261   -2.4539    5.8175 C.3     1  UNL1       -0.0450
     19 C           7.7177   -3.1627    7.0556 C.3     1  UNL1       -0.0401
     20 C           6.6291   -3.1581    8.0293 C.3     1  UNL1        0.0293
     21 C           7.0445   -3.8400    9.4374 C.3     1  UNL1       -0.0526
     22 C           5.4613   -3.8854    7.3632 C.2     1  UNL1        0.1395
     23 O           4.9708   -4.0002    6.2566 O.2     1  UNL1       -0.2968
     24 C           4.8361   -4.5621    8.4151 C.3     1  UNL1        0.0067
     25 C           4.7718   -2.7682    9.0387 C.3     1  UNL1       -0.0424
     26 C           5.9287   -1.9008    8.3629 C.3     1  UNL1       -0.0252
     27 O           4.7786    0.4880   -1.4229 O.3     1  UNL1       -0.3318
     28 C           5.3635   -0.2703   -2.4203 C.3     1  UNL1        0.1140
     29 C           4.7837    0.3255   -3.6791 C.3     1  UNL1        0.0731
     30 O           5.2784   -0.3284   -4.8219 O.3     1  UNL1       -0.3924
     31 C           4.9954   -1.7484   -2.2396 C.3     1  UNL1        0.1113
     32 O           5.7362   -2.5122   -3.1775 O.3     1  UNL1       -0.3865
     33 C           5.3315   -2.3073   -0.8495 C.3     1  UNL1        0.1076
     34 O           4.7943   -3.6129   -0.6591 O.3     1  UNL1       -0.3871
     35 H           6.2127    1.6859    4.0032 H       1  UNL1        0.0322
     36 H           4.9303    1.8303    2.8810 H       1  UNL1        0.0322
     37 H           6.3320    1.7384    2.2068 H       1  UNL1        0.0322
     38 H           5.2872   -2.8872    1.8050 H       1  UNL1        0.1493
     39 H           3.6993   -1.4467    0.3077 H       1  UNL1        0.0587
     40 H           6.3502    0.1351   -0.1883 H       1  UNL1        0.1076
     41 H           7.7852    0.4908    1.4504 H       1  UNL1        0.0654
     42 H           8.4719   -0.2328    4.0358 H       1  UNL1        0.0622
     43 H           2.8753    0.2908    2.9619 H       1  UNL1        0.0657
     44 H           2.8838   -1.1871    4.9950 H       1  UNL1        0.0313
     45 H           3.1052    0.2916    6.0286 H       1  UNL1        0.0313
     46 H           4.3845   -2.2621    5.8670 H       1  UNL1        0.0271
     47 H           3.4586   -1.7595    7.2628 H       1  UNL1        0.0271
     48 H           5.3881    0.0307    7.4953 H       1  UNL1        0.0310
     49 H           7.5742   -0.4913    6.5666 H       1  UNL1        0.0352
     50 H           8.0040   -2.5077    5.0636 H       1  UNL1        0.0271
     51 H           6.4437   -3.0547    5.3596 H       1  UNL1        0.0271
     52 H           8.5649   -2.6499    7.4953 H       1  UNL1        0.0275
     53 H           7.9451   -4.2197    6.8705 H       1  UNL1        0.0275
     54 H           7.2750   -4.8953    9.3045 H       1  UNL1        0.0239
     55 H           6.2461   -3.9023   10.2089 H       1  UNL1        0.0239
     56 H           7.8348   -3.2913    9.9299 H       1  UNL1        0.0239
     57 H           5.7771   -5.2372    8.2313 H       1  UNL1        0.0342
     58 H           4.2015   -5.2132    7.7510 H       1  UNL1        0.0342
     59 H           5.0056   -2.6184   10.1107 H       1  UNL1        0.0272
     60 H           3.8704   -2.1465    9.0248 H       1  UNL1        0.0272
     61 H           6.6119   -1.2954    8.9957 H       1  UNL1        0.0313
     62 H           6.4531   -0.1284   -2.3901 H       1  UNL1        0.0647
     63 H           5.0282    1.3927   -3.7377 H       1  UNL1        0.0584
     64 H           3.6887    0.2575   -3.6425 H       1  UNL1        0.0584
     65 H           6.2464   -0.3467   -4.7436 H       1  UNL1        0.2095
     66 H           3.9161   -1.8640   -2.4044 H       1  UNL1        0.0646
     67 H           6.6767   -2.4050   -2.9516 H       1  UNL1        0.2100
     68 H           6.4211   -2.3629   -0.7354 H       1  UNL1        0.0641
     69 H           3.8231   -3.5324   -0.6770 H       1  UNL1        0.2100
@<TRIPOS>BOND
     1     1     2    1
     2     2     3    2
     3     2     4   am
     4     5     6    1
     5     6     7    1
     6     8     9   ar
     7     9    10   ar
     8    10    11   ar
     9    11    12   ar
    10    12    13   ar
    11     8    13   ar
    12    12    14    1
    13    14    15    1
    14    15    16    1
    15    16    17    1
    16    11    17    1
    17    17    18    1
    18    18    19    1
    19    19    20    1
    20    20    22    1
    21    22    24    1
    22    24    25    1
    23    25    26    1
    24    16    26    1
    25    20    26    1
    26     6    27    1
    27    27    28    1
    28    28    29    1
    29    29    30    1
    30    28    31    1
    31    31    32    1
    32    31    33    1
    33     5    33    1
    34    33    34    1
    35     7     8    1
    36    20    21    1
    37    22    23    2
    38     5     4    1
    39     1    35    1
    40     1    36    1
    41     1    37    1
    42     4    38    1
    43     5    39    1
    44     6    40    1
    45     9    41    1
    46    10    42    1
    47    13    43    1
    48    14    44    1
    49    14    45    1
    50    15    46    1
    51    15    47    1
    52    16    48    1
    53    17    49    1
    54    18    50    1
    55    18    51    1
    56    19    52    1
    57    19    53    1
    58    21    54    1
    59    21    55    1
    60    21    56    1
    61    24    57    1
    62    24    58    1
    63    25    59    1
    64    25    60    1
    65    26    61    1
    66    28    62    1
    67    29    63    1
    68    29    64    1
    69    30    65    1
    70    31    66    1
    71    32    67    1
    72    33    68    1
    73    34    69    1
