REMARK  7 active torsions:
REMARK  status: ('A' for Active; 'I' for Inactive)
REMARK    1  A    between atoms: C_6  and  N_7 
REMARK       I    between atoms: N_7  and  C_8 
REMARK    2  A    between atoms: C_8  and  C_10 
REMARK    3  A    between atoms: C_10  and  N_11 
REMARK    4  A    between atoms: N_11  and  C_12 
REMARK    5  A    between atoms: C_15  and  C_16 
REMARK       I    between atoms: C_16  and  N_18 
REMARK    6  A    between atoms: N_18  and  C_19 
REMARK    7  A    between atoms: C_19  and  C_20 
ROOT
ATOM      1  C   UNL d   1      -3.462  -6.782   0.066  0.00  0.00     0.028 A 
ATOM      2  C   UNL d   1      -3.135  -7.949   0.766  0.00  0.00     0.030 A 
ATOM      3  C   UNL d   1      -3.906  -9.110   0.632  0.00  0.00     0.019 A 
ATOM      4  C   UNL d   1      -5.042  -9.108  -0.191  0.00  0.00     0.032 A 
ATOM      5  C   UNL d   1      -5.315  -7.973  -0.955  0.00  0.00     0.019 A 
ATOM      6  C   UNL d   1      -4.523  -6.830  -0.834  0.00  0.00     0.030 A 
ENDROOT
BRANCH   1   7
ATOM      7  N   UNL d   1      -2.713  -5.646   0.304  0.00  0.00    -0.381 N 
ATOM      8  H   UNL d   1      -1.734  -5.749   0.004  0.00  0.00     0.160 HD
BRANCH   7   9
ATOM      9  C   UNL d   1      -3.209  -4.277   0.050  0.00  0.00     0.223 C 
BRANCH   9  10
ATOM     10  C   UNL d   1      -1.983  -3.411  -0.254  0.00  0.00     0.239 C 
ATOM     11  N   UNL d   1      -2.070  -2.034  -0.023  0.00  0.00    -0.325 N 
ATOM     12  H   UNL d   1      -3.007  -1.664   0.069  0.00  0.00     0.169 HD
ATOM     13  O   UNL d   1      -1.033  -4.032  -0.742  0.00  0.00    -0.271 OA
BRANCH  11  14
ATOM     14  C   UNL d   1      -1.011  -1.038  -0.041  0.00  0.00     0.046 A 
ATOM     15  C   UNL d   1      -1.334   0.353  -0.017  0.00  0.00    -0.034 A 
ATOM     16  C   UNL d   1      -0.295   1.337   0.003  0.00  0.00     0.015 A 
ATOM     17  C   UNL d   1      -2.761   0.849   0.002  0.00  0.00     0.050 C 
ATOM     18  C   UNL d   1       1.054   0.971  -0.021  0.00  0.00    -0.061 A 
ATOM     19  C   UNL d   1       2.218   1.913   0.034  0.00  0.00     0.048 C 
ATOM     20  C   UNL d   1       1.361  -0.376  -0.042  0.00  0.00     0.015 A 
ATOM     21  C   UNL d   1       0.365  -1.360   0.001  0.00  0.00    -0.034 A 
ATOM     22  C   UNL d   1       0.907  -2.733   0.189  0.00  0.00     0.050 C 
ENDBRANCH  11  14
ENDBRANCH   9  10
ENDBRANCH   7   9
ENDBRANCH   1   7
BRANCH   4  23
ATOM     23  C   UNL d   1      -5.948 -10.301  -0.172  0.00  0.00     0.251 C 
ATOM     24  O   UNL d   1      -5.680 -11.258   0.528  0.00  0.00    -0.268 OA
ATOM     25  N   UNL d   1      -7.101 -10.244  -0.947  0.00  0.00    -0.351 N 
ATOM     26  H   UNL d   1      -7.366  -9.438  -1.486  0.00  0.00     0.163 HD
BRANCH  25  27
ATOM     27  C   UNL d   1      -8.033 -11.342  -0.914  0.00  0.00     0.187 C 
BRANCH  27  28
ATOM     28  C   UNL d   1      -9.180 -11.164  -1.847  0.00  0.00     0.070 A 
ATOM     29  C   UNL d   1     -10.014 -12.104  -2.420  0.00  0.00     0.036 A 
ATOM     30  C   UNL d   1     -10.942 -11.400  -3.216  0.00  0.00     0.027 A 
ATOM     31  C   UNL d   1     -10.631 -10.068  -3.074  0.00  0.00     0.142 A 
ATOM     32  O   UNL d   1      -9.561  -9.908  -2.242  0.00  0.00    -0.325 OA
ENDBRANCH  27  28
ENDBRANCH  25  27
ENDBRANCH   4  23
TORSDOF 7
