REMARK  6 active torsions:
REMARK  status: ('A' for Active; 'I' for Inactive)
REMARK       I    between atoms: N_1  and  C_2 
REMARK       I    between atoms: C_2  and  N_4 
REMARK    1  A    between atoms: N_4  and  C_5 
REMARK    2  A    between atoms: C_9  and  C_10 
REMARK       I    between atoms: C_10  and  N_12 
REMARK    3  A    between atoms: N_12  and  C_13 
REMARK    4  A    between atoms: C_16  and  O_17 
REMARK    5  A    between atoms: O_17  and  C_18 
REMARK    6  A    between atoms: C_18  and  C_19 
ROOT
ATOM      1  C   UNL d   1       7.407  -1.753  -1.010  0.00  0.00     0.256 C 
ATOM      2  O   UNL d   1       8.632  -1.693  -1.141  0.00  0.00    -0.267 OA
ATOM      3  N   UNL d   1       6.686  -2.943  -0.994  0.00  0.00    -0.322 N 
ATOM      4  H   UNL d   1       5.684  -2.934  -1.116  0.00  0.00     0.169 HD
ENDROOT
BRANCH   3   5
ATOM      5  C   UNL d   1       7.310  -4.205  -1.061  0.00  0.00     0.052 A 
ATOM      6  C   UNL d   1       8.482  -4.456  -0.366  0.00  0.00     0.035 A 
ATOM      7  C   UNL d   1       9.076  -5.709  -0.442  0.00  0.00     0.060 A 
ATOM      8  C   UNL d   1       8.489  -6.692  -1.227  0.00  0.00     0.164 A 
ATOM      9  N   UNL d   1       7.337  -6.480  -1.904  0.00  0.00    -0.235 NA
ATOM     10  C   UNL d   1       6.768  -5.251  -1.798  0.00  0.00     0.149 A 
BRANCH   8  11
ATOM     11  O   UNL d   1       8.998  -7.952  -1.391  0.00  0.00    -0.330 OA
BRANCH  11  12
ATOM     12  C   UNL d   1      10.187  -8.235  -0.656  0.00  0.00     0.216 C 
BRANCH  12  13
ATOM     13  C   UNL d   1      10.631  -9.658  -0.877  0.00  0.00    -0.034 A 
ATOM     14  C   UNL d   1       9.717 -10.711  -0.750  0.00  0.00     0.009 A 
ATOM     15  C   UNL d   1      10.155 -12.033  -0.802  0.00  0.00     0.001 A 
ATOM     16  C   UNL d   1      11.496 -12.314  -1.057  0.00  0.00     0.000 A 
ATOM     17  C   UNL d   1      12.411 -11.274  -1.207  0.00  0.00     0.001 A 
ATOM     18  C   UNL d   1      11.984  -9.951  -1.102  0.00  0.00     0.009 A 
ENDBRANCH  12  13
ENDBRANCH  11  12
ENDBRANCH   8  11
ENDBRANCH   3   5
BRANCH   1  19
ATOM     19  C   UNL d   1       6.647  -0.469  -0.953  0.00  0.00     0.034 A 
ATOM     20  C   UNL d   1       7.347   0.738  -1.095  0.00  0.00     0.017 A 
ATOM     21  C   UNL d   1       6.662   1.956  -1.119  0.00  0.00     0.003 A 
ATOM     22  C   UNL d   1       5.270   1.982  -0.969  0.00  0.00     0.029 A 
ATOM     23  C   UNL d   1       4.565   0.786  -0.815  0.00  0.00     0.037 A 
ATOM     24  C   UNL d   1       5.261  -0.427  -0.803  0.00  0.00     0.046 A 
BRANCH  23  25
ATOM     25  N   UNL d   1       3.154   0.780  -0.733  0.00  0.00    -0.309 N 
ATOM     26  C   UNL d   1       2.463  -0.085   0.076  0.00  0.00     0.318 C 
ATOM     27  N   UNL d   1       1.117   0.006  -0.005  0.00  0.00    -0.352 N 
ATOM     28  O   UNL d   1       2.955  -0.900   0.858  0.00  0.00    -0.247 OA
ATOM     29  H   UNL d   1       0.600  -0.613   0.607  0.00  0.00     0.160 HD
ATOM     30  H   UNL d   1       0.604   0.610  -0.626  0.00  0.00     0.160 HD
ATOM     31  H   UNL d   1       2.650   1.546  -1.156  0.00  0.00     0.170 HD
ENDBRANCH  23  25
ENDBRANCH   1  19
TORSDOF 6
