REMARK  5 active torsions:
REMARK  status: ('A' for Active; 'I' for Inactive)
REMARK    1  A    between atoms: C_2  and  N_5 
REMARK       I    between atoms: N_5  and  C_6 
REMARK    2  A    between atoms: C_6  and  C_8 
REMARK    3  A    between atoms: C_8  and  C_9 
REMARK    4  A    between atoms: C_9  and  C_10 
REMARK    5  A    between atoms: C_14  and  N_15 
ROOT
ATOM      1  C   UNL d   1       6.518   3.036  -0.445  0.00  0.00     0.048 C 
ENDROOT
BRANCH   1   2
ATOM      2  C   UNL d   1       4.984   2.924  -0.442  0.00  0.00     0.107 C 
BRANCH   2   3
ATOM      3  C   UNL d   1       4.567   1.498  -0.242  0.00  0.00     0.218 C 
ATOM      4  N   UNL d   1       3.201   1.287  -0.201  0.00  0.00    -0.353 N 
ATOM      5  H   UNL d   1       2.570   2.073  -0.312  0.00  0.00     0.163 HD
ATOM      6  O   UNL d   1       5.402   0.601  -0.108  0.00  0.00    -0.274 OA
BRANCH   4   7
ATOM      7  C   UNL d   1       2.642  -0.058   0.004  0.00  0.00     0.022 C 
ATOM      8  C   UNL d   1       1.102  -0.020   0.000  0.00  0.00     0.037 C 
ATOM      9  C   UNL d   1       3.093  -0.614   1.365  0.00  0.00     0.037 C 
ATOM     10  C   UNL d   1       3.091  -0.987  -1.136  0.00  0.00     0.037 C 
ENDBRANCH   4   7
ENDBRANCH   2   3
ENDBRANCH   1   2
BRANCH   1  11
ATOM     11  C   UNL d   1       7.019   4.445  -0.648  0.00  0.00    -0.056 A 
ATOM     12  C   UNL d   1       6.246   5.548  -0.267  0.00  0.00     0.007 A 
ATOM     13  C   UNL d   1       6.695   6.842  -0.487  0.00  0.00     0.003 A 
ATOM     14  C   UNL d   1       7.941   7.051  -1.067  0.00  0.00     0.029 A 
ATOM     15  C   UNL d   1       8.764   5.974  -1.403  0.00  0.00     0.026 A 
ATOM     16  C   UNL d   1       8.291   4.673  -1.200  0.00  0.00     0.036 A 
BRANCH  15  17
ATOM     17  N   UNL d   1       9.965   6.201  -2.057  0.00  0.00    -0.399 N 
ATOM     18  H   UNL d   1      10.335   7.142  -2.092  0.00  0.00     0.156 HD
ATOM     19  H   UNL d   1      10.612   5.436  -2.196  0.00  0.00     0.156 HD
ENDBRANCH  15  17
ENDBRANCH   1  11
TORSDOF 5
