@<TRIPOS>MOLECULE
*****
 52 53 0 0 0
SMALL
GASTEIGER

@<TRIPOS>ATOM
      1 O           1.0133    0.1253   -0.1189 O.2     1  UNL1       -0.1552
      2 S           2.4585    0.0223    0.0070 S.O2    1  UNL1        0.0431
      3 O           3.0808   -0.0881    1.3017 O.2     1  UNL1       -0.1552
      4 C           2.9760   -1.3633   -1.0094 C.3     1  UNL1        0.0848
      5 C           2.4741   -2.6958   -0.4864 C.3     1  UNL1       -0.0318
      6 C           3.0090   -3.8449   -1.3452 C.3     1  UNL1       -0.0515
      7 C           2.5230   -5.1862   -0.7977 C.3     1  UNL1       -0.0515
      8 C           3.0211   -6.3471   -1.6504 C.3     1  UNL1       -0.0318
      9 C           2.5247   -7.7041   -1.1309 C.3     1  UNL1        0.0848
     10 S           3.1643   -9.0088   -2.1899 S.O2    1  UNL1        0.0431
     11 O           2.5647   -8.8462   -3.4983 O.2     1  UNL1       -0.1552
     12 O           4.6019   -8.9835   -2.0196 O.2     1  UNL1       -0.1552
     13 N           2.5732  -10.4403   -1.5371 N.pl3   1  UNL1       -0.2205
     14 C           2.9540  -11.7027   -2.1138 C.ar    1  UNL1        0.0511
     15 C           4.2716  -11.9425   -2.5136 C.ar    1  UNL1       -0.0391
     16 C           4.6642  -13.1792   -3.0292 C.ar    1  UNL1       -0.0565
     17 C           3.7438  -14.2150   -3.1334 C.ar    1  UNL1       -0.0201
     18 C           2.4349  -13.9955   -2.7138 C.ar    1  UNL1        0.1187
     19 O           1.5052  -14.9954   -2.7804 O.3     1  UNL1       -0.5067
     20 C           2.0324  -12.7526   -2.2045 C.ar    1  UNL1        0.0022
     21 N           3.0645    1.3747   -0.8024 N.pl3   1  UNL1       -0.2205
     22 C           4.4572    1.6978   -0.7946 C.ar    1  UNL1        0.0511
     23 C           5.3658    0.7962   -1.3444 C.ar    1  UNL1       -0.0391
     24 C           6.7308    1.0549   -1.3878 C.ar    1  UNL1       -0.0565
     25 C           7.2075    2.2801   -0.9515 C.ar    1  UNL1       -0.0201
     26 C           6.3019    3.2230   -0.4684 C.ar    1  UNL1        0.1187
     27 O           6.7328    4.4627   -0.0893 O.3     1  UNL1       -0.5067
     28 C           4.9315    2.9412   -0.3725 C.ar    1  UNL1        0.0022
     29 H           4.0591   -1.4285   -0.9514 H       1  UNL1        0.0518
     30 H           2.6500   -1.1784   -2.0374 H       1  UNL1        0.0518
     31 H           1.3806   -2.7098   -0.4671 H       1  UNL1        0.0281
     32 H           2.8222   -2.8288    0.5453 H       1  UNL1        0.0281
     33 H           4.1075   -3.8268   -1.3589 H       1  UNL1        0.0266
     34 H           2.6782   -3.7185   -2.3838 H       1  UNL1        0.0266
     35 H           1.4277   -5.1901   -0.7736 H       1  UNL1        0.0266
     36 H           2.8763   -5.3069    0.2332 H       1  UNL1        0.0266
     37 H           4.1188   -6.3337   -1.6733 H       1  UNL1        0.0281
     38 H           2.6909   -6.2049   -2.6870 H       1  UNL1        0.0281
     39 H           1.4329   -7.7493   -1.1410 H       1  UNL1        0.0518
     40 H           2.8979   -7.8800   -0.1170 H       1  UNL1        0.0518
     41 H           1.9625  -10.4384   -0.7243 H       1  UNL1        0.1733
     42 H           5.0362  -11.1799   -2.4214 H       1  UNL1        0.0636
     43 H           5.6969  -13.3190   -3.3378 H       1  UNL1        0.0619
     44 H           4.0688  -15.1705   -3.5337 H       1  UNL1        0.0654
     45 H           1.9262  -15.7964   -3.1377 H       1  UNL1        0.2921
     46 H           0.9968  -12.6266   -1.9046 H       1  UNL1        0.0673
     47 H           2.3882    2.1362   -0.8685 H       1  UNL1        0.1733
     48 H           5.0344   -0.1083   -1.8249 H       1  UNL1        0.0636
     49 H           7.3976    0.3011   -1.7963 H       1  UNL1        0.0619
     50 H           8.2714    2.4813   -1.0221 H       1  UNL1        0.0654
     51 H           7.6953    4.5151   -0.2203 H       1  UNL1        0.2921
     52 H           4.2664    3.7074    0.0143 H       1  UNL1        0.0673
@<TRIPOS>BOND
     1     1     2    2
     2     2     3    2
     3     2     4    1
     4     4     5    1
     5     5     6    1
     6     6     7    1
     7     7     8    1
     8     8     9    1
     9     9    10    1
    10    10    11    2
    11    10    12    2
    12    10    13    1
    13    13    14    1
    14    14    15   ar
    15    15    16   ar
    16    16    17   ar
    17    17    18   ar
    18    18    19    1
    19    18    20   ar
    20    14    20   ar
    21     2    21    1
    22    21    22    1
    23    22    23   ar
    24    23    24   ar
    25    24    25   ar
    26    25    26   ar
    27    26    27    1
    28    26    28   ar
    29    22    28   ar
    30     4    29    1
    31     4    30    1
    32     5    31    1
    33     5    32    1
    34     6    33    1
    35     6    34    1
    36     7    35    1
    37     7    36    1
    38     8    37    1
    39     8    38    1
    40     9    39    1
    41     9    40    1
    42    13    41    1
    43    15    42    1
    44    16    43    1
    45    17    44    1
    46    19    45    1
    47    20    46    1
    48    21    47    1
    49    23    48    1
    50    24    49    1
    51    25    50    1
    52    27    51    1
    53    28    52    1
