@<TRIPOS>MOLECULE
*****
 68 71 0 0 0
SMALL
GASTEIGER

@<TRIPOS>ATOM
      1 C           2.5776   -6.0805    3.2969 C.3     1  UNL1        0.0788
      2 O           2.9216   -7.1668    2.4303 O.3     1  UNL1       -0.4951
      3 C           2.6771   -7.0000    1.0972 C.ar    1  UNL1        0.1208
      4 C           2.3286   -8.1004    0.3401 C.ar    1  UNL1       -0.0165
      5 C           2.1879   -7.9838   -1.0596 C.ar    1  UNL1       -0.0160
      6 C           2.3227   -6.7535   -1.7451 C.ar    1  UNL1        0.1289
      7 O           2.0210   -6.8572   -3.0799 O.3     1  UNL1       -0.4946
      8 C           2.0889   -5.8460   -4.0806 C.3     1  UNL1        0.0788
      9 C           2.6982   -5.6374   -0.9799 C.ar    1  UNL1        0.0466
     10 C           2.9510   -4.2567   -1.5588 C.3     1  UNL1        0.0244
     11 C           3.5362   -3.2077   -0.5753 C.3     1  UNL1        0.0593
     12 N           2.4643   -2.7707    0.3097 N.am    1  UNL1       -0.3055
     13 C           2.4267   -1.6355    1.0426 C.2     1  UNL1        0.2487
     14 O           3.4212   -0.9226    1.1770 O.2     1  UNL1       -0.2700
     15 C           1.1208   -1.2404    1.6095 C.ar    1  UNL1        0.0916
     16 C           0.8396    0.1028    1.7239 C.ar    1  UNL1        0.0455
     17 N          -0.2992    0.6033    2.2569 N.ar    1  UNL1       -0.2295
     18 C          -1.1924   -0.2887    2.6910 C.ar    1  UNL1        0.1899
     19 S          -2.6346    0.1945    3.5451 S.3     1  UNL1       -0.0813
     20 C          -2.6230    2.0369    3.5805 C.3     1  UNL1        0.0262
     21 C          -3.8475    2.5848    4.3170 C.ar    1  UNL1       -0.0371
     22 C          -3.8988    3.9269    4.7273 C.ar    1  UNL1       -0.0578
     23 C          -4.9417    4.3773    5.5514 C.ar    1  UNL1       -0.0615
     24 C          -5.9914    3.5272    5.8986 C.ar    1  UNL1       -0.0617
     25 C          -5.9924    2.2191    5.4449 C.ar    1  UNL1       -0.0615
     26 C          -4.9419    1.7651    4.6558 C.ar    1  UNL1       -0.0578
     27 N          -1.0584   -1.6148    2.5496 N.ar    1  UNL1       -0.2095
     28 C           0.0948   -2.0553    2.0311 C.ar    1  UNL1        0.1456
     29 CL          0.1088   -3.7758    1.9517 Cl      1  UNL1       -0.0611
     30 N           1.6430   -3.6702   -2.2014 N.4     1  UNL1        0.2419
     31 C           0.3863   -3.4837   -1.3845 C.3     1  UNL1       -0.0313
     32 C          -0.7768   -2.9510   -2.1840 C.3     1  UNL1       -0.0123
     33 C          -0.3118   -1.6631   -2.8411 C.3     1  UNL1       -0.0434
     34 C           0.7172   -2.0388   -3.8894 C.3     1  UNL1       -0.0123
     35 C           1.9684   -2.5771   -3.2109 C.3     1  UNL1       -0.0313
     36 C           2.8771   -5.8069    0.4276 C.ar    1  UNL1       -0.0079
     37 H           2.9307   -6.3137    4.3064 H       1  UNL1        0.0660
     38 H           1.4905   -5.9763    3.3347 H       1  UNL1        0.0660
     39 H           3.0429   -5.1261    3.0266 H       1  UNL1        0.0660
     40 H           2.1621   -9.0558    0.8349 H       1  UNL1        0.0655
     41 H           1.9778   -8.8961   -1.6199 H       1  UNL1        0.0655
     42 H           2.0357   -6.2657   -5.0840 H       1  UNL1        0.0660
     43 H           3.0093   -5.2645   -4.0196 H       1  UNL1        0.0660
     44 H           1.1867   -5.2232   -4.0874 H       1  UNL1        0.0660
     45 H           3.7018   -4.3884   -2.3503 H       1  UNL1        0.0921
     46 H           4.3482   -3.6064    0.0410 H       1  UNL1        0.0522
     47 H           3.9597   -2.3634   -1.1300 H       1  UNL1        0.0522
     48 H           1.7628   -3.4708    0.5221 H       1  UNL1        0.1492
     49 H           1.5451    0.8533    1.3761 H       1  UNL1        0.0839
     50 H          -2.5952    2.4404    2.5624 H       1  UNL1        0.0429
     51 H          -1.7240    2.3644    4.1178 H       1  UNL1        0.0429
     52 H          -3.1261    4.6353    4.4346 H       1  UNL1        0.0621
     53 H          -4.9299    5.3901    5.9476 H       1  UNL1        0.0618
     54 H          -6.8112    3.8800    6.5173 H       1  UNL1        0.0618
     55 H          -6.7871    1.5303    5.7171 H       1  UNL1        0.0618
     56 H          -4.9988    0.7283    4.3388 H       1  UNL1        0.0621
     57 H           1.3106   -4.5043   -2.6483 H       1  UNL1        0.2040
     58 H           0.5462   -2.6927   -0.6736 H       1  UNL1        0.0814
     59 H           0.1462   -4.4343   -0.8981 H       1  UNL1        0.0814
     60 H          -1.5950   -2.7339   -1.4884 H       1  UNL1        0.0317
     61 H          -1.1411   -3.6830   -2.9122 H       1  UNL1        0.0317
     62 H           0.1569   -1.0001   -2.0966 H       1  UNL1        0.0269
     63 H          -1.1539   -1.1179   -3.2682 H       1  UNL1        0.0269
     64 H           0.9681   -1.1589   -4.4900 H       1  UNL1        0.0317
     65 H           0.2994   -2.7876   -4.5735 H       1  UNL1        0.0317
     66 H           2.4726   -1.7737   -2.6682 H       1  UNL1        0.0814
     67 H           2.6663   -2.9808   -3.9547 H       1  UNL1        0.0814
     68 H           3.2180   -4.9880    1.0457 H       1  UNL1        0.0660
@<TRIPOS>UNITY_ATOM_ATTR
30 1
charge 1
@<TRIPOS>BOND
     1     1     2    1
     2     2     3    1
     3     3     4   ar
     4     4     5   ar
     5     5     6   ar
     6     6     7    1
     7     7     8    1
     8     6     9   ar
     9    11    12    1
    10    12    13   am
    11    13    14    2
    12    13    15    1
    13    15    16   ar
    14    16    17   ar
    15    17    18   ar
    16    18    19    1
    17    19    20    1
    18    20    21    1
    19    21    22   ar
    20    22    23   ar
    21    23    24   ar
    22    24    25   ar
    23    25    26   ar
    24    21    26   ar
    25    18    27   ar
    26    27    28   ar
    27    15    28   ar
    28    28    29    1
    29    10    30    1
    30    30    31    1
    31    31    32    1
    32    32    33    1
    33    33    34    1
    34    34    35    1
    35    30    35    1
    36     9    36   ar
    37     3    36   ar
    38    10    11    1
    39    10     9    1
    40     1    37    1
    41     1    38    1
    42     1    39    1
    43     4    40    1
    44     5    41    1
    45     8    42    1
    46     8    43    1
    47     8    44    1
    48    10    45    1
    49    11    46    1
    50    11    47    1
    51    12    48    1
    52    16    49    1
    53    20    50    1
    54    20    51    1
    55    22    52    1
    56    23    53    1
    57    24    54    1
    58    25    55    1
    59    26    56    1
    60    30    57    1
    61    31    58    1
    62    31    59    1
    63    32    60    1
    64    32    61    1
    65    33    62    1
    66    33    63    1
    67    34    64    1
    68    34    65    1
    69    35    66    1
    70    35    67    1
    71    36    68    1
