REMARK  7 active torsions:
REMARK  status: ('A' for Active; 'I' for Inactive)
REMARK    1  A    between atoms: O_2  and  C_3 
REMARK    2  A    between atoms: N_11  and  C_12 
REMARK    3  A    between atoms: C_12  and  C_13 
REMARK    4  A    between atoms: C_13  and  C_14 
REMARK    5  A    between atoms: C_14  and  C_15 
REMARK    6  A    between atoms: C_15  and  C_16 
REMARK       I    between atoms: C_16  and  N_18 
REMARK    7  A    between atoms: C_21  and  C_22 
REMARK       I    between atoms: C_22  and  N_23 
ROOT
ATOM      1  C   UNL d   1       3.137  -1.211  -0.149  0.00  0.00     0.069 A 
ATOM      2  C   UNL d   1       2.739  -2.157  -1.093  0.00  0.00     0.039 A 
ATOM      3  C   UNL d   1       3.403  -3.382  -1.227  0.00  0.00     0.033 A 
ATOM      4  C   UNL d   1       4.493  -3.623  -0.392  0.00  0.00     0.045 A 
ATOM      5  N   UNL d   1       5.323  -4.726  -0.305  0.00  0.00    -0.349 N 
ATOM      6  C   UNL d   1       6.265  -4.516   0.662  0.00  0.00     0.129 A 
ATOM      7  C   UNL d   1       7.318  -5.377   1.101  0.00  0.00     0.279 A 
ATOM      8  O   UNL d   1       7.491  -6.492   0.603  0.00  0.00    -0.265 OA
ATOM      9  N   UNL d   1       8.120  -4.830   2.144  0.00  0.00    -0.289 N 
ATOM     10  C   UNL d   1       7.878  -3.536   2.687  0.00  0.00     0.181 A 
ATOM     11  S   UNL d   1       8.629  -2.631   3.894  0.00  0.00    -0.040 SA
ATOM     12  N   UNL d   1       6.835  -2.821   2.171  0.00  0.00    -0.330 N 
ATOM     13  C   UNL d   1       6.034  -3.280   1.182  0.00  0.00     0.079 A 
ATOM     14  C   UNL d   1       4.929  -2.685   0.547  0.00  0.00     0.022 A 
ATOM     15  C   UNL d   1       4.251  -1.453   0.663  0.00  0.00     0.053 A 
ATOM     16  H   UNL d   1       5.248  -5.563  -0.868  0.00  0.00     0.166 HD
ATOM     17  H   UNL d   1       6.678  -1.904   2.569  0.00  0.00     0.168 HD
ENDROOT
BRANCH   9  18
ATOM     18  C   UNL d   1       9.198  -5.765   2.564  0.00  0.00     0.135 C 
BRANCH  18  19
ATOM     19  C   UNL d   1      10.092  -5.259   3.672  0.00  0.00     0.021 C 
BRANCH  19  20
ATOM     20  C   UNL d   1      11.198  -6.159   4.152  0.00  0.00     0.011 C 
BRANCH  20  21
ATOM     21  C   UNL d   1      11.954  -5.449   5.289  0.00  0.00     0.103 C 
BRANCH  21  22
ATOM     22  C   UNL d   1      13.120  -6.302   5.755  0.00  0.00     0.219 C 
ATOM     23  O   UNL d   1      13.411  -7.357   5.196  0.00  0.00    -0.273 OA
ATOM     24  N   UNL d   1      13.917  -5.747   6.740  0.00  0.00    -0.352 N 
ATOM     25  C   UNL d   1      15.353  -6.001   6.731  0.00  0.00     0.126 C 
ATOM     26  C   UNL d   1      13.390  -5.153   7.954  0.00  0.00     0.126 C 
ATOM     27  C   UNL d   1      15.792  -6.844   7.922  0.00  0.00     0.034 C 
ATOM     28  C   UNL d   1      15.310  -6.218   9.244  0.00  0.00     0.081 C 
ATOM     29  C   UNL d   1      13.792  -5.992   9.181  0.00  0.00     0.034 C 
BRANCH  28  30
ATOM     30  C   UNL d   1      16.125  -4.960   9.572  0.00  0.00     0.219 C 
ATOM     31  N   UNL d   1      15.456  -3.801   9.825  0.00  0.00    -0.370 N 
ATOM     32  H   UNL d   1      14.454  -3.695   9.853  0.00  0.00     0.159 HD
ATOM     33  H   UNL d   1      16.004  -2.965   9.981  0.00  0.00     0.159 HD
ATOM     34  O   UNL d   1      17.352  -4.963   9.610  0.00  0.00    -0.273 OA
ENDBRANCH  28  30
ENDBRANCH  21  22
ENDBRANCH  20  21
ENDBRANCH  19  20
ENDBRANCH  18  19
ENDBRANCH   9  18
BRANCH   1  35
ATOM     35  O   UNL d   1       2.537   0.013  -0.009  0.00  0.00    -0.356 OA
ATOM     36  C   UNL d   1       1.111  -0.020  -0.059  0.00  0.00     0.210 C 
ENDBRANCH   1  35
TORSDOF 7
