@<TRIPOS>MOLECULE
*****
 53 56 0 0 0
SMALL
GASTEIGER

@<TRIPOS>ATOM
      1 C           1.1027   -0.1290   -0.0644 C.3     1  UNL1        0.0790
      2 O           2.5294   -0.0794   -0.0509 O.3     1  UNL1       -0.4913
      3 C           3.1208    1.1679   -0.0518 C.ar    1  UNL1        0.1653
      4 C           4.5242    1.1279   -0.0668 C.ar    1  UNL1       -0.0118
      5 C           5.2802    2.3083   -0.0794 C.ar    1  UNL1       -0.0266
      6 C           6.8116    2.2559   -0.0999 C.3     1  UNL1        0.0402
      7 C           7.4135    2.9760    1.1373 C.3     1  UNL1        0.0026
      8 C           8.9126    2.7637    1.4093 C.2     1  UNL1        0.0268
      9 C           9.3887    2.0319    2.4513 C.2     1  UNL1        0.1162
     10 C           8.5004    1.2058    3.2845 C.2     1  UNL1        0.2580
     11 O           7.5760    1.6482    3.9629 O.2     1  UNL1       -0.2695
     12 N           8.8492   -0.1080    3.2569 N.am    1  UNL1       -0.2355
     13 C          10.1690   -0.3954    3.4683 C.2     1  UNL1        0.3150
     14 O          10.5221   -1.2044    4.3189 O.2     1  UNL1       -0.2518
     15 N          11.0265    0.3370    2.6839 N.am    1  UNL1       -0.2246
     16 C          12.1210   -0.3325    2.0216 C.3     1  UNL1        0.0126
     17 C          10.8408    1.6995    2.5682 C.2     1  UNL1        0.2603
     18 O          11.7344    2.5382    2.6068 O.2     1  UNL1       -0.2693
     19 N           9.7950    3.3047    0.4717 N.pl3   1  UNL1       -0.3162
     20 C          10.0236    2.6021   -0.7386 C.ar    1  UNL1        0.0447
     21 C          11.3257    2.1282   -0.9319 C.ar    1  UNL1       -0.0395
     22 C          11.6347    1.2959   -2.0040 C.ar    1  UNL1       -0.0599
     23 C          10.6556    0.9726   -2.9366 C.ar    1  UNL1       -0.0606
     24 C           9.3763    1.5128   -2.8128 C.ar    1  UNL1       -0.0465
     25 C           9.0527    2.3374   -1.7229 C.ar    1  UNL1        0.0296
     26 S           7.4011    2.9973   -1.6783 S.3     1  UNL1       -0.1149
     27 C           4.5843    3.5343   -0.0802 C.ar    1  UNL1       -0.0118
     28 C           3.1775    3.6054   -0.0568 C.ar    1  UNL1        0.1653
     29 O           2.7174    4.8987   -0.0593 O.3     1  UNL1       -0.4913
     30 C           1.3207    5.1266   -0.0334 C.3     1  UNL1        0.0790
     31 C           2.4490    2.4086   -0.0380 C.ar    1  UNL1        0.2010
     32 O           1.0886    2.3291   -0.0086 O.3     1  UNL1       -0.5009
     33 H           0.7768   -1.1693   -0.0783 H       1  UNL1        0.0660
     34 H           0.6996    0.3357   -0.9744 H       1  UNL1        0.0660
     35 H           0.6865    0.3113    0.8513 H       1  UNL1        0.0660
     36 H           5.0152    0.1563   -0.0717 H       1  UNL1        0.0658
     37 H           7.1215    1.2011   -0.0977 H       1  UNL1        0.0468
     38 H           6.8272    2.6479    2.0004 H       1  UNL1        0.0340
     39 H           7.2258    4.0545    1.0719 H       1  UNL1        0.0340
     40 H           8.2251   -0.7147    3.7659 H       1  UNL1        0.1594
     41 H          12.1108   -1.4074    2.2308 H       1  UNL1        0.0434
     42 H          13.0910    0.1087    2.2507 H       1  UNL1        0.0434
     43 H          11.9372   -0.2148    0.9460 H       1  UNL1        0.0434
     44 H           9.7119    4.3109    0.3316 H       1  UNL1        0.1519
     45 H          12.0903    2.3745   -0.1980 H       1  UNL1        0.0636
     46 H          12.6367    0.8878   -2.0939 H       1  UNL1        0.0618
     47 H          10.8892    0.3079   -3.7642 H       1  UNL1        0.0618
     48 H           8.6265    1.2652   -3.5635 H       1  UNL1        0.0629
     49 H           5.1492    4.4664   -0.1141 H       1  UNL1        0.0658
     50 H           1.1085    6.1960   -0.0443 H       1  UNL1        0.0660
     51 H           0.8924    4.7378    0.8992 H       1  UNL1        0.0660
     52 H           0.8500    4.7072   -0.9319 H       1  UNL1        0.0660
     53 H           0.5994    3.1450    0.0420 H       1  UNL1        0.2924
@<TRIPOS>BOND
     1     1     2    1
     2     2     3    1
     3     3     4   ar
     4     4     5   ar
     5     5     6    1
     6     6     7    1
     7     7     8    1
     8     8     9    2
     9     9    10    1
    10    10    11    2
    11    10    12   am
    12    12    13   am
    13    13    14    2
    14    13    15   am
    15    15    16    1
    16    15    17   am
    17     9    17    1
    18    17    18    2
    19     8    19    1
    20    19    20    1
    21    20    21   ar
    22    21    22   ar
    23    22    23   ar
    24    23    24   ar
    25    24    25   ar
    26    20    25   ar
    27    25    26    1
    28     6    26    1
    29     5    27   ar
    30    27    28   ar
    31    28    29    1
    32    29    30    1
    33    28    31   ar
    34     3    31   ar
    35    31    32    1
    36     1    33    1
    37     1    34    1
    38     1    35    1
    39     4    36    1
    40     6    37    1
    41     7    38    1
    42     7    39    1
    43    12    40    1
    44    16    41    1
    45    16    42    1
    46    16    43    1
    47    19    44    1
    48    21    45    1
    49    22    46    1
    50    23    47    1
    51    24    48    1
    52    27    49    1
    53    30    50    1
    54    30    51    1
    55    30    52    1
    56    32    53    1
