@<TRIPOS>MOLECULE
*****
 33 35 0 0 0
SMALL
GASTEIGER

@<TRIPOS>ATOM
      1 O           2.6338   -1.2414    0.3989 O.2     1  UNL1       -0.2916
      2 C           3.6605   -0.5252    0.5328 C.2     1  UNL1        0.1696
      3 C           3.5174    0.9783    0.8797 C.3     1  UNL1        0.0357
      4 C           2.2718    1.8581    1.2320 C.ar    1  UNL1       -0.0399
      5 C           2.4146    3.2675    1.0277 C.ar    1  UNL1       -0.0582
      6 C           1.5941    4.2292    1.6556 C.ar    1  UNL1       -0.0615
      7 C           0.5664    3.8146    2.4862 C.ar    1  UNL1       -0.0617
      8 C           0.3164    2.4454    2.6031 C.ar    1  UNL1       -0.0615
      9 C           1.1524    1.4744    1.9815 C.ar    1  UNL1       -0.0582
     10 C           4.9119   -0.9661   -0.2482 C.ar    1  UNL1        0.0463
     11 C           4.7063   -0.5882   -1.5923 C.ar    1  UNL1        0.0135
     12 N           4.8535   -1.8740   -2.0716 N.ar    1  UNL1       -0.3570
     13 C           6.1720   -2.0867   -1.7384 C.ar    1  UNL1        0.0927
     14 C           7.1388   -2.5947   -2.5952 C.ar    1  UNL1        0.1409
     15 O           6.8157   -2.8377   -3.8967 O.3     1  UNL1       -0.5047
     16 C           8.4438   -2.6661   -2.2209 C.ar    1  UNL1       -0.0146
     17 C           8.7166   -2.3413   -0.9101 C.ar    1  UNL1       -0.0160
     18 C           7.6879   -1.8696    0.0275 C.ar    1  UNL1        0.1269
     19 O           8.2466   -1.5867    1.2711 O.3     1  UNL1       -0.5061
     20 C           6.3283   -1.5579   -0.4293 C.ar    1  UNL1        0.0551
     21 H           3.8914    1.4450   -0.0360 H       1  UNL1        0.0394
     22 H           4.2201    1.1500    1.6971 H       1  UNL1        0.0394
     23 H           3.2324    3.6538    0.4199 H       1  UNL1        0.0620
     24 H           1.7929    5.2955    1.5391 H       1  UNL1        0.0618
     25 H          -0.0215    4.5434    3.0464 H       1  UNL1        0.0618
     26 H          -0.5128    2.1316    3.2371 H       1  UNL1        0.0618
     27 H           0.9260    0.4271    2.1578 H       1  UNL1        0.0620
     28 H           5.2815    0.1733   -2.1260 H       1  UNL1        0.0814
     29 H           4.1831   -2.6312   -1.9930 H       1  UNL1        0.1655
     30 H           5.9914   -2.3432   -4.0496 H       1  UNL1        0.2922
     31 H           9.1964   -2.9228   -2.9633 H       1  UNL1        0.0656
     32 H           9.7770   -2.3960   -0.6476 H       1  UNL1        0.0655
     33 H           9.1984   -1.8182    1.1817 H       1  UNL1        0.2922
@<TRIPOS>BOND
     1     1     2    2
     2     2     3    1
     3     3     4    1
     4     4     5   ar
     5     5     6   ar
     6     6     7   ar
     7     7     8   ar
     8     8     9   ar
     9     4     9   ar
    10     2    10    1
    11    10    11   ar
    12    11    12   ar
    13    12    13   ar
    14    13    14   ar
    15    14    15    1
    16    14    16   ar
    17    16    17   ar
    18    17    18   ar
    19    18    19    1
    20    18    20   ar
    21    10    20   ar
    22    13    20   ar
    23     3    21    1
    24     3    22    1
    25     5    23    1
    26     6    24    1
    27     7    25    1
    28     8    26    1
    29     9    27    1
    30    11    28    1
    31    12    29    1
    32    15    30    1
    33    16    31    1
    34    17    32    1
    35    19    33    1
