REMARK  9 active torsions:
REMARK  status: ('A' for Active; 'I' for Inactive)
REMARK    1  A    between atoms: C_2  and  O_3 
REMARK    2  A    between atoms: O_3  and  C_4 
REMARK    3  A    between atoms: C_8  and  C_9 
REMARK       I    between atoms: C_9  and  N_11 
REMARK    4  A    between atoms: N_11  and  C_12 
REMARK    5  A    between atoms: C_12  and  N_14 
REMARK    6  A    between atoms: N_14  and  N_15 
REMARK       I    between atoms: N_15  and  C_16 
REMARK    7  A    between atoms: C_18  and  C_16 
REMARK    8  A    between atoms: C_18  and  O_20 
REMARK    9  A    between atoms: O_20  and  C_21 
ROOT
ATOM      1  N   UNL d   1      10.870  -9.705  -0.103  0.00  0.00    -0.273 N 
ATOM      2  H   UNL d   1      11.494  -8.899  -0.122  0.00  0.00     0.189 HD
ENDROOT
BRANCH   1   3
ATOM      3  C   UNL d   1      11.265 -11.041   0.162  0.00  0.00     0.193 C 
ATOM      4  S   UNL d   1      10.198 -12.328  -0.006  0.00  0.00    -0.039 SA
BRANCH   3   5
ATOM      5  N   UNL d   1      12.569 -11.200   0.656  0.00  0.00    -0.298 N 
ATOM      6  C   UNL d   1      13.186 -12.448   0.975  0.00  0.00     0.258 C 
ATOM      7  O   UNL d   1      12.932 -13.502   0.419  0.00  0.00    -0.267 OA
ATOM      8  H   UNL d   1      12.965 -10.365   1.046  0.00  0.00     0.171 HD
BRANCH   6   9
ATOM      9  C   UNL d   1      14.299 -12.499   1.975  0.00  0.00     0.035 A 
ATOM     10  C   UNL d   1      14.886 -13.749   2.273  0.00  0.00     0.017 A 
ATOM     11  C   UNL d   1      15.990 -13.835   3.123  0.00  0.00     0.004 A 
ATOM     12  C   UNL d   1      16.476 -12.681   3.731  0.00  0.00     0.037 A 
ATOM     13  C   UNL d   1      15.893 -11.443   3.453  0.00  0.00     0.069 A 
ATOM     14  C   UNL d   1      14.809 -11.357   2.578  0.00  0.00     0.053 A 
BRANCH  13  15
ATOM     15  O   UNL d   1      16.511 -10.341   3.978  0.00  0.00    -0.351 OA
BRANCH  15  16
ATOM     16  C   UNL d   1      15.640  -9.272   4.354  0.00  0.00     0.171 C 
ATOM     17  C   UNL d   1      16.495  -8.091   4.761  0.00  0.00     0.034 C 
ENDBRANCH  15  16
ENDBRANCH  13  15
ENDBRANCH   6   9
ENDBRANCH   3   5
ENDBRANCH   1   3
BRANCH   1  18
ATOM     18  N   UNL d   1       9.553  -9.463  -0.746  0.00  0.00    -0.266 N 
ATOM     19  C   UNL d   1       9.314  -8.303  -1.492  0.00  0.00     0.265 C 
ATOM     20  O   UNL d   1       9.944  -7.262  -1.290  0.00  0.00    -0.269 OA
ATOM     21  H   UNL d   1       9.179 -10.323  -1.132  0.00  0.00     0.190 HD
BRANCH  19  22
ATOM     22  C   UNL d   1       8.229  -8.408  -2.678  0.00  0.00     0.218 C 
ATOM     23  C   UNL d   1       7.270  -7.202  -2.501  0.00  0.00     0.050 C 
BRANCH  22  24
ATOM     24  O   UNL d   1       7.442  -9.571  -2.937  0.00  0.00    -0.335 OA
BRANCH  24  25
ATOM     25  C   UNL d   1       8.008 -10.755  -3.350  0.00  0.00     0.091 C 
ATOM     26  C   UNL d   1       7.102 -11.718  -3.825  0.00  0.00     0.040 C 
ATOM     27  C   UNL d   1       7.482 -13.067  -3.976  0.00  0.00     0.026 C 
ATOM     28  C   UNL d   1       8.754 -13.472  -3.601  0.00  0.00     0.035 C 
ATOM     29 CL   UNL d   1       9.294 -15.092  -3.780  0.00  0.00    -0.084 Cl
ATOM     30  C   UNL d   1       9.677 -12.518  -3.238  0.00  0.00     0.050 C 
ATOM     31  C   UNL d   1       9.342 -11.164  -3.267  0.00  0.00     0.069 C 
ATOM     32 CL   UNL d   1      10.722 -10.131  -3.389  0.00  0.00    -0.081 Cl
ENDBRANCH  24  25
ENDBRANCH  22  24
ENDBRANCH  19  22
ENDBRANCH   1  18
TORSDOF 9
