REMARK  3 active torsions:
REMARK  status: ('A' for Active; 'I' for Inactive)
REMARK       I    between atoms: C_2  and  N_3 
REMARK    1  A    between atoms: C_2  and  C_15 
REMARK    2  A    between atoms: N_3  and  N_4 
REMARK       I    between atoms: N_4  and  C_5 
REMARK    3  A    between atoms: C_5  and  C_7 
ROOT
ATOM      1  N   UNL d   1       2.348  -1.498   2.116  0.00  0.00    -0.263 N 
ATOM      2  C   UNL d   1       3.065  -2.105   3.136  0.00  0.00     0.273 C 
ATOM      3  O   UNL d   1       4.296  -2.086   3.197  0.00  0.00    -0.266 OA
ATOM      4  H   UNL d   1       1.329  -1.464   2.080  0.00  0.00     0.190 HD
ENDROOT
BRANCH   1   5
ATOM      5  N   UNL d   1       3.032  -0.850   1.046  0.00  0.00    -0.263 N 
ATOM      6  C   UNL d   1       2.287  -0.164   0.095  0.00  0.00     0.270 C 
ATOM      7  O   UNL d   1       1.057  -0.112   0.128  0.00  0.00    -0.266 OA
ATOM      8  H   UNL d   1       4.046  -0.794   1.122  0.00  0.00     0.190 HD
BRANCH   6   9
ATOM      9  C   UNL d   1       3.030   0.581  -0.971  0.00  0.00     0.033 A 
ATOM     10  C   UNL d   1       4.120   0.034  -1.661  0.00  0.00     0.017 A 
ATOM     11  C   UNL d   1       4.792   0.794  -2.632  0.00  0.00     0.001 A 
ATOM     12  C   UNL d   1       4.343   2.072  -2.969  0.00  0.00     0.000 A 
ATOM     13  C   UNL d   1       3.239   2.610  -2.311  0.00  0.00     0.001 A 
ATOM     14  C   UNL d   1       2.586   1.868  -1.318  0.00  0.00     0.017 A 
ENDBRANCH   6   9
ENDBRANCH   1   5
BRANCH   2  15
ATOM     15  C   UNL d   1       2.291  -2.762   4.228  0.00  0.00     0.073 A 
ATOM     16  C   UNL d   1       2.670  -2.564   5.567  0.00  0.00     0.044 A 
ATOM     17  C   UNL d   1       1.942  -3.169   6.600  0.00  0.00     0.035 A 
ATOM     18 CL   UNL d   1       2.379  -2.893   8.243  0.00  0.00    -0.084 Cl
ATOM     19  C   UNL d   1       0.852  -3.991   6.317  0.00  0.00     0.027 A 
ATOM     20  C   UNL d   1       0.495  -4.220   4.987  0.00  0.00     0.045 A 
ATOM     21  C   UNL d   1       1.216  -3.611   3.954  0.00  0.00     0.132 A 
ATOM     22  F   UNL d   1       0.863  -3.880   2.691  0.00  0.00    -0.205 F 
ENDBRANCH   2  15
TORSDOF 3
