@<TRIPOS>MOLECULE
*****
 50 53 0 0 0
SMALL
GASTEIGER

@<TRIPOS>ATOM
      1 N           0.8445    0.2936    0.1044 N.am    1  UNL1       -0.3291
      2 C           2.1581    0.0535    0.1263 C.2     1  UNL1        0.2137
      3 O           2.4439   -1.1488    0.0435 O.2     1  UNL1       -0.2757
      4 C           3.2434    1.1563    0.2704 C.3     1  UNL1        0.0382
      5 C           3.2538    2.5350   -0.4522 C.3     1  UNL1       -0.0260
      6 C           3.2096    2.4364   -1.9786 C.3     1  UNL1        0.0157
      7 N           4.2074    1.4790   -2.4533 N.am    1  UNL1       -0.2975
      8 C           5.2059    1.8688   -3.3356 C.2     1  UNL1        0.2466
      9 O           5.3293    2.9946   -3.8001 O.2     1  UNL1       -0.2700
     10 C           6.1458    0.8342   -3.7968 C.ar    1  UNL1        0.0370
     11 C           7.5273    0.9851   -3.6735 C.ar    1  UNL1       -0.0476
     12 C           8.3760    0.0140   -4.2188 C.ar    1  UNL1       -0.0355
     13 C           7.8498   -1.1288   -4.8310 C.ar    1  UNL1        0.0665
     14 N           8.7426   -2.1143   -5.2502 N.2     1  UNL1       -0.2264
     15 C           8.3981   -3.2538   -5.7132 C.2     1  UNL1        0.1551
     16 N           7.2114   -3.9118   -5.9742 N.pl3   1  UNL1       -0.3182
     17 C           7.3453   -4.9143   -6.9858 C.3     1  UNL1        0.0554
     18 C           6.2461   -5.9276   -7.1790 C.3     1  UNL1        0.0852
     19 S           7.1893   -7.3422   -7.8019 S.O2    1  UNL1       -0.0281
     20 O           6.9575   -7.4810   -9.2149 O.2     1  UNL1       -0.1743
     21 O           7.0040   -8.4411   -6.8662 O.2     1  UNL1       -0.1743
     22 C           8.8451   -6.6728   -7.5541 C.3     1  UNL1        0.0798
     23 C           8.5728   -5.6675   -6.4888 C.3     1  UNL1        0.0516
     24 S           9.7487   -4.3312   -6.1885 S.3     1  UNL1       -0.0837
     25 C           6.4688   -1.2015   -4.9846 C.ar    1  UNL1       -0.0355
     26 C           5.6146   -0.2560   -4.4644 C.ar    1  UNL1       -0.0476
     27 C           4.1781    0.1882   -1.7798 C.3     1  UNL1        0.0157
     28 C           4.4685    0.4060   -0.2852 C.3     1  UNL1       -0.0260
     29 H           0.3084   -0.5652    0.0002 H       1  UNL1        0.1449
     30 H           0.3755    1.1618    0.2827 H       1  UNL1        0.1449
     31 H           3.3363    1.3623    1.3434 H       1  UNL1        0.0395
     32 H           4.2169    3.0228   -0.2074 H       1  UNL1        0.0288
     33 H           2.4855    3.2213   -0.0847 H       1  UNL1        0.0288
     34 H           3.3637    3.4196   -2.4409 H       1  UNL1        0.0465
     35 H           2.2190    2.0822   -2.2803 H       1  UNL1        0.0465
     36 H           7.9407    1.8475   -3.1609 H       1  UNL1        0.0626
     37 H           9.4554    0.1570   -4.1883 H       1  UNL1        0.0639
     38 H           6.2950   -3.5825   -5.7435 H       1  UNL1        0.1483
     39 H           7.5061   -4.4158   -7.9547 H       1  UNL1        0.0525
     40 H           5.5265   -5.6124   -7.9434 H       1  UNL1        0.0519
     41 H           5.7114   -6.1923   -6.2636 H       1  UNL1        0.0519
     42 H           9.1755   -6.1961   -8.4819 H       1  UNL1        0.0511
     43 H           9.5455   -7.4400   -7.2294 H       1  UNL1        0.0511
     44 H           8.3564   -6.1533   -5.5248 H       1  UNL1        0.0451
     45 H           5.9741   -1.9552   -5.5542 H       1  UNL1        0.0639
     46 H           4.5450   -0.3989   -4.5843 H       1  UNL1        0.0626
     47 H           4.8662   -0.5573   -2.1647 H       1  UNL1        0.0465
     48 H           3.1765   -0.1996   -2.0090 H       1  UNL1        0.0465
     49 H           5.4005    0.9623   -0.1371 H       1  UNL1        0.0288
     50 H           4.6081   -0.5507    0.2310 H       1  UNL1        0.0288
@<TRIPOS>BOND
     1     1     2   am
     2     2     3    2
     3     2     4    1
     4     4     5    1
     5     5     6    1
     6     6     7    1
     7     7     8   am
     8     8     9    2
     9     8    10    1
    10    10    11   ar
    11    11    12   ar
    12    12    13   ar
    13    13    14    1
    14    14    15    2
    15    15    16    1
    16    16    17    1
    17    17    18    1
    18    18    19    1
    19    19    20    2
    20    19    21    2
    21    19    22    1
    22    22    23    1
    23    17    23    1
    24    23    24    1
    25    15    24    1
    26    13    25   ar
    27    25    26   ar
    28    10    26   ar
    29     7    27    1
    30    27    28    1
    31     4    28    1
    32     1    29    1
    33     1    30    1
    34     4    31    1
    35     5    32    1
    36     5    33    1
    37     6    34    1
    38     6    35    1
    39    11    36    1
    40    12    37    1
    41    16    38    1
    42    17    39    1
    43    18    40    1
    44    18    41    1
    45    22    42    1
    46    22    43    1
    47    23    44    1
    48    25    45    1
    49    26    46    1
    50    27    47    1
    51    27    48    1
    52    28    49    1
    53    28    50    1
