@<TRIPOS>MOLECULE
*****
 68 72 0 0 0
SMALL
GASTEIGER

@<TRIPOS>ATOM
      1 C           0.9249   -0.3395    0.2708 C.3     1  UNL1       -0.0564
      2 C           2.5095   -0.0602    0.1404 C.3     1  UNL1        0.0036
      3 C           3.2237   -1.3543    0.5318 C.3     1  UNL1       -0.0442
      4 C           2.7556   -2.5554   -0.2739 C.3     1  UNL1       -0.0483
      5 C           2.9716   -2.4019   -1.7903 C.3     1  UNL1       -0.0224
      6 C           2.3937   -0.8641   -2.2543 C.3     1  UNL1       -0.0078
      7 C           0.9740   -0.8388   -2.7304 C.3     1  UNL1       -0.0447
      8 C           0.1400   -2.0820   -2.6221 C.3     1  UNL1       -0.0227
      9 C           0.7364   -3.4663   -2.4423 C.3     1  UNL1        0.0792
     10 O           0.5384   -3.8650   -1.0760 O.3     1  UNL1       -0.3876
     11 C          -0.2248   -4.3879   -3.2648 C.3     1  UNL1        0.0030
     12 C           0.2601   -5.8121   -3.2135 C.3     1  UNL1        0.0579
     13 O           0.2608   -6.2382   -1.8510 O.3     1  UNL1       -0.3917
     14 C           1.5591   -6.4084   -3.6631 C.3     1  UNL1       -0.0258
     15 C           2.7088   -5.3676   -2.7094 C.3     1  UNL1       -0.0372
     16 C           2.3012   -3.6218   -2.7291 C.3     1  UNL1        0.0395
     17 C           2.7168   -3.2927   -4.1720 C.2     1  UNL1        0.0324
     18 N           1.7864   -3.2352   -5.0621 N.2     1  UNL1       -0.1908
     19 N           2.0977   -3.1033   -6.3663 N.am    1  UNL1       -0.1913
     20 C           1.1285   -3.1755   -7.3392 C.2     1  UNL1        0.3165
     21 N          -0.1438   -3.3852   -6.9228 N.am    1  UNL1       -0.3120
     22 O           1.3858   -3.0696   -8.5355 O.2     1  UNL1       -0.2513
     23 C           2.6426    0.4439   -1.2856 C.3     1  UNL1        0.0751
     24 O           3.9927    0.8291   -1.6269 O.3     1  UNL1       -0.3877
     25 C           1.8057    1.9197   -0.7856 C.3     1  UNL1       -0.0226
     26 C           2.8787    2.4782    0.1266 C.3     1  UNL1       -0.0432
     27 C           3.1488    1.1721    0.9414 C.3     1  UNL1       -0.0081
     28 C           2.6088    1.1618    2.3364 C.2     1  UNL1       -0.0222
     29 C           1.3400    1.2123    2.7454 C.2     1  UNL1        0.0252
     30 C           1.3369    0.9070    4.1532 C.2     1  UNL1        0.3323
     31 O           0.2956    0.7691    4.8229 O.2     1  UNL1       -0.2456
     32 O           2.6032    0.7782    4.5961 O.3     1  UNL1       -0.4571
     33 C           3.4946    0.9137    3.4851 C.3     1  UNL1        0.1147
     34 H           0.6069   -1.2272   -0.2501 H       1  UNL1        0.0236
     35 H           0.2451    0.3679   -0.2221 H       1  UNL1        0.0236
     36 H           0.5773   -0.4896    1.2788 H       1  UNL1        0.0236
     37 H           2.9489   -1.5457    1.5773 H       1  UNL1        0.0272
     38 H           4.3109   -1.2660    0.4903 H       1  UNL1        0.0272
     39 H           1.7081   -2.6280   -0.0340 H       1  UNL1        0.0268
     40 H           3.1620   -3.4868    0.1251 H       1  UNL1        0.0268
     41 H           4.0657   -2.4090   -1.9354 H       1  UNL1        0.0314
     42 H           2.9954   -0.7072   -3.1681 H       1  UNL1        0.0332
     43 H           0.9562   -0.4483   -3.7536 H       1  UNL1        0.0270
     44 H           0.4301   -0.0710   -2.1880 H       1  UNL1        0.0270
     45 H          -0.4527   -2.0733   -3.5383 H       1  UNL1        0.0293
     46 H          -0.5736   -1.9404   -1.8056 H       1  UNL1        0.0293
     47 H          -0.4063   -3.9571   -0.8917 H       1  UNL1        0.2102
     48 H          -0.1920   -4.0802   -4.3098 H       1  UNL1        0.0318
     49 H          -1.2603   -4.3000   -2.9622 H       1  UNL1        0.0318
     50 H           1.0107   -5.1311   -3.5298 H       1  UNL1        0.0594
     51 H          -0.6470   -6.3892   -1.5633 H       1  UNL1        0.2098
     52 H           1.5419   -6.2859   -4.7770 H       1  UNL1        0.0290
     53 H           1.4400   -7.4862   -3.4547 H       1  UNL1        0.0290
     54 H           3.7256   -5.5634   -3.0672 H       1  UNL1        0.0276
     55 H           2.6232   -5.6922   -1.6636 H       1  UNL1        0.0276
     56 H           3.8026   -3.2021   -4.3877 H       1  UNL1        0.0805
     57 H           3.0577   -3.0205   -6.6805 H       1  UNL1        0.1788
     58 H          -0.3624   -3.4488   -5.9470 H       1  UNL1        0.1465
     59 H          -0.8886   -3.4305   -7.6000 H       1  UNL1        0.1465
     60 H           4.4239    0.1113   -2.1197 H       1  UNL1        0.2102
     61 H           1.0359    1.8598    0.0162 H       1  UNL1        0.0293
     62 H           1.2963    2.6242   -1.4484 H       1  UNL1        0.0293
     63 H           2.6665    3.3398    0.7748 H       1  UNL1        0.0272
     64 H           3.6652    2.8131   -0.5593 H       1  UNL1        0.0272
     65 H           4.2466    1.0746    0.9629 H       1  UNL1        0.0353
     66 H           0.4199    1.3032    2.1941 H       1  UNL1        0.0689
     67 H           4.0728   -0.0091    3.3759 H       1  UNL1        0.0746
     68 H           4.1618    1.7644    3.6414 H       1  UNL1        0.0746
@<TRIPOS>BOND
     1     2     3    1
     2     3     4    1
     3     4     5    1
     4     5     6    1
     5     6     7    1
     6     7     8    1
     7     8     9    1
     8     9    11    1
     9    11    12    1
    10    12    14    1
    11    14    15    1
    12    15    16    1
    13     5    16    1
    14     9    16    1
    15    17    18    2
    16    18    19    1
    17    19    20   am
    18    20    21   am
    19    20    22    2
    20     6    23    1
    21     2    23    1
    22    23    25    1
    23    25    26    1
    24    26    27    1
    25     2    27    1
    26    28    29    2
    27    29    30    1
    28    30    31    2
    29    30    32    1
    30    32    33    1
    31    28    33    1
    32     1     2    1
    33     9    10    1
    34    12    13    1
    35    16    17    1
    36    23    24    1
    37    27    28    1
    38     1    34    1
    39     1    35    1
    40     1    36    1
    41     3    37    1
    42     3    38    1
    43     4    39    1
    44     4    40    1
    45     5    41    1
    46     6    42    1
    47     7    43    1
    48     7    44    1
    49     8    45    1
    50     8    46    1
    51    10    47    1
    52    11    48    1
    53    11    49    1
    54    12    50    1
    55    13    51    1
    56    14    52    1
    57    14    53    1
    58    15    54    1
    59    15    55    1
    60    17    56    1
    61    19    57    1
    62    21    58    1
    63    21    59    1
    64    24    60    1
    65    25    61    1
    66    25    62    1
    67    26    63    1
    68    26    64    1
    69    27    65    1
    70    29    66    1
    71    33    67    1
    72    33    68    1
