REMARK  6 active torsions:
REMARK  status: ('A' for Active; 'I' for Inactive)
REMARK    1  A    between atoms: C_3  and  C_4 
REMARK       I    between atoms: C_4  and  N_6 
REMARK    2  A    between atoms: N_6  and  N_7 
REMARK    3  A    between atoms: C_8  and  C_9 
REMARK    4  A    between atoms: C_12  and  O_13 
REMARK    5  A    between atoms: C_16  and  C_17 
REMARK    6  A    between atoms: C_21  and  N_22 
ROOT
ATOM      1  C   UNL d   1       2.476  -1.755   0.115  0.00  0.00     0.069 C 
ATOM      2  C   UNL d   1       1.669  -0.491  -0.050  0.00  0.00     0.021 C 
ATOM      3  C   UNL d   1       2.076   0.807   0.024  0.00  0.00     0.060 C 
ATOM      4  C   UNL d   1       0.993   1.891  -0.099  0.00  0.00     0.158 C 
ATOM      5  N   UNL d   1      -0.337   1.372   0.188  0.00  0.00    -0.354 N 
ATOM      6  C   UNL d   1      -0.694   0.094  -0.063  0.00  0.00     0.172 C 
ATOM      7  S   UNL d   1      -2.280  -0.391  -0.029  0.00  0.00    -0.041 SA
ATOM      8  N   UNL d   1       0.325  -0.779  -0.258  0.00  0.00    -0.337 N 
ATOM      9  H   UNL d   1      -1.092   2.010   0.409  0.00  0.00     0.163 HD
ATOM     10  H   UNL d   1       0.044  -1.749  -0.385  0.00  0.00     0.168 HD
ENDROOT
BRANCH   3  11
ATOM     11  C   UNL d   1       3.571   1.142   0.225  0.00  0.00     0.272 C 
ATOM     12  O   UNL d   1       4.402   0.242   0.392  0.00  0.00    -0.266 OA
ATOM     13  N   UNL d   1       4.005   2.458   0.219  0.00  0.00    -0.243 N 
ATOM     14  H   UNL d   1       3.394   3.233   0.062  0.00  0.00     0.192 HD
BRANCH  13  15
ATOM     15  N   UNL d   1       5.330   2.767   0.442  0.00  0.00    -0.183 NA
ATOM     16  C   UNL d   1       5.642   4.019   0.573  0.00  0.00     0.150 C 
BRANCH  16  17
ATOM     17  C   UNL d   1       7.045   4.440   0.793  0.00  0.00    -0.017 A 
ATOM     18  C   UNL d   1       8.070   3.798   0.091  0.00  0.00     0.015 A 
ATOM     19  C   UNL d   1       9.402   4.178   0.287  0.00  0.00     0.037 A 
ATOM     20  C   UNL d   1       9.698   5.193   1.192  0.00  0.00     0.065 A 
ATOM     21  C   UNL d   1       8.684   5.836   1.896  0.00  0.00     0.037 A 
ATOM     22  C   UNL d   1       7.348   5.473   1.687  0.00  0.00     0.015 A 
BRANCH  20  23
ATOM     23  O   UNL d   1      10.979   5.598   1.427  0.00  0.00    -0.361 OA
ATOM     24  H   UNL d   1      11.588   5.082   0.874  0.00  0.00     0.217 HD
ENDBRANCH  20  23
ENDBRANCH  16  17
ENDBRANCH  13  15
ENDBRANCH   3  11
BRANCH   4  25
ATOM     25  C   UNL d   1       1.204   3.058   0.844  0.00  0.00    -0.028 C 
ATOM     26  C   UNL d   1       1.581   4.320   0.356  0.00  0.00     0.010 C 
ATOM     27  C   UNL d   1       2.224   5.212   1.214  0.00  0.00     0.003 C 
ATOM     28  C   UNL d   1       2.353   4.916   2.576  0.00  0.00     0.036 C 
ATOM     29  C   UNL d   1       1.839   3.714   3.080  0.00  0.00     0.103 C 
ATOM     30  C   UNL d   1       1.257   2.788   2.221  0.00  0.00     0.045 C 
BRANCH  29  31
ATOM     31  N   UNL d   1       2.003   3.369   4.495  0.00  0.00    -0.116 N 
ATOM     32  O   UNL d   1       2.561   4.196   5.225  0.00  0.00    -0.532 OA
ATOM     33  O   UNL d   1       1.569   2.269   4.874  0.00  0.00    -0.532 OA
ENDBRANCH  29  31
ENDBRANCH   4  25
TORSDOF 6
