REMARK  9 active torsions:
REMARK  status: ('A' for Active; 'I' for Inactive)
REMARK    1  A    between atoms: O_2  and  C_3 
REMARK    2  A    between atoms: C_3  and  C_5 
REMARK    3  A    between atoms: C_8  and  N_9 
REMARK    4  A    between atoms: N_9  and  C_10 
REMARK    5  A    between atoms: C_10  and  C_11 
REMARK       I    between atoms: C_11  and  N_13 
REMARK    6  A    between atoms: N_13  and  C_14 
REMARK    7  A    between atoms: C_18  and  C_19 
REMARK       I    between atoms: C_19  and  N_21 
REMARK    8  A    between atoms: C_22  and  N_21 
REMARK    9  A    between atoms: C_22  and  C_24 
ROOT
ATOM      1  C   UNL d   1      15.569   0.204  -0.154  0.00  0.00     0.035 C 
ATOM      2  C   UNL d   1      16.203   1.279   0.392  0.00  0.00     0.029 C 
ATOM      3  C   UNL d   1      17.012   1.093   1.564  0.00  0.00     0.003 C 
ATOM      4  C   UNL d   1      17.139  -0.152   2.248  0.00  0.00     0.017 C 
ATOM      5  C   UNL d   1      16.641  -1.286   1.644  0.00  0.00     0.034 C 
ATOM      6  C   UNL d   1      16.077  -0.964   0.363  0.00  0.00     0.046 C 
ENDROOT
BRANCH   1   7
ATOM      7  N   UNL d   1      14.800   0.089  -1.378  0.00  0.00    -0.326 N 
ATOM      8  C   UNL d   1      13.633  -0.719  -1.484  0.00  0.00     0.239 C 
ATOM      9  O   UNL d   1      13.017  -1.153  -0.507  0.00  0.00    -0.271 OA
ATOM     10  H   UNL d   1      15.238   0.429  -2.225  0.00  0.00     0.169 HD
BRANCH   8  11
ATOM     11  C   UNL d   1      13.060  -0.974  -2.913  0.00  0.00     0.223 C 
BRANCH  11  12
ATOM     12  N   UNL d   1      11.814  -1.781  -2.890  0.00  0.00    -0.381 N 
ATOM     13  H   UNL d   1      11.605  -2.256  -2.012  0.00  0.00     0.160 HD
BRANCH  12  14
ATOM     14  C   UNL d   1      11.045  -2.055  -4.012  0.00  0.00     0.028 A 
ATOM     15  C   UNL d   1       9.907  -2.877  -3.937  0.00  0.00     0.030 A 
ATOM     16  C   UNL d   1       9.159  -3.211  -5.089  0.00  0.00     0.020 A 
ATOM     17  C   UNL d   1       9.486  -2.656  -6.331  0.00  0.00     0.039 A 
ATOM     18  C   UNL d   1      10.582  -1.801  -6.414  0.00  0.00     0.020 A 
ATOM     19  C   UNL d   1      11.339  -1.508  -5.267  0.00  0.00     0.030 A 
BRANCH  17  20
ATOM     20  C   UNL d   1       8.565  -2.852  -7.494  0.00  0.00     0.292 C 
ATOM     21  O   UNL d   1       7.371  -2.866  -7.384  0.00  0.00    -0.259 OA
BRANCH  20  22
ATOM     22  O   UNL d   1       9.270  -3.001  -8.659  0.00  0.00    -0.323 OA
ATOM     23  C   UNL d   1       8.436  -3.188  -9.813  0.00  0.00     0.213 C 
ENDBRANCH  20  22
ENDBRANCH  17  20
ENDBRANCH  12  14
ENDBRANCH  11  12
ENDBRANCH   8  11
ENDBRANCH   1   7
BRANCH   5  24
ATOM     24  C   UNL d   1      16.818  -2.712   2.379  0.00  0.00     0.252 C 
ATOM     25  O   UNL d   1      17.508  -2.747   3.406  0.00  0.00    -0.268 OA
ATOM     26  N   UNL d   1      16.207  -3.954   2.033  0.00  0.00    -0.349 N 
ATOM     27  H   UNL d   1      16.495  -4.744   2.601  0.00  0.00     0.163 HD
BRANCH  26  28
ATOM     28  C   UNL d   1      15.367  -4.298   0.886  0.00  0.00     0.114 C 
ATOM     29  C   UNL d   1      14.714  -3.080   0.481  0.00  0.00     0.037 C 
BRANCH  28  30
ATOM     30  C   UNL d   1      14.195  -5.176   1.022  0.00  0.00    -0.036 C 
ATOM     31  C   UNL d   1      12.875  -4.679   1.213  0.00  0.00     0.009 C 
ATOM     32  C   UNL d   1      11.839  -5.542   1.412  0.00  0.00     0.001 C 
ATOM     33  C   UNL d   1      12.105  -6.895   1.288  0.00  0.00     0.000 C 
ATOM     34  C   UNL d   1      13.382  -7.377   0.961  0.00  0.00     0.001 C 
ATOM     35  C   UNL d   1      14.437  -6.513   0.809  0.00  0.00     0.009 C 
ENDBRANCH  28  30
ENDBRANCH  26  28
ENDBRANCH   5  24
TORSDOF 9
