@<TRIPOS>MOLECULE
*****
 57 60 0 0 0
SMALL
GASTEIGER

@<TRIPOS>ATOM
      1 O           1.0539    0.0251   -0.0260 O.2     1  UNL1       -0.2698
      2 C           2.2767    0.0484    0.0779 C.2     1  UNL1        0.2485
      3 N           2.9760    0.7577    1.0573 N.am    1  UNL1       -0.2813
      4 C           2.3473    1.3927    2.1599 C.ar    1  UNL1        0.0402
      5 C           2.8538    2.5518    2.7379 C.ar    1  UNL1       -0.0383
      6 C           2.2677    3.0883    3.9157 C.ar    1  UNL1       -0.0323
      7 C           1.1503    2.4996    4.5687 C.ar    1  UNL1        0.1083
      8 N           0.6317    3.1621    5.6833 N.pl3   1  UNL1       -0.3146
      9 C           0.4462    2.5370    7.0118 C.3     1  UNL1        0.0526
     10 C          -1.0477    2.5326    7.4606 C.3     1  UNL1       -0.0175
     11 N          -1.6484    3.9039    7.3269 N.4     1  UNL1        0.2292
     12 C          -1.4645    4.4662    5.9312 C.3     1  UNL1       -0.0175
     13 C           0.0357    4.5087    5.5451 C.3     1  UNL1        0.0526
     14 C           0.6880    1.2978    3.9645 C.ar    1  UNL1        0.2957
     15 N          -0.3682    0.4252    4.4960 N.pl3   1  UNL1        0.0816
     16 O          -0.8239    0.6573    5.6161 O.2     1  UNL1        0.0415
     17 O          -0.7449   -0.5410    3.8319 O.co2   1  UNL1       -0.5760
     18 C           1.2553    0.7975    2.7682 C.ar    1  UNL1        0.0387
     19 C           3.0801   -0.6520   -0.9676 C.ar    1  UNL1        0.0435
     20 C           4.1347   -1.4974   -0.6521 C.ar    1  UNL1       -0.0474
     21 C           4.8491   -2.1472   -1.6833 C.ar    1  UNL1       -0.0333
     22 C           4.5276   -2.0320   -3.0620 C.ar    1  UNL1        0.1079
     23 N           5.3189   -2.7381   -3.9441 N.pl3   1  UNL1       -0.3247
     24 C           5.9724   -2.1793   -5.1229 C.3     1  UNL1        0.0124
     25 C           5.7475   -3.2484   -6.1880 C.3     1  UNL1       -0.0358
     26 C           5.9339   -4.5364   -5.4012 C.3     1  UNL1       -0.0358
     27 C           5.4065   -4.2108   -3.9864 C.3     1  UNL1        0.0124
     28 C           3.4369   -1.1703   -3.3539 C.ar    1  UNL1        0.2946
     29 N           2.9259   -0.8983   -4.7198 N.pl3   1  UNL1        0.0815
     30 O           3.3496   -1.5379   -5.6838 O.2     1  UNL1        0.0415
     31 O           2.0648   -0.0120   -4.8374 O.co2   1  UNL1       -0.5760
     32 C           2.7216   -0.5092   -2.3106 C.ar    1  UNL1        0.0296
     33 H           3.9681    0.9139    0.9277 H       1  UNL1        0.1551
     34 H           3.6728    3.0895    2.2618 H       1  UNL1        0.0637
     35 H           2.7445    3.9706    4.3493 H       1  UNL1        0.0639
     36 H           0.9952    3.1502    7.7405 H       1  UNL1        0.0516
     37 H           0.9047    1.5441    7.0652 H       1  UNL1        0.0516
     38 H          -1.1492    2.2113    8.5001 H       1  UNL1        0.0829
     39 H          -1.7408    1.9335    6.8785 H       1  UNL1        0.0829
     40 H          -1.2497    4.5246    8.0390 H       1  UNL1        0.2015
     41 H          -2.6550    3.8193    7.5229 H       1  UNL1        0.2015
     42 H          -1.9141    5.4620    5.9418 H       1  UNL1        0.0829
     43 H          -2.0266    3.8159    5.2511 H       1  UNL1        0.0829
     44 H           0.5486    5.1991    6.2286 H       1  UNL1        0.0516
     45 H           0.1414    4.9141    4.5330 H       1  UNL1        0.0516
     46 H           0.8670   -0.1231    2.3362 H       1  UNL1        0.0705
     47 H           4.3945   -1.6936    0.3852 H       1  UNL1        0.0626
     48 H           5.7230   -2.7349   -1.3980 H       1  UNL1        0.0638
     49 H           7.0440   -2.1018   -4.9037 H       1  UNL1        0.0464
     50 H           5.6416   -1.1808   -5.4123 H       1  UNL1        0.0464
     51 H           6.4387   -3.1494   -7.0289 H       1  UNL1        0.0281
     52 H           4.7306   -3.2286   -6.5944 H       1  UNL1        0.0281
     53 H           6.9996   -4.7914   -5.3665 H       1  UNL1        0.0281
     54 H           5.4113   -5.3818   -5.8633 H       1  UNL1        0.0281
     55 H           6.1214   -4.5824   -3.2429 H       1  UNL1        0.0464
     56 H           4.4390   -4.6973   -3.8196 H       1  UNL1        0.0464
     57 H           1.8627    0.1225   -2.5445 H       1  UNL1        0.0693
@<TRIPOS>UNITY_ATOM_ATTR
11 1
charge 1
15 1
charge 1
17 1
charge -1
29 1
charge 1
31 1
charge -1
@<TRIPOS>BOND
     1     1     2    2
     2     2     3   am
     3     3     4    1
     4     4     5   ar
     5     5     6   ar
     6     6     7   ar
     7     7     8    1
     8     8     9    1
     9     9    10    1
    10    10    11    1
    11    11    12    1
    12    12    13    1
    13     8    13    1
    14     7    14   ar
    15    14    15    1
    16    15    16    2
    17    15    17    1
    18    14    18   ar
    19     4    18   ar
    20     2    19    1
    21    19    20   ar
    22    20    21   ar
    23    21    22   ar
    24    22    23    1
    25    23    24    1
    26    24    25    1
    27    25    26    1
    28    26    27    1
    29    23    27    1
    30    22    28   ar
    31    28    29    1
    32    29    30    2
    33    29    31    1
    34    28    32   ar
    35    19    32   ar
    36     3    33    1
    37     5    34    1
    38     6    35    1
    39     9    36    1
    40     9    37    1
    41    10    38    1
    42    10    39    1
    43    11    40    1
    44    11    41    1
    45    12    42    1
    46    12    43    1
    47    13    44    1
    48    13    45    1
    49    18    46    1
    50    20    47    1
    51    21    48    1
    52    24    49    1
    53    24    50    1
    54    25    51    1
    55    25    52    1
    56    26    53    1
    57    26    54    1
    58    27    55    1
    59    27    56    1
    60    32    57    1
