REMARK  3 active torsions:
REMARK  status: ('A' for Active; 'I' for Inactive)
REMARK    1  A    between atoms: C_5  and  N_6 
REMARK       I    between atoms: N_6  and  C_7 
REMARK    2  A    between atoms: C_7  and  C_9 
REMARK    3  A    between atoms: C_17  and  O_18 
ROOT
ATOM      1  N   UNL d   1      -2.289  -2.022  -0.076  0.00  0.00    -0.321 N 
ATOM      2  C   UNL d   1      -2.283  -3.415  -0.074  0.00  0.00     0.256 C 
ATOM      3  O   UNL d   1      -1.306  -4.159  -0.033  0.00  0.00    -0.267 OA
ATOM      4  H   UNL d   1      -3.186  -1.561  -0.078  0.00  0.00     0.169 HD
ENDROOT
BRANCH   1   5
ATOM      5  C   UNL d   1      -1.115  -1.201  -0.030  0.00  0.00     0.068 A 
ATOM      6  C   UNL d   1       0.165  -1.774  -0.001  0.00  0.00     0.033 A 
ATOM      7  C   UNL d   1       1.333  -1.009   0.021  0.00  0.00     0.009 A 
ATOM      8  C   UNL d   1       1.261   0.378   0.005  0.00  0.00    -0.059 A 
ATOM      9  C   UNL d   1       2.501   1.216  -0.000  0.00  0.00     0.048 C 
ATOM     10  C   UNL d   1      -0.001   0.978  -0.009  0.00  0.00     0.045 A 
ATOM     11  C   UNL d   1      -1.174   0.205  -0.020  0.00  0.00     0.092 A 
BRANCH  11  12
ATOM     12  O   UNL d   1      -2.325   0.945  -0.023  0.00  0.00    -0.358 OA
ATOM     13  H   UNL d   1      -3.097   0.371   0.037  0.00  0.00     0.217 HD
ENDBRANCH  11  12
ENDBRANCH   1   5
BRANCH   2  14
ATOM     14  C   UNL d   1      -3.583  -4.119  -0.098  0.00  0.00     0.035 A 
ATOM     15  C   UNL d   1      -4.596  -3.769  -0.990  0.00  0.00     0.041 A 
ATOM     16  C   UNL d   1      -5.758  -4.544  -1.030  0.00  0.00     0.036 A 
ATOM     17 CL   UNL d   1      -7.011  -4.125  -2.132  0.00  0.00    -0.084 Cl
ATOM     18  C   UNL d   1      -5.917  -5.655  -0.200  0.00  0.00     0.047 A 
ATOM     19  C   UNL d   1      -4.890  -6.007   0.670  0.00  0.00     0.036 A 
ATOM     20 CL   UNL d   1      -5.065  -7.379   1.693  0.00  0.00    -0.084 Cl
ATOM     21  C   UNL d   1      -3.721  -5.254   0.718  0.00  0.00     0.041 A 
ENDBRANCH   2  14
TORSDOF 3
