@<TRIPOS>MOLECULE
*****
 50 51 0 0 0
SMALL
GASTEIGER

@<TRIPOS>ATOM
      1 C           1.0622   -0.0622    0.0551 C.3     1  UNL1        0.0833
      2 O           2.5057   -0.0633    0.0532 O.3     1  UNL1       -0.4535
      3 C           3.0395   -0.8586    1.0266 C.2     1  UNL1        0.4044
      4 O           2.3360   -1.4727    1.8290 O.2     1  UNL1       -0.2261
      5 N           4.4312   -0.8193    1.0513 N.am    1  UNL1       -0.2484
      6 C           5.1655   -1.6358    1.9623 C.ar    1  UNL1        0.0734
      7 C           6.2537   -1.1578    2.7459 C.ar    1  UNL1       -0.0163
      8 C           6.8240   -1.9795    3.7624 C.ar    1  UNL1        0.0357
      9 N           7.8473   -1.5005    4.6497 N.am    1  UNL1       -0.2777
     10 C           8.4214   -2.2296    5.7048 C.2     1  UNL1        0.3031
     11 O           8.1881   -3.3895    6.0352 O.2     1  UNL1       -0.2648
     12 C           9.4931   -1.4944    6.5614 C.2     1  UNL1        0.2996
     13 O           9.9503   -0.4204    6.2076 O.2     1  UNL1       -0.2652
     14 N           9.8571   -2.2049    7.6917 N.am    1  UNL1       -0.3035
     15 C          11.0535   -1.9614    8.4829 C.3     1  UNL1        0.0378
     16 C          11.4150   -3.0873    9.4565 C.ar    1  UNL1       -0.0245
     17 C          11.2384   -4.4581    9.1322 C.ar    1  UNL1       -0.0453
     18 C          10.7905   -4.9207    7.7684 C.3     1  UNL1       -0.0394
     19 C          11.4283   -5.4462   10.1227 C.ar    1  UNL1       -0.0556
     20 C          11.9099   -5.1181   11.3925 C.ar    1  UNL1       -0.0499
     21 C          12.1211   -6.1525   12.4603 C.3     1  UNL1       -0.0397
     22 C          12.2135   -3.7842   11.6685 C.ar    1  UNL1       -0.0556
     23 C          11.9773   -2.7685   10.7234 C.ar    1  UNL1       -0.0453
     24 C          12.3288   -1.3546   11.1118 C.3     1  UNL1       -0.0394
     25 C           6.3247   -3.2819    3.9010 C.ar    1  UNL1       -0.0376
     26 C           5.3242   -3.7814    3.0755 C.ar    1  UNL1       -0.0229
     27 C           4.7604   -2.9676    2.1173 C.ar    1  UNL1        0.1447
     28 F           3.8532   -3.5109    1.2908 F       1  UNL1       -0.2035
     29 H           0.7018    0.6057   -0.7338 H       1  UNL1        0.0661
     30 H           0.6704    0.3081    1.0107 H       1  UNL1        0.0661
     31 H           0.6663   -1.0653   -0.1467 H       1  UNL1        0.0661
     32 H           4.8915   -0.1105    0.4978 H       1  UNL1        0.1583
     33 H           6.5960   -0.1335    2.6184 H       1  UNL1        0.0656
     34 H           8.1900   -0.5503    4.5372 H       1  UNL1        0.1553
     35 H           9.3265   -3.0533    7.8629 H       1  UNL1        0.1495
     36 H          10.8242   -1.0477    9.0345 H       1  UNL1        0.0512
     37 H          11.9063   -1.7590    7.8252 H       1  UNL1        0.0512
     38 H          10.9906   -4.1688    7.0008 H       1  UNL1        0.0278
     39 H           9.7187   -5.1424    7.7966 H       1  UNL1        0.0278
     40 H          11.3370   -5.8040    7.4301 H       1  UNL1        0.0278
     41 H          11.1827   -6.4832    9.8941 H       1  UNL1        0.0623
     42 H          11.8337   -7.1544   12.1270 H       1  UNL1        0.0278
     43 H          11.5212   -5.9073   13.3440 H       1  UNL1        0.0278
     44 H          13.1771   -6.1816   12.7497 H       1  UNL1        0.0278
     45 H          12.6170   -3.5322   12.6492 H       1  UNL1        0.0623
     46 H          12.7460   -1.2997   12.1239 H       1  UNL1        0.0278
     47 H          11.4334   -0.7281   11.1019 H       1  UNL1        0.0278
     48 H          13.0791   -0.9456   10.4268 H       1  UNL1        0.0278
     49 H           6.6867   -3.9698    4.6537 H       1  UNL1        0.0637
     50 H           4.9732   -4.8006    3.1884 H       1  UNL1        0.0647
@<TRIPOS>BOND
     1     1     2    1
     2     2     3    1
     3     3     4    2
     4     3     5   am
     5     5     6    1
     6     6     7   ar
     7     7     8   ar
     8     8     9    1
     9     9    10   am
    10    10    11    2
    11    10    12    1
    12    12    13    2
    13    12    14   am
    14    14    15    1
    15    15    16    1
    16    16    17   ar
    17    17    18    1
    18    17    19   ar
    19    19    20   ar
    20    20    21    1
    21    20    22   ar
    22    22    23   ar
    23    16    23   ar
    24    23    24    1
    25     8    25   ar
    26    25    26   ar
    27    26    27   ar
    28     6    27   ar
    29    27    28    1
    30     1    29    1
    31     1    30    1
    32     1    31    1
    33     5    32    1
    34     7    33    1
    35     9    34    1
    36    14    35    1
    37    15    36    1
    38    15    37    1
    39    18    38    1
    40    18    39    1
    41    18    40    1
    42    19    41    1
    43    21    42    1
    44    21    43    1
    45    21    44    1
    46    22    45    1
    47    24    46    1
    48    24    47    1
    49    24    48    1
    50    25    49    1
    51    26    50    1
