REMARK  3 active torsions:
REMARK  status: ('A' for Active; 'I' for Inactive)
REMARK    1  A    between atoms: C_5  and  N_6 
REMARK       I    between atoms: N_6  and  C_7 
REMARK    2  A    between atoms: C_7  and  C_9 
REMARK    3  A    between atoms: C_14  and  O_15 
ROOT
ATOM      1  N   UNL d   1      -2.382  -1.925  -0.008  0.00  0.00    -0.322 N 
ATOM      2  C   UNL d   1      -2.428  -3.309  -0.004  0.00  0.00     0.259 C 
ATOM      3  O   UNL d   1      -1.479  -4.093   0.040  0.00  0.00    -0.267 OA
ATOM      4  H   UNL d   1      -3.277  -1.457  -0.070  0.00  0.00     0.169 HD
ENDROOT
BRANCH   1   5
ATOM      5  C   UNL d   1      -1.205  -1.130  -0.000  0.00  0.00     0.041 A 
ATOM      6  C   UNL d   1       0.052  -1.746   0.004  0.00  0.00     0.030 A 
ATOM      7  C   UNL d   1       1.239  -1.025   0.006  0.00  0.00     0.009 A 
ATOM      8  C   UNL d   1       1.214   0.360   0.000  0.00  0.00    -0.061 A 
ATOM      9  C   UNL d   1       2.513   1.107   0.008  0.00  0.00     0.048 C 
ATOM     10  C   UNL d   1      -0.031   1.009  -0.007  0.00  0.00     0.015 A 
ATOM     11  C   UNL d   1      -1.252   0.281  -0.004  0.00  0.00    -0.035 A 
ATOM     12  C   UNL d   1      -2.532   1.077  -0.005  0.00  0.00     0.050 C 
ENDBRANCH   1   5
BRANCH   2  13
ATOM     13  C   UNL d   1      -3.759  -3.945  -0.015  0.00  0.00     0.065 A 
ATOM     14  C   UNL d   1      -3.929  -5.071   0.807  0.00  0.00     0.020 A 
ATOM     15  C   UNL d   1      -5.115  -5.796   0.771  0.00  0.00     0.001 A 
ATOM     16  C   UNL d   1      -6.127  -5.412  -0.107  0.00  0.00     0.003 A 
ATOM     17  C   UNL d   1      -5.960  -4.297  -0.938  0.00  0.00     0.037 A 
ATOM     18  C   UNL d   1      -4.781  -3.552  -0.880  0.00  0.00     0.081 A 
BRANCH  18  19
ATOM     19  O   UNL d   1      -4.613  -2.454  -1.676  0.00  0.00    -0.360 OA
ATOM     20  H   UNL d   1      -5.368  -2.371  -2.282  0.00  0.00     0.217 HD
ENDBRANCH  18  19
ENDBRANCH   2  13
TORSDOF 3
