REMARK  13 active torsions:
REMARK  status: ('A' for Active; 'I' for Inactive)
REMARK    1  A    between atoms: C_2  and  C_3 
REMARK    2  A    between atoms: C_3  and  C_4 
REMARK    3  A    between atoms: C_4  and  N_5 
REMARK       I    between atoms: N_5  and  C_6 
REMARK    4  A    between atoms: C_6  and  C_8 
REMARK    5  A    between atoms: C_8  and  C_9 
REMARK    6  A    between atoms: C_8  and  N_18 
REMARK    7  A    between atoms: C_10  and  O_11 
REMARK    8  A    between atoms: C_13  and  O_14 
REMARK    9  A    between atoms: C_16  and  O_17 
REMARK       I    between atoms: N_18  and  C_19 
REMARK   10  A    between atoms: N_18  and  C_29 
REMARK   11  A    between atoms: C_19  and  C_21 
REMARK   12  A    between atoms: C_21  and  C_22 
REMARK   13  A    between atoms: C_22  and  C_23 
ROOT
ATOM      1  C   UNL d   1       6.881   2.620  -3.427  0.00  0.00     0.219 C 
ENDROOT
BRANCH   1   2
ATOM      2  C   UNL d   1       6.126   1.673  -2.400  0.00  0.00     0.245 C 
ATOM      3  N   UNL d   1       4.816   1.339  -2.436  0.00  0.00    -0.359 N 
ATOM      4  H   UNL d   1       4.211   1.993  -2.921  0.00  0.00     0.162 HD
ATOM      5  O   UNL d   1       6.611   1.223  -1.355  0.00  0.00    -0.271 OA
BRANCH   3   6
ATOM      6  C   UNL d   1       4.359   0.734  -1.189  0.00  0.00     0.122 C 
BRANCH   6   7
ATOM      7  C   UNL d   1       2.881   0.756  -1.097  0.00  0.00     0.019 C 
BRANCH   7   8
ATOM      8  C   UNL d   1       2.442  -0.074   0.090  0.00  0.00    -0.003 C 
ATOM      9  C   UNL d   1       0.935  -0.083   0.110  0.00  0.00     0.005 C 
ENDBRANCH   7   8
ENDBRANCH   6   7
ENDBRANCH   3   6
ENDBRANCH   1   2
BRANCH   1  10
ATOM     10  C   UNL d   1       6.309   4.049  -3.243  0.00  0.00     0.040 C 
ATOM     11  C   UNL d   1       7.127   5.133  -2.932  0.00  0.00     0.080 C 
ATOM     12  C   UNL d   1       6.753   6.460  -3.142  0.00  0.00     0.073 C 
ATOM     13  C   UNL d   1       5.414   6.745  -3.207  0.00  0.00     0.071 C 
ATOM     14  C   UNL d   1       4.503   5.711  -3.175  0.00  0.00     0.073 C 
ATOM     15  C   UNL d   1       4.948   4.390  -3.296  0.00  0.00     0.080 C 
BRANCH  11  16
ATOM     16  O   UNL d   1       8.349   4.966  -2.348  0.00  0.00    -0.360 OA
ATOM     17  H   UNL d   1       8.678   4.089  -2.620  0.00  0.00     0.217 HD
ENDBRANCH  11  16
BRANCH  13  18
ATOM     18  O   UNL d   1       4.943   8.018  -3.219  0.00  0.00    -0.361 OA
ATOM     19  H   UNL d   1       5.701   8.628  -3.224  0.00  0.00     0.217 HD
ENDBRANCH  13  18
BRANCH  15  20
ATOM     20  O   UNL d   1       3.961   3.450  -3.387  0.00  0.00    -0.360 OA
ATOM     21  H   UNL d   1       3.187   3.800  -2.899  0.00  0.00     0.217 HD
ENDBRANCH  15  20
ENDBRANCH   1  10
BRANCH   1  22
ATOM     22  N   UNL d   1       8.523   2.610  -3.515  0.00  0.00    -0.326 N 
ATOM     23  C   UNL d   1       9.369   1.865  -2.601  0.00  0.00     0.221 C 
ATOM     24  O   UNL d   1      10.598   1.848  -2.602  0.00  0.00    -0.273 OA
BRANCH  23  25
ATOM     25  C   UNL d   1       8.787   1.079  -1.497  0.00  0.00     0.103 C 
BRANCH  25  26
ATOM     26  C   UNL d   1       9.655   0.357  -0.510  0.00  0.00     0.014 C 
BRANCH  26  27
ATOM     27  C   UNL d   1       8.779  -0.393   0.527  0.00  0.00    -0.014 C 
ATOM     28  C   UNL d   1       9.155  -1.875   0.474  0.00  0.00     0.004 C 
ATOM     29  C   UNL d   1       8.579  -2.684   1.623  0.00  0.00     0.000 C 
ATOM     30  C   UNL d   1       8.930  -2.054   2.965  0.00  0.00     0.000 C 
ATOM     31  C   UNL d   1       8.429  -0.616   3.037  0.00  0.00     0.000 C 
ATOM     32  C   UNL d   1       9.014   0.221   1.911  0.00  0.00     0.004 C 
ENDBRANCH  26  27
ENDBRANCH  25  26
ENDBRANCH  23  25
BRANCH  22  33
ATOM     33  C   UNL d   1       9.271   3.323  -4.745  0.00  0.00     0.025 C 
ATOM     34  C   UNL d   1       8.836   2.708  -6.077  0.00  0.00     0.037 C 
ATOM     35  C   UNL d   1       9.080   4.858  -4.953  0.00  0.00     0.037 C 
ATOM     36  C   UNL d   1      10.805   3.225  -4.596  0.00  0.00     0.037 C 
ENDBRANCH  22  33
ENDBRANCH   1  22
TORSDOF 13
