@<TRIPOS>MOLECULE
*****
 55 57 0 0 0
SMALL
GASTEIGER

@<TRIPOS>ATOM
      1 C           9.0699    4.2382   -5.5743 C.3     1  UNL1       -0.0307
      2 C           8.8927    2.9222   -4.8215 C.3     1  UNL1        0.0868
      3 O           7.9711    2.1117   -5.5613 O.3     1  UNL1       -0.4922
      4 C           7.4300    1.0028   -4.9632 C.ar    1  UNL1        0.1212
      5 C           7.2912   -0.1326   -5.7601 C.ar    1  UNL1       -0.0199
      6 C           6.7096   -1.2830   -5.2225 C.ar    1  UNL1       -0.0576
      7 C           6.1752   -1.2646   -3.9173 C.ar    1  UNL1       -0.0494
      8 C           6.0209   -0.0431   -3.2049 C.ar    1  UNL1        0.0405
      9 C           5.2652   -0.0452   -1.7335 C.2     1  UNL1        0.2496
     10 O           4.7121   -1.1061   -1.4417 O.2     1  UNL1       -0.2698
     11 N           5.5069    1.0475   -0.6794 N.am    1  UNL1       -0.2636
     12 C           5.5458    0.9058    0.8055 C.2     1  UNL1        0.1411
     13 S           4.7310   -0.3213    1.6197 S.2     1  UNL1       -0.0182
     14 N           6.5277    1.7630    1.4789 N.am    1  UNL1       -0.2960
     15 C           6.6358    1.7976    2.9569 C.ar    1  UNL1        0.0448
     16 C           6.0734    2.9224    3.6066 C.ar    1  UNL1       -0.0398
     17 C           5.9219    2.9746    5.0067 C.ar    1  UNL1       -0.0600
     18 C           6.3054    1.8948    5.7903 C.ar    1  UNL1       -0.0609
     19 C           6.9354    0.8065    5.1838 C.ar    1  UNL1       -0.0478
     20 C           7.1417    0.7492    3.7780 C.ar    1  UNL1        0.0578
     21 C           7.8825   -0.4880    3.3094 C.2     1  UNL1        0.2459
     22 O           8.0916   -1.4162    4.0543 O.2     1  UNL1       -0.2701
     23 N           8.3152   -0.4891    1.9955 N.am    1  UNL1       -0.3088
     24 C           8.7810   -1.7240    1.3383 C.3     1  UNL1        0.0382
     25 C           9.2108   -1.6189   -0.1541 C.3     1  UNL1        0.0742
     26 C           8.0256   -1.7115   -1.0851 C.3     1  UNL1       -0.0231
     27 C           7.7316   -0.2901   -0.9281 C.3     1  UNL1       -0.0271
     28 C           8.9293    0.5529   -0.9036 C.3     1  UNL1        0.0482
     29 O           9.8704   -0.3249   -0.3507 O.3     1  UNL1       -0.3750
     30 C           6.8083    1.0339   -3.7009 C.ar    1  UNL1       -0.0078
     31 H           9.8457    4.8605   -5.1159 H       1  UNL1        0.0262
     32 H           8.1343    4.8093   -5.5819 H       1  UNL1        0.0262
     33 H           9.3379    4.0558   -6.6201 H       1  UNL1        0.0262
     34 H           8.5579    3.1539   -3.8054 H       1  UNL1        0.0694
     35 H           9.8558    2.4031   -4.7722 H       1  UNL1        0.0694
     36 H           7.6208   -0.1216   -6.7991 H       1  UNL1        0.0654
     37 H           6.6078   -2.1781   -5.8393 H       1  UNL1        0.0619
     38 H           5.9335   -2.2332   -3.4675 H       1  UNL1        0.0625
     39 H           6.0899    1.8025   -1.0058 H       1  UNL1        0.1568
     40 H           6.7992    2.6532    1.0666 H       1  UNL1        0.1539
     41 H           5.6371    3.7363    3.0334 H       1  UNL1        0.0636
     42 H           5.4569    3.8366    5.4859 H       1  UNL1        0.0618
     43 H           6.1050    1.8876    6.8621 H       1  UNL1        0.0618
     44 H           7.2433   -0.0250    5.8205 H       1  UNL1        0.0626
     45 H           8.0354    0.3067    1.4526 H       1  UNL1        0.1491
     46 H           7.9974   -2.4829    1.4648 H       1  UNL1        0.0487
     47 H           9.6694   -2.0333    1.8804 H       1  UNL1        0.0487
     48 H           9.8961   -2.4045   -0.4547 H       1  UNL1        0.0611
     49 H           7.2034   -2.3622   -0.7370 H       1  UNL1        0.0291
     50 H           8.2308   -1.9809   -2.1237 H       1  UNL1        0.0291
     51 H           7.1346   -0.2969   -0.0412 H       1  UNL1        0.0288
     52 H           7.2695    0.2334   -1.6843 H       1  UNL1        0.0288
     53 H           8.7014    1.4800   -0.3536 H       1  UNL1        0.0560
     54 H           9.1861    0.8477   -1.9307 H       1  UNL1        0.0560
     55 H           7.0120    1.8876   -3.0722 H       1  UNL1        0.0662
@<TRIPOS>BOND
     1     1     2    1
     2     2     3    1
     3     3     4    1
     4     4     5   ar
     5     5     6   ar
     6     6     7   ar
     7     7     8   ar
     8     8     9    1
     9     9    10    2
    10     9    11   am
    11    11    12    1
    12    12    13    2
    13    12    14    1
    14    14    15    1
    15    15    16   ar
    16    16    17   ar
    17    17    18   ar
    18    18    19   ar
    19    19    20   ar
    20    15    20   ar
    21    20    21    1
    22    21    22    2
    23    21    23   am
    24    23    24    1
    25    25    26    1
    26    26    27    1
    27    27    28    1
    28    28    29    1
    29    25    29    1
    30     8    30   ar
    31     4    30   ar
    32    25    24    1
    33     1    31    1
    34     1    32    1
    35     1    33    1
    36     2    34    1
    37     2    35    1
    38     5    36    1
    39     6    37    1
    40     7    38    1
    41    11    39    1
    42    14    40    1
    43    16    41    1
    44    17    42    1
    45    18    43    1
    46    19    44    1
    47    23    45    1
    48    24    46    1
    49    24    47    1
    50    25    48    1
    51    26    49    1
    52    26    50    1
    53    27    51    1
    54    27    52    1
    55    28    53    1
    56    28    54    1
    57    30    55    1
