@<TRIPOS>MOLECULE
*****
 42 42 0 0 0
SMALL
GASTEIGER

@<TRIPOS>ATOM
      1 C           1.0427    0.0631   -0.0675 C.3     1  UNL1       -0.0652
      2 C           2.5671    0.0363   -0.0766 C.3     1  UNL1       -0.0545
      3 C           3.1095   -1.3261   -0.5424 C.3     1  UNL1       -0.0376
      4 C           4.6460   -1.3686   -0.5569 C.3     1  UNL1        0.0131
      5 N           5.2117   -2.6505   -0.9954 N.am    1  UNL1       -0.2982
      6 C           6.5793   -2.8493   -1.0632 C.2     1  UNL1        0.3160
      7 O           7.3976   -1.9765   -0.7647 O.2     1  UNL1       -0.2513
      8 N           6.9695   -4.1080   -1.4941 N.am    1  UNL1       -0.2182
      9 N           8.3673   -4.4266   -1.6018 N.am    1  UNL1       -0.2332
     10 C           8.7561   -5.6891   -2.0344 C.2     1  UNL1        0.2295
     11 O           7.9307   -6.5546   -2.3330 O.2     1  UNL1       -0.2743
     12 C          10.2688   -5.9412   -2.1204 C.3     1  UNL1        0.0324
     13 C          10.5987   -7.3692   -2.6143 C.3     1  UNL1        0.0187
     14 C          12.0953   -7.6400   -2.6727 C.2     1  UNL1        0.1636
     15 O          12.9323   -6.7995   -2.3444 O.2     1  UNL1       -0.2920
     16 C          12.5787   -8.9825   -3.1139 C.ar    1  UNL1        0.0174
     17 C          13.6662   -9.5535   -2.4371 C.ar    1  UNL1       -0.0513
     18 C          14.2485  -10.7352   -2.9038 C.ar    1  UNL1       -0.0611
     19 C          13.7106  -11.3848   -4.0129 C.ar    1  UNL1       -0.0617
     20 C          12.6156  -10.8324   -4.6793 C.ar    1  UNL1       -0.0611
     21 C          12.0511   -9.6287   -4.2370 C.ar    1  UNL1       -0.0513
     22 H           0.6747    1.0396    0.2664 H       1  UNL1        0.0230
     23 H           0.6413   -0.6969    0.6105 H       1  UNL1        0.0230
     24 H           0.6413   -0.1228   -1.0688 H       1  UNL1        0.0230
     25 H           2.9304    0.2630    0.9330 H       1  UNL1        0.0263
     26 H           2.9304    0.8336   -0.7361 H       1  UNL1        0.0263
     27 H           2.7228   -1.5402   -1.5461 H       1  UNL1        0.0280
     28 H           2.7228   -2.1099    0.1202 H       1  UNL1        0.0280
     29 H           5.0299   -1.1585    0.4483 H       1  UNL1        0.0462
     30 H           5.0298   -0.5870   -1.2231 H       1  UNL1        0.0462
     31 H           4.5825   -3.3977   -1.2503 H       1  UNL1        0.1503
     32 H           6.3230   -4.8494   -1.7461 H       1  UNL1        0.1744
     33 H           9.0151   -3.6815   -1.3469 H       1  UNL1        0.1728
     34 H          10.7157   -5.7854   -1.1307 H       1  UNL1        0.0363
     35 H          10.7170   -5.2102   -2.8046 H       1  UNL1        0.0363
     36 H          10.1702   -7.5159   -3.6106 H       1  UNL1        0.0350
     37 H          10.1582   -8.1056   -1.9318 H       1  UNL1        0.0350
     38 H          14.0718   -9.0720   -1.5496 H       1  UNL1        0.0624
     39 H          15.1327  -11.1374   -2.4144 H       1  UNL1        0.0618
     40 H          14.1505  -12.3169   -4.3620 H       1  UNL1        0.0618
     41 H          12.2200  -11.3295   -5.5627 H       1  UNL1        0.0618
     42 H          11.2317   -9.1972   -4.8035 H       1  UNL1        0.0624
@<TRIPOS>BOND
     1     1     2    1
     2     2     3    1
     3     3     4    1
     4     4     5    1
     5     5     6   am
     6     6     7    2
     7     6     8   am
     8     8     9    1
     9     9    10   am
    10    10    11    2
    11    10    12    1
    12    12    13    1
    13    13    14    1
    14    14    15    2
    15    14    16    1
    16    16    17   ar
    17    17    18   ar
    18    18    19   ar
    19    19    20   ar
    20    20    21   ar
    21    16    21   ar
    22     1    22    1
    23     1    23    1
    24     1    24    1
    25     2    25    1
    26     2    26    1
    27     3    27    1
    28     3    28    1
    29     4    29    1
    30     4    30    1
    31     5    31    1
    32     8    32    1
    33     9    33    1
    34    12    34    1
    35    12    35    1
    36    13    36    1
    37    13    37    1
    38    17    38    1
    39    18    39    1
    40    19    40    1
    41    20    41    1
    42    21    42    1
