REMARK  11 active torsions:
REMARK  status: ('A' for Active; 'I' for Inactive)
REMARK    1  A    between atoms: C_2  and  C_3 
REMARK       I    between atoms: C_2  and  N_13 
REMARK    2  A    between atoms: C_3  and  N_4 
REMARK    3  A    between atoms: N_13  and  N_14 
REMARK    4  A    between atoms: N_14  and  C_15 
REMARK    5  A    between atoms: C_15  and  N_17 
REMARK       I    between atoms: N_17  and  C_18 
REMARK    6  A    between atoms: C_18  and  C_20 
REMARK    7  A    between atoms: C_25  and  O_26 
REMARK    8  A    between atoms: O_26  and  C_27 
REMARK    9  A    between atoms: C_27  and  C_28 
REMARK   10  A    between atoms: C_28  and  O_29 
REMARK   11  A    between atoms: O_29  and  C_30 
ROOT
ATOM      1  N   UNL d   1       6.431  -1.816  -1.861  0.00  0.00    -0.298 N 
ATOM      2  C   UNL d   1       7.221  -2.725  -2.589  0.00  0.00     0.260 C 
ATOM      3  O   UNL d   1       6.804  -3.808  -3.007  0.00  0.00    -0.267 OA
ATOM      4  H   UNL d   1       6.925  -1.105  -1.340  0.00  0.00     0.171 HD
ENDROOT
BRANCH   1   5
ATOM      5  C   UNL d   1       5.022  -1.741  -1.907  0.00  0.00     0.193 C 
ATOM      6  S   UNL d   1       4.036  -2.595  -2.979  0.00  0.00    -0.039 SA
BRANCH   5   7
ATOM      7  N   UNL d   1       4.451  -0.869  -0.958  0.00  0.00    -0.273 N 
ATOM      8  H   UNL d   1       4.996  -0.346  -0.285  0.00  0.00     0.189 HD
BRANCH   7   9
ATOM      9  N   UNL d   1       3.028  -0.814  -0.872  0.00  0.00    -0.266 N 
ATOM     10  C   UNL d   1       2.237  -0.058  -0.035  0.00  0.00     0.254 C 
ATOM     11  O   UNL d   1       1.014  -0.154  -0.145  0.00  0.00    -0.270 OA
ATOM     12  H   UNL d   1       2.520  -1.407  -1.536  0.00  0.00     0.190 HD
BRANCH  10  13
ATOM     13  C   UNL d   1       2.922   0.834   0.978  0.00  0.00     0.233 C 
BRANCH  13  14
ATOM     14  N   UNL d   1       2.014   1.609   1.825  0.00  0.00    -0.347 N 
ATOM     15  C   UNL d   1       1.055   1.051   2.640  0.00  0.00     0.092 A 
ATOM     16  C   UNL d   1       0.420   2.063   3.319  0.00  0.00     0.031 A 
ATOM     17  C   UNL d   1       1.033   3.284   2.942  0.00  0.00    -0.008 A 
ATOM     18  C   UNL d   1       0.812   4.624   3.320  0.00  0.00     0.014 A 
ATOM     19  C   UNL d   1       2.034   2.984   2.009  0.00  0.00     0.044 A 
ATOM     20  C   UNL d   1       1.599   5.635   2.767  0.00  0.00     0.001 A 
ATOM     21  C   UNL d   1       2.591   5.324   1.842  0.00  0.00     0.002 A 
ATOM     22  C   UNL d   1       2.827   4.000   1.446  0.00  0.00     0.030 A 
ENDBRANCH  13  14
ENDBRANCH  10  13
ENDBRANCH   7   9
ENDBRANCH   5   7
ENDBRANCH   1   5
BRANCH   2  23
ATOM     23  C   UNL d   1       8.684  -2.492  -2.757  0.00  0.00     0.065 A 
ATOM     24  C   UNL d   1       9.439  -2.525  -1.570  0.00  0.00     0.020 A 
ATOM     25  C   UNL d   1      10.828  -2.361  -1.594  0.00  0.00     0.001 A 
ATOM     26  C   UNL d   1      11.498  -2.298  -2.810  0.00  0.00     0.003 A 
ATOM     27  C   UNL d   1      10.775  -2.409  -4.001  0.00  0.00     0.038 A 
ATOM     28  C   UNL d   1       9.362  -2.449  -4.003  0.00  0.00     0.084 A 
BRANCH  28  29
ATOM     29  O   UNL d   1       8.848  -2.410  -5.287  0.00  0.00    -0.348 OA
BRANCH  29  30
ATOM     30  C   UNL d   1       7.429  -2.432  -5.420  0.00  0.00     0.202 C 
BRANCH  30  31
ATOM     31  C   UNL d   1       6.923  -2.302  -6.849  0.00  0.00     0.202 C 
BRANCH  31  32
ATOM     32  O   UNL d   1       5.482  -2.314  -6.790  0.00  0.00    -0.349 OA
BRANCH  32  33
ATOM     33  C   UNL d   1       4.872  -2.269  -8.012  0.00  0.00     0.068 C 
ATOM     34  C   UNL d   1       5.300  -3.022  -9.102  0.00  0.00     0.037 C 
ATOM     35  C   UNL d   1       4.744  -2.803 -10.360  0.00  0.00     0.003 C 
ATOM     36  C   UNL d   1       3.663  -1.937 -10.502  0.00  0.00     0.000 C 
ATOM     37  C   UNL d   1       3.121  -1.314  -9.378  0.00  0.00     0.003 C 
ATOM     38  C   UNL d   1       3.749  -1.450  -8.138  0.00  0.00     0.037 C 
ENDBRANCH  32  33
ENDBRANCH  31  32
ENDBRANCH  30  31
ENDBRANCH  29  30
ENDBRANCH  28  29
ENDBRANCH   2  23
TORSDOF 11
