REMARK  12 active torsions:
REMARK  status: ('A' for Active; 'I' for Inactive)
REMARK    1  A    between atoms: C_2  and  C_4 
REMARK    2  A    between atoms: C_4  and  N_5 
REMARK    3  A    between atoms: N_5  and  C_6 
REMARK       I    between atoms: N_5  and  C_10 
REMARK    4  A    between atoms: C_6  and  C_7 
REMARK    5  A    between atoms: C_10  and  C_12 
REMARK    6  A    between atoms: C_12  and  N_13 
REMARK    7  A    between atoms: N_13  and  C_14 
REMARK    8  A    between atoms: C_16  and  N_17 
REMARK    9  A    between atoms: C_22  and  N_23 
REMARK   10  A    between atoms: N_23  and  C_24 
REMARK   11  A    between atoms: C_24  and  C_25 
REMARK   12  A    between atoms: C_25  and  O_26 
ROOT
ATOM      1  C   UNL d   1       8.639   3.578  -2.376  0.00  0.00     0.057 A 
ATOM      2  C   UNL d   1       9.225   4.877  -2.386  0.00  0.00     0.067 A 
ATOM      3  C   UNL d   1      10.570   5.090  -2.740  0.00  0.00     0.105 A 
ATOM      4  C   UNL d   1      11.414   4.015  -2.984  0.00  0.00     0.038 A 
ATOM      5  C   UNL d   1      10.876   2.734  -2.987  0.00  0.00     0.034 A 
ATOM      6  C   UNL d   1       9.508   2.469  -2.712  0.00  0.00     0.054 A 
ENDROOT
BRANCH   1   7
ATOM      7  N   UNL d   1       7.252   3.598  -2.100  0.00  0.00    -0.379 N 
ATOM      8  H   UNL d   1       6.675   4.090  -2.785  0.00  0.00     0.160 HD
BRANCH   7   9
ATOM      9  C   UNL d   1       6.523   2.688  -1.209  0.00  0.00     0.222 C 
BRANCH   9  10
ATOM     10  C   UNL d   1       5.010   2.587  -1.247  0.00  0.00     0.237 C 
ATOM     11  N   UNL d   1       4.459   1.408  -0.563  0.00  0.00    -0.350 N 
ATOM     12  O   UNL d   1       4.353   3.304  -1.970  0.00  0.00    -0.272 OA
BRANCH  11  13
ATOM     13  C   UNL d   1       2.939   1.474  -0.659  0.00  0.00     0.129 C 
BRANCH  13  14
ATOM     14  C   UNL d   1       2.063   0.434   0.069  0.00  0.00    -0.005 C 
ATOM     15  C   UNL d   1       0.572   0.432   0.111  0.00  0.00     0.011 C 
ATOM     16  C   UNL d   1       2.193  -0.831  -0.696  0.00  0.00     0.011 C 
ENDBRANCH  13  14
ENDBRANCH  11  13
BRANCH  11  17
ATOM     17  C   UNL d   1       5.324   0.317   0.213  0.00  0.00     0.129 C 
BRANCH  17  18
ATOM     18  C   UNL d   1       4.690  -1.049   0.654  0.00  0.00    -0.005 C 
ATOM     19  C   UNL d   1       4.358  -2.142  -0.467  0.00  0.00     0.011 C 
ATOM     20  C   UNL d   1       5.420  -1.943   1.628  0.00  0.00     0.011 C 
ENDBRANCH  17  18
ENDBRANCH  11  17
ENDBRANCH   9  10
ENDBRANCH   7   9
ENDBRANCH   1   7
BRANCH   6  21
ATOM     21  N   UNL d   1       9.177   1.117  -3.006  0.00  0.00    -0.386 N 
ATOM     22  H   UNL d   1       9.926   0.441  -2.918  0.00  0.00     0.159 HD
BRANCH  21  23
ATOM     23  C   UNL d   1       7.897   0.672  -2.587  0.00  0.00     0.146 C 
BRANCH  23  24
ATOM     24  C   UNL d   1       7.452  -0.763  -2.657  0.00  0.00     0.183 C 
BRANCH  24  25
ATOM     25  O   UNL d   1       6.025  -0.895  -2.585  0.00  0.00    -0.399 OA
ATOM     26  H   UNL d   1       5.595  -0.163  -2.108  0.00  0.00     0.209 HD
ENDBRANCH  24  25
ENDBRANCH  23  24
ENDBRANCH  21  23
ENDBRANCH   6  21
BRANCH   3  27
ATOM     27  N   UNL d   1      11.079   6.450  -2.971  0.00  0.00    -0.116 N 
ATOM     28  O   UNL d   1      10.307   7.399  -2.792  0.00  0.00    -0.532 OA
ATOM     29  O   UNL d   1      12.250   6.564  -3.372  0.00  0.00    -0.532 OA
ENDBRANCH   3  27
TORSDOF 12
