@<TRIPOS>MOLECULE
*****
 44 46 0 0 0
SMALL
GASTEIGER

@<TRIPOS>ATOM
      1 C          -2.6157   -0.3084   -0.0032 C.3     1  UNL1       -0.0211
      2 C          -1.1431   -0.1426    0.0205 C.ar    1  UNL1        0.0583
      3 N          -0.6630    1.1572    0.0553 N.ar    1  UNL1       -0.2435
      4 C           0.6526    1.1784    0.0397 C.ar    1  UNL1        0.1092
      5 C           1.4362    2.4255    0.0312 C.ar    1  UNL1        0.0071
      6 C           1.2153    3.3967    1.0227 C.ar    1  UNL1       -0.0520
      7 C           1.7985    4.6664    0.9299 C.ar    1  UNL1       -0.0611
      8 C           2.6633    4.9611   -0.1209 C.ar    1  UNL1       -0.0617
      9 C           2.9130    4.0009   -1.0996 C.ar    1  UNL1       -0.0611
     10 C           2.2978    2.7439   -1.0292 C.ar    1  UNL1       -0.0520
     11 S           1.3857   -0.3740    0.0161 S.2     1  UNL1       -0.0623
     12 C          -0.1764   -1.1384    0.0236 C.ar    1  UNL1        0.0970
     13 C          -0.2691   -2.6007    0.0348 C.2     1  UNL1        0.2567
     14 O           0.7378   -3.3166    0.0655 O.2     1  UNL1       -0.2692
     15 N          -1.5503   -3.1561   -0.0400 N.am    1  UNL1       -0.2810
     16 C          -1.8424   -4.5300    0.0359 C.ar    1  UNL1        0.0337
     17 C          -2.8992   -5.0651   -0.7085 C.ar    1  UNL1       -0.0402
     18 C          -3.2135   -6.4291   -0.6035 C.ar    1  UNL1       -0.0553
     19 C          -2.4613   -7.2775    0.2289 C.ar    1  UNL1       -0.0302
     20 C          -2.7199   -8.7677    0.1943 C.3     1  UNL1        0.0383
     21 N          -1.8561   -9.5677    1.0391 N.am    1  UNL1       -0.2955
     22 C          -1.8290  -10.9013    1.1922 C.2     1  UNL1        0.2973
     23 N          -2.7144  -11.6257    0.4941 N.am    1  UNL1       -0.3134
     24 O          -1.0208  -11.4326    1.9516 O.2     1  UNL1       -0.2531
     25 C          -1.4565   -6.6983    1.0141 C.ar    1  UNL1       -0.0553
     26 C          -1.1431   -5.3471    0.9099 C.ar    1  UNL1       -0.0402
     27 H          -3.1367    0.6504   -0.0029 H       1  UNL1        0.0293
     28 H          -2.9378   -0.8722    0.8782 H       1  UNL1        0.0293
     29 H          -2.9143   -0.8404   -0.9130 H       1  UNL1        0.0293
     30 H           0.5653    3.1757    1.8671 H       1  UNL1        0.0624
     31 H           1.5593    5.4321    1.6644 H       1  UNL1        0.0618
     32 H           3.1348    5.9397   -0.1809 H       1  UNL1        0.0618
     33 H           3.5643    4.2418   -1.9365 H       1  UNL1        0.0618
     34 H           2.4689    2.0314   -1.8322 H       1  UNL1        0.0624
     35 H          -2.3467   -2.5805   -0.2398 H       1  UNL1        0.1551
     36 H          -3.4395   -4.4575   -1.4317 H       1  UNL1        0.0636
     37 H          -4.0363   -6.8296   -1.1954 H       1  UNL1        0.0621
     38 H          -2.5711   -9.1218   -0.8337 H       1  UNL1        0.0512
     39 H          -3.7560   -8.9773    0.4818 H       1  UNL1        0.0512
     40 H          -1.1294   -9.1292    1.5821 H       1  UNL1        0.1506
     41 H          -3.3601  -11.2278   -0.1653 H       1  UNL1        0.1465
     42 H          -2.6787  -12.6290    0.6055 H       1  UNL1        0.1465
     43 H          -0.8720   -7.2658    1.7276 H       1  UNL1        0.0621
     44 H          -0.3614   -4.9436    1.5467 H       1  UNL1        0.0636
@<TRIPOS>BOND
     1     1     2    1
     2     2     3   ar
     3     3     4   ar
     4     4     5    1
     5     5     6   ar
     6     6     7   ar
     7     7     8   ar
     8     8     9   ar
     9     9    10   ar
    10     5    10   ar
    11     4    11   ar
    12    11    12   ar
    13     2    12   ar
    14    12    13    1
    15    13    14    2
    16    13    15   am
    17    15    16    1
    18    16    17   ar
    19    17    18   ar
    20    18    19   ar
    21    19    20    1
    22    20    21    1
    23    21    22   am
    24    22    23   am
    25    22    24    2
    26    19    25   ar
    27    25    26   ar
    28    16    26   ar
    29     1    27    1
    30     1    28    1
    31     1    29    1
    32     6    30    1
    33     7    31    1
    34     8    32    1
    35     9    33    1
    36    10    34    1
    37    15    35    1
    38    17    36    1
    39    18    37    1
    40    20    38    1
    41    20    39    1
    42    21    40    1
    43    23    41    1
    44    23    42    1
    45    25    43    1
    46    26    44    1
