@<TRIPOS>MOLECULE
*****
 46 48 0 0 0
SMALL
GASTEIGER

@<TRIPOS>ATOM
      1 C           0.2203  -13.2600   -4.2654 C.3     1  UNL1       -0.0384
      2 C          -0.3003  -12.0062   -4.9448 C.ar    1  UNL1       -0.0259
      3 C          -0.0360  -10.7408   -4.5157 C.ar    1  UNL1        0.0494
      4 C           0.8209  -10.5162   -3.2807 C.3     1  UNL1        0.0561
      5 C           1.0680   -9.0853   -2.7864 C.2     1  UNL1        0.2177
      6 O           0.7728   -8.0260   -3.3118 O.2     1  UNL1       -0.2755
      7 N           1.7541   -8.9821   -1.6191 N.am    1  UNL1       -0.3122
      8 C           2.1516   -7.6268   -1.2398 C.3     1  UNL1        0.0418
      9 C           3.0345   -7.5088    0.0089 C.3     1  UNL1        0.0956
     10 O           3.6668   -6.2207   -0.0144 O.3     1  UNL1       -0.3856
     11 C           4.0608   -8.6272    0.0964 C.ar    1  UNL1       -0.0177
     12 C           5.4284   -8.3756   -0.0154 C.ar    1  UNL1       -0.0561
     13 C           6.3354   -9.4308   -0.0554 C.ar    1  UNL1       -0.0614
     14 C           5.8866  -10.7503   -0.0513 C.ar    1  UNL1       -0.0617
     15 C           4.5319  -11.0233    0.0669 C.ar    1  UNL1       -0.0614
     16 C           3.6436   -9.9685    0.2397 C.ar    1  UNL1       -0.0561
     17 C          -0.6016   -9.5700   -5.2753 C.ar    1  UNL1        0.3412
     18 O          -0.4570   -8.3793   -5.0539 O.2     1  UNL1       -0.2449
     19 O          -1.3831   -9.8097   -6.3609 O.2     1  UNL1       -0.4217
     20 C          -1.6429  -11.0852   -6.7966 C.ar    1  UNL1        0.1463
     21 C          -2.4437  -11.0954   -7.9319 C.ar    1  UNL1        0.0231
     22 C          -2.7805  -12.3132   -8.4625 C.ar    1  UNL1        0.1239
     23 O          -3.5626  -12.3983   -9.5712 O.3     1  UNL1       -0.5065
     24 C          -2.3228  -13.4828   -7.8665 C.ar    1  UNL1        0.0221
     25 C          -1.5134  -13.4303   -6.7217 C.ar    1  UNL1        0.1312
     26 O          -1.0856  -14.6050   -6.1681 O.3     1  UNL1       -0.5059
     27 C          -1.1464  -12.2087   -6.1493 C.ar    1  UNL1        0.0624
     28 H           0.8399  -13.0808   -3.3847 H       1  UNL1        0.0278
     29 H           0.8486  -13.8388   -4.9542 H       1  UNL1        0.0278
     30 H          -0.6125  -13.8846   -3.9185 H       1  UNL1        0.0278
     31 H           1.8081  -10.9864   -3.4370 H       1  UNL1        0.0409
     32 H           0.3731  -11.0637   -2.4329 H       1  UNL1        0.0409
     33 H           2.4047   -9.7410   -1.5029 H       1  UNL1        0.1488
     34 H           1.2308   -7.0444   -1.0841 H       1  UNL1        0.0491
     35 H           2.6419   -7.1451   -2.1025 H       1  UNL1        0.0491
     36 H           2.4020   -7.5368    0.9003 H       1  UNL1        0.0659
     37 H           4.1837   -6.1647   -0.8388 H       1  UNL1        0.2103
     38 H           5.8085   -7.3583   -0.0540 H       1  UNL1        0.0621
     39 H           7.3978   -9.2142   -0.0966 H       1  UNL1        0.0618
     40 H           6.5993  -11.5662   -0.1100 H       1  UNL1        0.0618
     41 H           4.1663  -12.0466    0.0363 H       1  UNL1        0.0618
     42 H           2.5912  -10.2103    0.3990 H       1  UNL1        0.0621
     43 H          -2.7714  -10.1485   -8.3534 H       1  UNL1        0.0691
     44 H          -3.7938  -11.4965   -9.8574 H       1  UNL1        0.2921
     45 H          -2.6049  -14.4314   -8.3051 H       1  UNL1        0.0691
     46 H          -1.4224  -15.3598   -6.6737 H       1  UNL1        0.2922
@<TRIPOS>BOND
     1     1     2    1
     2     2     3   ar
     3     3     4    1
     4     4     5    1
     5     5     6    2
     6     5     7   am
     7     7     8    1
     8     9    11    1
     9    11    12   ar
    10    12    13   ar
    11    13    14   ar
    12    14    15   ar
    13    15    16   ar
    14    11    16   ar
    15     3    17   ar
    16    17    18    2
    17    17    19   ar
    18    19    20   ar
    19    20    21   ar
    20    21    22   ar
    21    22    23    1
    22    22    24   ar
    23    24    25   ar
    24    25    26    1
    25    25    27   ar
    26     2    27   ar
    27    20    27   ar
    28     9    10    1
    29     9     8    1
    30     1    28    1
    31     1    29    1
    32     1    30    1
    33     4    31    1
    34     4    32    1
    35     7    33    1
    36     8    34    1
    37     8    35    1
    38     9    36    1
    39    10    37    1
    40    12    38    1
    41    13    39    1
    42    14    40    1
    43    15    41    1
    44    16    42    1
    45    21    43    1
    46    23    44    1
    47    24    45    1
    48    26    46    1
