REMARK  7 active torsions:
REMARK  status: ('A' for Active; 'I' for Inactive)
REMARK    1  A    between atoms: C_2  and  N_3 
REMARK       I    between atoms: N_3  and  C_4 
REMARK       I    between atoms: C_4  and  N_6 
REMARK    2  A    between atoms: N_6  and  N_7 
REMARK       I    between atoms: N_7  and  C_8 
REMARK    3  A    between atoms: C_8  and  C_10 
REMARK    4  A    between atoms: C_10  and  N_11 
REMARK       I    between atoms: N_11  and  C_12 
REMARK    5  A    between atoms: C_12  and  C_14 
REMARK    6  A    between atoms: C_17  and  O_18 
REMARK    7  A    between atoms: O_18  and  C_19 
ROOT
ATOM      1  N   UNL d   1       8.606   6.157  -2.013  0.00  0.00    -0.348 N 
ATOM      2  C   UNL d   1       9.905   6.595  -2.227  0.00  0.00     0.252 C 
ATOM      3  O   UNL d   1      10.894   5.879  -2.062  0.00  0.00    -0.268 OA
ATOM      4  H   UNL d   1       7.823   6.764  -2.233  0.00  0.00     0.163 HD
ENDROOT
BRANCH   1   5
ATOM      5  C   UNL d   1       8.273   4.791  -1.567  0.00  0.00     0.227 C 
BRANCH   5   6
ATOM      6  C   UNL d   1       6.734   4.533  -1.478  0.00  0.00     0.253 C 
ATOM      7  N   UNL d   1       6.331   3.262  -1.067  0.00  0.00    -0.265 N 
ATOM      8  H   UNL d   1       6.971   2.506  -0.825  0.00  0.00     0.190 HD
ATOM      9  O   UNL d   1       5.918   5.417  -1.758  0.00  0.00    -0.270 OA
BRANCH   7  10
ATOM     10  N   UNL d   1       4.926   2.940  -0.961  0.00  0.00    -0.249 N 
ATOM     11  C   UNL d   1       4.538   1.669  -0.552  0.00  0.00     0.334 C 
ATOM     12  N   UNL d   1       3.168   1.469  -0.487  0.00  0.00    -0.342 N 
ATOM     13  O   UNL d   1       5.355   0.795  -0.270  0.00  0.00    -0.246 OA
ATOM     14  H   UNL d   1       2.537   2.217  -0.730  0.00  0.00     0.164 HD
ATOM     15  H   UNL d   1       4.275   3.680  -1.204  0.00  0.00     0.192 HD
BRANCH  12  16
ATOM     16  C   UNL d   1       2.600   0.183  -0.072  0.00  0.00     0.120 C 
ATOM     17  C   UNL d   1       1.073   0.146  -0.061  0.00  0.00     0.026 C 
ENDBRANCH  12  16
ENDBRANCH   7  10
ENDBRANCH   5   6
ENDBRANCH   1   5
BRANCH   2  18
ATOM     18  C   UNL d   1      10.087   8.021  -2.646  0.00  0.00     0.032 A 
ATOM     19  C   UNL d   1      11.075   8.422  -3.562  0.00  0.00     0.020 A 
ATOM     20  C   UNL d   1      11.294   9.793  -3.829  0.00  0.00     0.038 A 
ATOM     21  C   UNL d   1      10.475  10.768  -3.251  0.00  0.00     0.069 A 
ATOM     22  C   UNL d   1       9.473  10.346  -2.376  0.00  0.00     0.038 A 
ATOM     23  C   UNL d   1       9.310   9.001  -2.037  0.00  0.00     0.020 A 
BRANCH  21  24
ATOM     24  O   UNL d   1      10.735  12.078  -3.581  0.00  0.00    -0.347 OA
BRANCH  24  25
ATOM     25  C   UNL d   1       9.863  13.091  -3.042  0.00  0.00     0.120 C 
ATOM     26  C   UNL d   1      10.094  13.286  -1.540  0.00  0.00     0.040 C 
ATOM     27  C   UNL d   1      10.165  14.433  -3.722  0.00  0.00     0.040 C 
ENDBRANCH  24  25
ENDBRANCH  21  24
ENDBRANCH   2  18
TORSDOF 7
