REMARK  14 active torsions:
REMARK  status: ('A' for Active; 'I' for Inactive)
REMARK    1  A    between atoms: C_2  and  C_3 
REMARK    2  A    between atoms: C_3  and  C_4 
REMARK    3  A    between atoms: C_4  and  O_5 
REMARK    4  A    between atoms: O_5  and  C_6 
REMARK    5  A    between atoms: C_9  and  C_10 
REMARK    6  A    between atoms: C_10  and  C_12 
REMARK    7  A    between atoms: C_13  and  O_14 
REMARK    8  A    between atoms: N_17  and  C_18 
REMARK    9  A    between atoms: C_18  and  C_19 
REMARK   10  A    between atoms: C_19  and  C_20 
REMARK   11  A    between atoms: C_20  and  N_21 
REMARK   12  A    between atoms: C_24  and  C_25 
REMARK   13  A    between atoms: C_28  and  O_29 
REMARK   14  A    between atoms: C_30  and  O_31 
ROOT
ATOM      1  C   UNL d   1      11.860  -1.771   2.741  0.00  0.00     0.059 C 
ATOM      2  C   UNL d   1      12.837  -2.405   3.437  0.00  0.00     0.146 C 
ATOM      3  C   UNL d   1      13.596  -1.396   4.229  0.00  0.00     0.278 C 
ATOM      4  O   UNL d   1      13.265  -0.939   5.349  0.00  0.00    -0.265 OA
ATOM      5  N   UNL d   1      13.985  -0.513   3.272  0.00  0.00    -0.333 N 
ATOM      6  C   UNL d   1      12.311  -0.286   2.864  0.00  0.00     0.161 C 
ENDROOT
BRANCH   1   7
ATOM      7  C   UNL d   1      10.782  -2.755   2.241  0.00  0.00     0.194 C 
ATOM      8  O   UNL d   1      11.226  -3.892   1.980  0.00  0.00    -0.287 OA
BRANCH   7   9
ATOM      9  C   UNL d   1       9.242  -2.643   2.140  0.00  0.00     0.021 A 
ATOM     10  C   UNL d   1       8.617  -1.396   2.240  0.00  0.00     0.019 A 
ATOM     11  C   UNL d   1       7.209  -1.237   2.112  0.00  0.00     0.038 A 
ATOM     12  C   UNL d   1       6.360  -2.313   1.867  0.00  0.00     0.069 A 
ATOM     13  C   UNL d   1       6.928  -3.580   1.816  0.00  0.00     0.044 A 
ATOM     14  C   UNL d   1       8.349  -3.774   1.938  0.00  0.00    -0.045 A 
ATOM     15  C   UNL d   1       8.742  -5.239   1.828  0.00  0.00     0.049 C 
BRANCH  12  16
ATOM     16  O   UNL d   1       4.995  -2.219   1.746  0.00  0.00    -0.351 OA
BRANCH  16  17
ATOM     17  C   UNL d   1       4.525  -1.121   0.944  0.00  0.00     0.175 C 
BRANCH  17  18
ATOM     18  C   UNL d   1       2.992  -1.104   0.927  0.00  0.00     0.026 C 
BRANCH  18  19
ATOM     19  C   UNL d   1       2.449   0.033   0.056  0.00  0.00    -0.002 C 
ATOM     20  C   UNL d   1       0.927   0.048   0.047  0.00  0.00     0.005 C 
ENDBRANCH  18  19
ENDBRANCH  17  18
ENDBRANCH  16  17
ENDBRANCH  12  16
ENDBRANCH   7   9
ENDBRANCH   1   7
BRANCH   2  21
ATOM     21  O   UNL d   1      13.458  -3.560   3.008  0.00  0.00    -0.355 OA
ATOM     22  H   UNL d   1      12.830  -3.995   2.384  0.00  0.00     0.218 HD
ENDBRANCH   2  21
BRANCH   6  23
ATOM     23  C   UNL d   1      12.170   0.718   1.738  0.00  0.00    -0.028 C 
ATOM     24  C   UNL d   1      11.825   2.029   2.135  0.00  0.00     0.012 C 
ATOM     25  C   UNL d   1      12.798   3.006   1.994  0.00  0.00     0.040 C 
ATOM     26  C   UNL d   1      14.049   2.619   1.470  0.00  0.00     0.099 C 
ATOM     27  C   UNL d   1      14.265   1.322   0.923  0.00  0.00     0.101 C 
ATOM     28  C   UNL d   1      13.181   0.480   0.820  0.00  0.00     0.049 C 
BRANCH  26  29
ATOM     29  O   UNL d   1      15.100   3.489   1.615  0.00  0.00    -0.358 OA
ATOM     30  H   UNL d   1      14.717   4.384   1.666  0.00  0.00     0.217 HD
ENDBRANCH  26  29
BRANCH  27  31
ATOM     31  O   UNL d   1      15.547   0.826   0.730  0.00  0.00    -0.353 OA
ATOM     32  C   UNL d   1      15.758  -0.612   0.776  0.00  0.00     0.210 C 
ENDBRANCH  27  31
ENDBRANCH   6  23
BRANCH   5  33
ATOM     33  C   UNL d   1      15.398   0.360   3.631  0.00  0.00     0.129 C 
BRANCH  33  34
ATOM     34  C   UNL d   1      17.077  -0.253   3.543  0.00  0.00     0.048 C 
BRANCH  34  35
ATOM     35  C   UNL d   1      18.185   0.900   3.636  0.00  0.00     0.235 C 
BRANCH  35  36
ATOM     36  N   UNL d   1      19.696   0.450   3.623  0.00  0.00    -0.079 N 
ATOM     37  C   UNL d   1      20.167  -0.202   2.345  0.00  0.00     0.269 C 
ATOM     38  C   UNL d   1      20.643   1.622   3.917  0.00  0.00     0.269 C 
ATOM     39  H   UNL d   1      19.844  -0.223   4.387  0.00  0.00     0.278 HD
ENDBRANCH  35  36
ENDBRANCH  34  35
ENDBRANCH  33  34
ENDBRANCH   5  33
TORSDOF 14
