REMARK  12 active torsions:
REMARK  status: ('A' for Active; 'I' for Inactive)
REMARK    1  A    between atoms: C_2  and  O_3 
REMARK    2  A    between atoms: C_4  and  C_2 
REMARK    3  A    between atoms: C_4  and  C_17 
REMARK    4  A    between atoms: C_4  and  N_5 
REMARK    5  A    between atoms: N_5  and  S_6 
REMARK    6  A    between atoms: S_6  and  C_9 
REMARK    7  A    between atoms: C_17  and  O_19 
REMARK    8  A    between atoms: O_19  and  C_20 
REMARK    9  A    between atoms: C_20  and  C_21 
REMARK       I    between atoms: C_21  and  N_23 
REMARK   10  A    between atoms: N_23  and  C_24 
REMARK   11  A    between atoms: C_24  and  C_25 
REMARK   12  A    between atoms: C_25  and  C_26 
ROOT
ATOM      1  C   UNL d   1       3.161  -0.922  -1.085  0.00  0.00     0.199 C 
ENDROOT
BRANCH   1   2
ATOM      2  C   UNL d   1       4.708  -1.038  -1.204  0.00  0.00     0.280 C 
ATOM      3  O   UNL d   1       5.538  -0.552  -0.448  0.00  0.00    -0.263 OA
BRANCH   2   4
ATOM      4  O   UNL d   1       5.150  -1.808  -2.225  0.00  0.00    -0.311 OA
BRANCH   4   5
ATOM      5  C   UNL d   1       6.592  -1.805  -2.214  0.00  0.00     0.281 C 
BRANCH   5   6
ATOM      6  C   UNL d   1       7.117  -2.657  -3.337  0.00  0.00     0.241 C 
ATOM      7  O   UNL d   1       6.372  -3.264  -4.103  0.00  0.00    -0.271 OA
ATOM      8  N   UNL d   1       8.496  -2.702  -3.439  0.00  0.00    -0.359 N 
ATOM      9  H   UNL d   1       9.096  -2.234  -2.769  0.00  0.00     0.162 HD
BRANCH   8  10
ATOM     10  C   UNL d   1       9.059  -3.516  -4.486  0.00  0.00     0.127 C 
BRANCH  10  11
ATOM     11  C   UNL d   1      10.589  -3.554  -4.517  0.00  0.00     0.053 C 
BRANCH  11  12
ATOM     12  C   UNL d   1      11.054  -4.468  -5.628  0.00  0.00    -0.082 C 
ATOM     13  C   UNL d   1      10.685  -5.763  -5.627  0.00  0.00    -0.024 C 
ATOM     14  C   UNL d   1      10.959  -6.713  -6.745  0.00  0.00     0.027 C 
ATOM     15  C   UNL d   1      12.047  -6.212  -7.686  0.00  0.00     0.004 C 
ATOM     16  C   UNL d   1      11.848  -4.738  -8.027  0.00  0.00     0.005 C 
ATOM     17  C   UNL d   1      11.848  -3.866  -6.765  0.00  0.00     0.034 C 
ENDBRANCH  11  12
ENDBRANCH  10  11
ENDBRANCH   8  10
ENDBRANCH   5   6
ENDBRANCH   4   5
ENDBRANCH   2   4
ENDBRANCH   1   2
BRANCH   1  18
ATOM     18  N   UNL d   1       2.624  -0.084   0.097  0.00  0.00    -0.199 NA
ATOM     19  H   UNL d   1       2.016   0.670  -0.208  0.00  0.00     0.141 HD
BRANCH  18  20
ATOM     20  S   UNL d   1       3.818   0.544   1.137  0.00  0.00     0.242 S 
ATOM     21  O   UNL d   1       4.420  -0.575   1.824  0.00  0.00    -0.206 OA
ATOM     22  O   UNL d   1       4.537   1.557   0.390  0.00  0.00    -0.206 OA
BRANCH  20  23
ATOM     23  C   UNL d   1       2.955   1.464   2.353  0.00  0.00     0.076 A 
ATOM     24  C   UNL d   1       2.938   0.999   3.667  0.00  0.00     0.026 A 
ATOM     25  C   UNL d   1       2.404   1.811   4.660  0.00  0.00     0.027 A 
ATOM     26  C   UNL d   1       1.909   3.080   4.335  0.00  0.00     0.055 A 
ATOM     27 CL   UNL d   1       1.246   4.026   5.615  0.00  0.00    -0.083 Cl
ATOM     28  C   UNL d   1       1.965   3.547   3.015  0.00  0.00     0.057 A 
ATOM     29 CL   UNL d   1       1.375   5.097   2.541  0.00  0.00    -0.083 Cl
ATOM     30  C   UNL d   1       2.510   2.744   2.021  0.00  0.00     0.050 A 
ENDBRANCH  20  23
ENDBRANCH  18  20
ENDBRANCH   1  18
BRANCH   1  31
ATOM     31  C   UNL d   1       2.559  -0.395  -2.424  0.00  0.00     0.142 C 
ATOM     32  C   UNL d   1       1.100  -0.788  -2.692  0.00  0.00     0.041 C 
BRANCH  31  33
ATOM     33  O   UNL d   1       2.663   1.033  -2.495  0.00  0.00    -0.394 OA
ATOM     34  H   UNL d   1       1.973   1.448  -1.955  0.00  0.00     0.210 HD
ENDBRANCH  31  33
ENDBRANCH   1  31
TORSDOF 12
