@<TRIPOS>MOLECULE
*****
 38 40 0 0 0
SMALL
GASTEIGER

@<TRIPOS>ATOM
      1 C           2.4503   -0.3642   -0.0051 C.3     1  UNL1       -0.0380
      2 C           0.9851   -0.0961    0.0055 C.ar    1  UNL1       -0.0292
      3 C           0.2155   -1.2655    0.0060 C.ar    1  UNL1       -0.0564
      4 C          -1.1610   -1.2196    0.0008 C.ar    1  UNL1       -0.0493
      5 C          -1.8112    0.0114   -0.0078 C.ar    1  UNL1        0.0383
      6 C          -3.3098    0.0497   -0.0385 C.2     1  UNL1        0.2416
      7 N          -3.9983   -1.1422   -0.0563 N.am    1  UNL1       -0.3253
      8 O          -3.9236    1.1094   -0.0534 O.2     1  UNL1       -0.2704
      9 C          -1.0386    1.2106    0.0051 C.ar    1  UNL1       -0.0281
     10 C           0.3836    1.1818    0.0148 C.ar    1  UNL1        0.0374
     11 N           1.1157    2.4298    0.0157 N.am    1  UNL1       -0.2800
     12 C           2.4986    2.6170   -0.0016 C.2     1  UNL1        0.2666
     13 O           3.4187    1.8023    0.0688 O.2     1  UNL1       -0.2682
     14 C           3.0838    3.9484   -0.1341 C.ar    1  UNL1        0.1264
     15 C           4.2275    4.0317   -0.9409 C.ar    1  UNL1       -0.0306
     16 C           4.9858    5.1796   -0.8996 C.ar    1  UNL1       -0.0504
     17 C           4.5858    6.1913   -0.0336 C.ar    1  UNL1        0.0004
     18 C           5.2995    7.3893    0.0256 C.ar    1  UNL1       -0.0526
     19 C           4.8773    8.3953    0.8869 C.ar    1  UNL1       -0.0611
     20 C           3.7706    8.1919    1.7081 C.ar    1  UNL1       -0.0597
     21 C           3.0696    6.9878    1.6580 C.ar    1  UNL1       -0.0357
     22 C           3.4331    5.9918    0.7777 C.ar    1  UNL1        0.0718
     23 N           2.6690    4.8952    0.7253 N.ar    1  UNL1       -0.2421
     24 H           2.7310   -1.4165   -0.0151 H       1  UNL1        0.0278
     25 H           2.8626    0.0208    0.9330 H       1  UNL1        0.0278
     26 H           2.8570    0.0455   -0.9364 H       1  UNL1        0.0278
     27 H           0.7129   -2.2331    0.0079 H       1  UNL1        0.0621
     28 H          -1.6739   -2.1712    0.0004 H       1  UNL1        0.0625
     29 H          -3.5895   -2.0635   -0.0511 H       1  UNL1        0.1453
     30 H          -5.0091   -1.1026   -0.0803 H       1  UNL1        0.1453
     31 H          -1.5773    2.1589    0.0026 H       1  UNL1        0.0644
     32 H           0.5631    3.2838    0.0249 H       1  UNL1        0.1552
     33 H           4.5532    3.1800   -1.5347 H       1  UNL1        0.0641
     34 H           5.8769    5.2556   -1.5165 H       1  UNL1        0.0625
     35 H           6.1660    7.5512   -0.6115 H       1  UNL1        0.0624
     36 H           5.4109    9.3403    0.9148 H       1  UNL1        0.0618
     37 H           3.4370    8.9745    2.3824 H       1  UNL1        0.0618
     38 H           2.2105    6.8284    2.3047 H       1  UNL1        0.0639
@<TRIPOS>BOND
     1     1     2    1
     2     2     3   ar
     3     3     4   ar
     4     4     5   ar
     5     5     6    1
     6     6     7   am
     7     6     8    2
     8     5     9   ar
     9     9    10   ar
    10     2    10   ar
    11    10    11    1
    12    11    12   am
    13    12    13    2
    14    12    14    1
    15    14    15   ar
    16    15    16   ar
    17    16    17   ar
    18    17    18   ar
    19    18    19   ar
    20    19    20   ar
    21    20    21   ar
    22    21    22   ar
    23    17    22   ar
    24    22    23   ar
    25    14    23   ar
    26     1    24    1
    27     1    25    1
    28     1    26    1
    29     3    27    1
    30     4    28    1
    31     7    29    1
    32     7    30    1
    33     9    31    1
    34    11    32    1
    35    15    33    1
    36    16    34    1
    37    18    35    1
    38    19    36    1
    39    20    37    1
    40    21    38    1
