REMARK  11 active torsions:
REMARK  status: ('A' for Active; 'I' for Inactive)
REMARK    1  A    between atoms: C_2  and  N_3 
REMARK    2  A    between atoms: N_3  and  C_4 
REMARK    3  A    between atoms: N_3  and  C_6 
REMARK    4  A    between atoms: C_9  and  N_10 
REMARK       I    between atoms: N_10  and  C_11 
REMARK    5  A    between atoms: C_11  and  C_13 
REMARK    6  A    between atoms: C_13  and  S_14 
REMARK    7  A    between atoms: S_14  and  C_15 
REMARK    8  A    between atoms: C_18  and  N_19 
REMARK    9  A    between atoms: N_19  and  N_20 
REMARK   10  A    between atoms: C_21  and  C_22 
REMARK   11  A    between atoms: C_27  and  O_28 
ROOT
ATOM      1  C   UNL d   1      13.531   2.357   1.106  0.00  0.00     0.226 A 
ATOM      2  N   UNL d   1      14.267   1.255   1.272  0.00  0.00    -0.132 NA
ATOM      3  N   UNL d   1      15.515   1.781   1.348  0.00  0.00    -0.103 N 
ATOM      4  C   UNL d   1      15.525   3.149   1.221  0.00  0.00     0.739 A 
ATOM      5  N   UNL d   1      14.265   3.522   1.076  0.00  0.00    -0.034 NA
ATOM      6  H   UNL d   1      16.303   1.157   1.446  0.00  0.00     0.208 HD
ENDROOT
BRANCH   1   7
ATOM      7  S   UNL d   1      11.836   2.325   0.696  0.00  0.00    -0.079 SA
BRANCH   7   8
ATOM      8  C   UNL d   1      10.955   1.295   1.954  0.00  0.00     0.185 C 
BRANCH   8   9
ATOM      9  C   UNL d   1       9.430   1.319   1.615  0.00  0.00     0.231 C 
ATOM     10  N   UNL d   1       8.541   0.636   2.481  0.00  0.00    -0.327 N 
ATOM     11  H   UNL d   1       8.927   0.121   3.264  0.00  0.00     0.169 HD
ATOM     12  O   UNL d   1       9.039   1.905   0.618  0.00  0.00    -0.272 OA
BRANCH  10  13
ATOM     13  C   UNL d   1       7.118   0.530   2.253  0.00  0.00     0.034 A 
ATOM     14  C   UNL d   1       6.286  -0.255   3.070  0.00  0.00     0.032 A 
ATOM     15  C   UNL d   1       4.898  -0.438   2.760  0.00  0.00     0.039 A 
ATOM     16  C   UNL d   1       4.303   0.246   1.687  0.00  0.00     0.134 A 
ATOM     17  C   UNL d   1       5.126   1.039   0.904  0.00  0.00     0.039 A 
ATOM     18  C   UNL d   1       6.487   1.173   1.187  0.00  0.00     0.032 A 
BRANCH  16  19
ATOM     19  N   UNL d   1       2.817   0.357   1.403  0.00  0.00    -0.042 N 
ATOM     20  H   UNL d   1       2.725   1.368   1.259  0.00  0.00     0.286 HD
BRANCH  19  21
ATOM     21  C   UNL d   1       2.474  -0.109  -0.019  0.00  0.00     0.237 C 
ATOM     22  C   UNL d   1       1.000  -0.072  -0.367  0.00  0.00     0.035 C 
ENDBRANCH  19  21
BRANCH  19  23
ATOM     23  C   UNL d   1       1.973   0.244   2.661  0.00  0.00     0.237 C 
ATOM     24  C   UNL d   1       0.477   0.281   2.438  0.00  0.00     0.035 C 
ENDBRANCH  19  23
ENDBRANCH  16  19
ENDBRANCH  10  13
ENDBRANCH   8   9
ENDBRANCH   7   8
ENDBRANCH   1   7
BRANCH   4  25
ATOM     25  N   UNL d   1      16.693   3.889   1.243  0.00  0.00    -0.106 N 
ATOM     26  H   UNL d   1      17.528   3.499   1.677  0.00  0.00     0.208 HD
BRANCH  25  27
ATOM     27  N   UNL d   1      16.660   5.249   0.987  0.00  0.00    -0.171 NA
ATOM     28  C   UNL d   1      17.544   6.053   1.496  0.00  0.00     0.153 C 
BRANCH  28  29
ATOM     29  C   UNL d   1      17.259   7.529   1.613  0.00  0.00     0.016 A 
ATOM     30  C   UNL d   1      18.180   8.421   1.028  0.00  0.00     0.016 A 
ATOM     31  C   UNL d   1      18.042   9.812   1.186  0.00  0.00     0.001 A 
ATOM     32  C   UNL d   1      16.959  10.336   1.882  0.00  0.00     0.003 A 
ATOM     33  C   UNL d   1      16.050   9.467   2.476  0.00  0.00     0.037 A 
ATOM     34  C   UNL d   1      16.196   8.068   2.379  0.00  0.00     0.080 A 
BRANCH  34  35
ATOM     35  O   UNL d   1      15.252   7.441   3.158  0.00  0.00    -0.355 OA
ATOM     36  C   UNL d   1      15.144   6.040   3.043  0.00  0.00     0.210 C 
ENDBRANCH  34  35
ENDBRANCH  28  29
ENDBRANCH  25  27
ENDBRANCH   4  25
TORSDOF 11
