@<TRIPOS>MOLECULE
*****
 61 64 0 0 0
SMALL
GASTEIGER

@<TRIPOS>ATOM
      1 C           0.8972    0.1661    0.2190 C.3     1  UNL1       -0.0372
      2 C           2.3884    0.0225   -0.0923 C.3     1  UNL1        0.0719
      3 C           2.8947    1.0644   -1.1093 C.3     1  UNL1        0.0398
      4 N           2.5267    0.6673   -2.4781 N.pl3   1  UNL1       -0.3047
      5 C           1.7692    1.4680   -3.3055 C.ar    1  UNL1        0.2066
      6 N           0.5269    0.9952   -3.6443 N.ar    1  UNL1       -0.1923
      7 C          -0.2900    1.7524   -4.3987 C.ar    1  UNL1        0.2219
      8 N          -1.5118    1.2625   -4.7926 N.pl3   1  UNL1       -0.2894
      9 C          -1.8651    1.2225   -6.2130 C.3     1  UNL1        0.0552
     10 C          -2.3079   -0.2192   -6.5996 C.3     1  UNL1       -0.0153
     11 N          -3.4225   -0.7096   -5.6702 N.4     1  UNL1        0.2407
     12 C          -4.7111    0.0693   -5.8891 C.3     1  UNL1       -0.0058
     13 C          -5.8739   -0.3638   -5.0457 C.ar    1  UNL1       -0.0029
     14 C          -7.0801   -0.7545   -5.6309 C.ar    1  UNL1       -0.0535
     15 C          -8.1828   -1.0265   -4.8183 C.ar    1  UNL1       -0.0613
     16 C          -8.0556   -1.0499   -3.4284 C.ar    1  UNL1       -0.0617
     17 C          -6.8576   -0.6973   -2.8377 C.ar    1  UNL1       -0.0613
     18 C          -5.8168   -0.2761   -3.6450 C.ar    1  UNL1       -0.0535
     19 C          -2.8525   -0.7052   -4.2402 C.3     1  UNL1       -0.0153
     20 C          -2.4717    0.7382   -3.8301 C.3     1  UNL1        0.0552
     21 N           0.0468    2.9696   -4.8213 N.ar    1  UNL1       -0.1927
     22 C           1.2527    3.4656   -4.4698 C.ar    1  UNL1        0.2013
     23 N           1.4312    4.7822   -4.8293 N.pl3   1  UNL1       -0.3376
     24 C           2.1777    2.7203   -3.7421 C.ar    1  UNL1        0.3516
     25 N           3.5417    3.2264   -3.5580 N.pl3   1  UNL1        0.0868
     26 O           4.4071    2.4850   -3.0558 O.2     1  UNL1        0.0417
     27 O           3.8038    4.3698   -3.9402 O.co2   1  UNL1       -0.5759
     28 C           2.9865   -0.6716   -2.8537 C.3     1  UNL1        0.0398
     29 C           2.4547   -1.6911   -1.8281 C.3     1  UNL1        0.0719
     30 C           0.9580   -1.8680   -2.0215 C.3     1  UNL1       -0.0372
     31 O           2.7580   -1.3210   -0.4672 O.3     1  UNL1       -0.3708
     32 H           0.6901    1.1181    0.7111 H       1  UNL1        0.0255
     33 H           0.5551   -0.6646    0.8442 H       1  UNL1        0.0255
     34 H           0.2562    0.1851   -0.6591 H       1  UNL1        0.0255
     35 H           2.9060    0.2086    0.8577 H       1  UNL1        0.0609
     36 H           3.9905    1.0832   -1.0386 H       1  UNL1        0.0489
     37 H           2.5274    2.0630   -0.8495 H       1  UNL1        0.0489
     38 H          -1.0390    1.5207   -6.8647 H       1  UNL1        0.0517
     39 H          -2.6895    1.9196   -6.4075 H       1  UNL1        0.0517
     40 H          -1.4813   -0.9274   -6.4675 H       1  UNL1        0.0830
     41 H          -2.6777   -0.2937   -7.6259 H       1  UNL1        0.0830
     42 H          -3.6400   -1.6867   -5.9058 H       1  UNL1        0.2038
     43 H          -4.9429   -0.0233   -6.9591 H       1  UNL1        0.0867
     44 H          -4.5270    1.1292   -5.6960 H       1  UNL1        0.0867
     45 H          -7.2005   -0.8074   -6.7123 H       1  UNL1        0.0622
     46 H          -9.1572   -1.2060   -5.2655 H       1  UNL1        0.0618
     47 H          -8.9010   -1.3098   -2.7989 H       1  UNL1        0.0618
     48 H          -6.7358   -0.6928   -1.7574 H       1  UNL1        0.0618
     49 H          -4.9681    0.1391   -3.1200 H       1  UNL1        0.0622
     50 H          -1.9687   -1.3500   -4.2530 H       1  UNL1        0.0830
     51 H          -3.5646   -1.2096   -3.5870 H       1  UNL1        0.0830
     52 H          -2.1290    0.7726   -2.7917 H       1  UNL1        0.0517
     53 H          -3.3571    1.3901   -3.8645 H       1  UNL1        0.0517
     54 H           0.7103    5.2532   -5.3544 H       1  UNL1        0.1439
     55 H           2.3410    5.2272   -4.7155 H       1  UNL1        0.1439
     56 H           4.0857   -0.6786   -2.8323 H       1  UNL1        0.0489
     57 H           2.6816   -0.9520   -3.8684 H       1  UNL1        0.0489
     58 H           2.9411   -2.6611   -1.9950 H       1  UNL1        0.0609
     59 H           0.4817   -0.8988   -2.1137 H       1  UNL1        0.0255
     60 H           0.4996   -2.3739   -1.1693 H       1  UNL1        0.0255
     61 H           0.7125   -2.3615   -2.9611 H       1  UNL1        0.0255
@<TRIPOS>UNITY_ATOM_ATTR
11 1
charge 1
25 1
charge 1
27 1
charge -1
@<TRIPOS>BOND
     1     1     2    1
     2     2     3    1
     3     3     4    1
     4     4     5    1
     5     5     6   ar
     6     6     7   ar
     7     7     8    1
     8     8     9    1
     9     9    10    1
    10    10    11    1
    11    11    12    1
    12    12    13    1
    13    13    14   ar
    14    14    15   ar
    15    15    16   ar
    16    16    17   ar
    17    17    18   ar
    18    13    18   ar
    19    11    19    1
    20    19    20    1
    21     8    20    1
    22     7    21   ar
    23    21    22   ar
    24    22    23    1
    25    22    24   ar
    26     5    24   ar
    27    24    25    1
    28    25    26    2
    29    25    27    1
    30     4    28    1
    31    28    29    1
    32    29    31    1
    33     2    31    1
    34    29    30    1
    35     1    32    1
    36     1    33    1
    37     1    34    1
    38     2    35    1
    39     3    36    1
    40     3    37    1
    41     9    38    1
    42     9    39    1
    43    10    40    1
    44    10    41    1
    45    11    42    1
    46    12    43    1
    47    12    44    1
    48    14    45    1
    49    15    46    1
    50    16    47    1
    51    17    48    1
    52    18    49    1
    53    19    50    1
    54    19    51    1
    55    20    52    1
    56    20    53    1
    57    23    54    1
    58    23    55    1
    59    28    56    1
    60    28    57    1
    61    29    58    1
    62    30    59    1
    63    30    60    1
    64    30    61    1
