REMARK  7 active torsions:
REMARK  status: ('A' for Active; 'I' for Inactive)
REMARK    1  A    between atoms: C_3  and  C_4 
REMARK       I    between atoms: C_4  and  N_6 
REMARK    2  A    between atoms: N_6  and  N_7 
REMARK    3  A    between atoms: N_13  and  C_14 
REMARK    4  A    between atoms: C_14  and  C_15 
REMARK    5  A    between atoms: N_23  and  C_24 
REMARK    6  A    between atoms: C_24  and  C_25 
REMARK       I    between atoms: C_25  and  N_27 
REMARK    7  A    between atoms: N_27  and  C_28 
ROOT
ATOM      1  C   UNL d   1       1.159  -0.003  -0.051  0.00  0.00     0.051 C 
ATOM      2  C   UNL d   1       2.681  -0.079  -0.061  0.00  0.00    -0.021 A 
ATOM      3  C   UNL d   1       3.443  -1.286  -0.056  0.00  0.00     0.083 A 
ATOM      4  S   UNL d   1       5.114  -0.934  -0.091  0.00  0.00    -0.065 SA
ATOM      5  C   UNL d   1       4.898   0.712  -0.133  0.00  0.00     0.098 A 
ATOM      6  C   UNL d   1       3.593   1.133  -0.093  0.00  0.00     0.074 A 
ATOM      7  C   UNL d   1       3.393   2.620  -0.107  0.00  0.00     0.265 C 
ATOM      8  O   UNL d   1       2.276   3.129  -0.054  0.00  0.00    -0.267 OA
ATOM      9  N   UNL d   1       4.596   3.387  -0.135  0.00  0.00    -0.261 N 
ATOM     10  C   UNL d   1       5.794   2.809   0.256  0.00  0.00     0.333 C 
ATOM     11  O   UNL d   1       6.606   3.396   0.981  0.00  0.00    -0.246 OA
ATOM     12  N   UNL d   1       6.038   1.502  -0.124  0.00  0.00    -0.283 N 
ENDROOT
BRANCH  12  13
ATOM     13  C   UNL d   1       7.430   0.951  -0.034  0.00  0.00     0.237 C 
BRANCH  13  14
ATOM     14  C   UNL d   1       8.619   1.930  -0.162  0.00  0.00     0.240 C 
ATOM     15  O   UNL d   1       8.472   3.061  -0.618  0.00  0.00    -0.271 OA
ATOM     16  N   UNL d   1       9.905   1.461   0.098  0.00  0.00    -0.326 N 
ATOM     17  H   UNL d   1      10.126   0.529  -0.232  0.00  0.00     0.169 HD
BRANCH  16  18
ATOM     18  C   UNL d   1      10.944   2.440   0.046  0.00  0.00     0.034 A 
ATOM     19  C   UNL d   1      12.010   2.321  -0.846  0.00  0.00     0.029 A 
ATOM     20  C   UNL d   1      12.970   3.342  -0.920  0.00  0.00     0.002 A 
ATOM     21  C   UNL d   1      12.879   4.470  -0.100  0.00  0.00     0.000 A 
ATOM     22  C   UNL d   1      11.808   4.602   0.776  0.00  0.00     0.002 A 
ATOM     23  C   UNL d   1      10.843   3.596   0.839  0.00  0.00     0.029 A 
ENDBRANCH  16  18
ENDBRANCH  13  14
ENDBRANCH  12  13
BRANCH   9  24
ATOM     24  C   UNL d   1       4.550   4.887  -0.096  0.00  0.00     0.175 C 
BRANCH  24  25
ATOM     25  C   UNL d   1       5.898   5.651  -0.154  0.00  0.00    -0.040 A 
ATOM     26  C   UNL d   1       6.341   6.427   0.941  0.00  0.00     0.009 A 
ATOM     27  C   UNL d   1       7.654   6.930   0.998  0.00  0.00     0.001 A 
ATOM     28  C   UNL d   1       8.553   6.663  -0.029  0.00  0.00     0.000 A 
ATOM     29  C   UNL d   1       8.131   5.919  -1.127  0.00  0.00     0.001 A 
ATOM     30  C   UNL d   1       6.810   5.442  -1.204  0.00  0.00     0.009 A 
ENDBRANCH  24  25
ENDBRANCH   9  24
BRANCH   3  31
ATOM     31  C   UNL d   1       3.142  -2.751  -0.040  0.00  0.00     0.273 C 
ATOM     32  O   UNL d   1       2.009  -3.232  -0.052  0.00  0.00    -0.266 OA
ATOM     33  N   UNL d   1       4.281  -3.614  -0.001  0.00  0.00    -0.289 N 
ATOM     34  H   UNL d   1       5.214  -3.207  -0.074  0.00  0.00     0.183 HD
BRANCH  33  35
ATOM     35  N   UNL d   1       4.184  -5.027  -0.098  0.00  0.00    -0.247 NA
ATOM     36  H   UNL d   1       3.188  -5.273  -0.076  0.00  0.00     0.143 HD
ATOM     37  H   UNL d   1       4.586  -5.453   0.743  0.00  0.00     0.143 HD
ENDBRANCH  33  35
ENDBRANCH   3  31
TORSDOF 7
