REMARK  12 active torsions:
REMARK  status: ('A' for Active; 'I' for Inactive)
REMARK    1  A    between atoms: C_2  and  C_3 
REMARK    2  A    between atoms: C_4  and  C_3 
REMARK    3  A    between atoms: C_4  and  N_13 
REMARK    4  A    between atoms: C_4  and  C_5 
REMARK       I    between atoms: C_5  and  N_7 
REMARK    5  A    between atoms: N_7  and  C_8 
REMARK    6  A    between atoms: C_8  and  C_9 
REMARK    7  A    between atoms: C_9  and  C_10 
REMARK       I    between atoms: N_13  and  C_14 
REMARK    8  A    between atoms: N_13  and  C_25 
REMARK    9  A    between atoms: C_14  and  C_16 
REMARK   10  A    between atoms: C_19  and  C_20 
REMARK       I    between atoms: C_20  and  N_21 
REMARK   11  A    between atoms: C_23  and  N_24 
REMARK   12  A    between atoms: C_29  and  C_30 
ROOT
ATOM      1  N   UNL d   1       4.952  -1.046   2.619  0.00  0.00    -0.299 N 
ATOM      2  C   UNL d   1       4.091  -1.448   3.712  0.00  0.00     0.270 C 
ATOM      3  O   UNL d   1       4.568  -1.785   4.800  0.00  0.00    -0.266 OA
ENDROOT
BRANCH   1   4
ATOM      4  C   UNL d   1       4.496  -0.494   1.262  0.00  0.00     0.185 C 
BRANCH   4   5
ATOM      5  C   UNL d   1       2.984  -0.312   0.906  0.00  0.00     0.241 C 
ATOM      6  O   UNL d   1       2.270   0.461   1.548  0.00  0.00    -0.271 OA
ATOM      7  N   UNL d   1       2.499  -1.034  -0.198  0.00  0.00    -0.359 N 
ATOM      8  H   UNL d   1       3.060  -1.812  -0.508  0.00  0.00     0.162 HD
BRANCH   7   9
ATOM      9  C   UNL d   1       1.049  -1.174  -0.294  0.00  0.00     0.123 C 
BRANCH   9  10
ATOM     10  C   UNL d   1       0.461  -2.356  -1.119  0.00  0.00     0.023 C 
BRANCH  10  11
ATOM     11  C   UNL d   1      -1.093  -2.484  -1.080  0.00  0.00    -0.021 C 
ATOM     12  C   UNL d   1      -1.754  -1.132  -1.282  0.00  0.00     0.009 C 
ATOM     13  C   UNL d   1      -1.674  -3.609  -1.919  0.00  0.00     0.009 C 
ENDBRANCH  10  11
ENDBRANCH   9  10
ENDBRANCH   7   9
ENDBRANCH   4   5
BRANCH   4  14
ATOM     14  C   UNL d   1       4.920   0.949   0.958  0.00  0.00     0.035 C 
BRANCH  14  15
ATOM     15  C   UNL d   1       5.072   1.182  -0.537  0.00  0.00    -0.002 C 
ATOM     16  C   UNL d   1       5.585   2.591  -0.742  0.00  0.00     0.005 C 
ENDBRANCH  14  15
ENDBRANCH   4  14
ENDBRANCH   1   4
BRANCH   1  17
ATOM     17  C   UNL d   1       6.416  -1.208   2.836  0.00  0.00     0.039 A 
ATOM     18  C   UNL d   1       6.971  -2.310   3.495  0.00  0.00     0.030 A 
ATOM     19  C   UNL d   1       8.337  -2.337   3.872  0.00  0.00     0.003 A 
ATOM     20  C   UNL d   1       9.213  -1.305   3.530  0.00  0.00     0.016 A 
ATOM     21  C   UNL d   1       8.715  -0.217   2.842  0.00  0.00     0.050 A 
ATOM     22  C   UNL d   1       7.349  -0.214   2.517  0.00  0.00     0.046 A 
BRANCH  21  23
ATOM     23  C   UNL d   1       9.544   1.008   2.518  0.00  0.00     0.417 C 
ATOM     24  F   UNL d   1      10.057   1.601   3.629  0.00  0.00    -0.166 F 
ATOM     25  F   UNL d   1      10.597   0.731   1.705  0.00  0.00    -0.166 F 
ATOM     26  F   UNL d   1       8.841   1.990   1.877  0.00  0.00    -0.166 F 
ENDBRANCH  21  23
ENDBRANCH   1  17
BRANCH   2  27
ATOM     27  C   UNL d   1       2.651  -1.494   3.559  0.00  0.00     0.120 C 
ATOM     28  S   UNL d   1       1.616  -0.620   4.604  0.00  0.00     0.020 SA
ATOM     29  N   UNL d   1       0.184  -0.963   3.823  0.00  0.00    -0.203 NA
ATOM     30  C   UNL d   1       0.432  -1.901   2.900  0.00  0.00     0.160 C 
ATOM     31  C   UNL d   1       1.868  -2.241   2.714  0.00  0.00     0.085 C 
BRANCH  30  32
ATOM     32  C   UNL d   1      -0.658  -2.448   2.081  0.00  0.00     0.271 C 
ATOM     33  N   UNL d   1      -1.815  -1.718   1.850  0.00  0.00    -0.365 N 
ATOM     34  H   UNL d   1      -2.148  -0.975   2.448  0.00  0.00     0.159 HD
ATOM     35  H   UNL d   1      -2.466  -1.998   1.122  0.00  0.00     0.159 HD
ATOM     36  O   UNL d   1      -0.466  -3.528   1.490  0.00  0.00    -0.266 OA
ENDBRANCH  30  32
BRANCH  31  37
ATOM     37  N   UNL d   1       2.444  -3.037   1.752  0.00  0.00    -0.396 N 
ATOM     38  H   UNL d   1       1.904  -3.251   0.916  0.00  0.00     0.156 HD
ATOM     39  H   UNL d   1       3.420  -2.885   1.500  0.00  0.00     0.156 HD
ENDBRANCH  31  37
ENDBRANCH   2  27
TORSDOF 12
