REMARK  10 active torsions:
REMARK  status: ('A' for Active; 'I' for Inactive)
REMARK       I    between atoms: C_2  and  N_3 
REMARK    1  A    between atoms: C_13  and  C_2 
REMARK    2  A    between atoms: N_3  and  C_4 
REMARK    3  A    between atoms: C_4  and  C_5 
REMARK    4  A    between atoms: C_5  and  O_6 
REMARK    5  A    between atoms: O_6  and  C_7 
REMARK    6  A    between atoms: C_15  and  C_16 
REMARK       I    between atoms: C_16  and  N_18 
REMARK    7  A    between atoms: N_18  and  C_19 
REMARK    8  A    between atoms: N_29  and  C_30 
REMARK    9  A    between atoms: C_30  and  C_31 
REMARK   10  A    between atoms: C_34  and  O_35 
ROOT
ATOM      1  C   UNL d   1       2.954   0.800  -1.047  0.00  0.00     0.104 C 
ATOM      2  C   UNL d   1       2.665   0.469  -2.516  0.00  0.00     0.031 C 
ATOM      3  C   UNL d   1       2.573  -1.019  -2.640  0.00  0.00     0.105 C 
ATOM      4  C   UNL d   1       3.978  -1.543  -2.387  0.00  0.00     0.249 C 
ATOM      5  N   UNL d   1       4.554  -1.123  -1.011  0.00  0.00    -0.066 N 
ATOM      6  C   UNL d   1       4.401   0.425  -0.737  0.00  0.00     0.249 C 
ATOM      7  H   UNL d   1       4.028  -1.631  -0.288  0.00  0.00     0.280 HD
ENDROOT
BRANCH   1   8
ATOM      8  C   UNL d   1       2.418   2.188  -0.855  0.00  0.00     0.223 C 
ATOM      9  O   UNL d   1       3.103   3.176  -0.508  0.00  0.00    -0.273 OA
ATOM     10  N   UNL d   1       1.076   2.177  -1.142  0.00  0.00    -0.359 N 
ATOM     11  H   UNL d   1       0.650   1.283  -1.352  0.00  0.00     0.162 HD
BRANCH  10  12
ATOM     12  C   UNL d   1       0.152   3.281  -1.187  0.00  0.00     0.149 C 
BRANCH  12  13
ATOM     13  C   UNL d   1      -1.207   2.773  -1.690  0.00  0.00     0.195 C 
BRANCH  13  14
ATOM     14  O   UNL d   1      -2.097   3.868  -1.728  0.00  0.00    -0.350 OA
BRANCH  14  15
ATOM     15  C   UNL d   1      -3.409   3.591  -1.978  0.00  0.00     0.068 A 
ATOM     16  C   UNL d   1      -4.101   4.633  -2.595  0.00  0.00     0.037 A 
ATOM     17  C   UNL d   1      -5.487   4.584  -2.715  0.00  0.00     0.003 A 
ATOM     18  C   UNL d   1      -6.179   3.450  -2.299  0.00  0.00     0.000 A 
ATOM     19  C   UNL d   1      -5.487   2.383  -1.728  0.00  0.00     0.003 A 
ATOM     20  C   UNL d   1      -4.100   2.454  -1.560  0.00  0.00     0.037 A 
ENDBRANCH  14  15
ENDBRANCH  13  14
ENDBRANCH  12  13
ENDBRANCH  10  12
ENDBRANCH   1   8
BRANCH   3  21
ATOM     21  C   UNL d   1       2.069  -1.393  -4.025  0.00  0.00     0.228 C 
ATOM     22  O   UNL d   1       2.795  -2.087  -4.762  0.00  0.00    -0.273 OA
ATOM     23  N   UNL d   1       0.823  -0.894  -4.371  0.00  0.00    -0.327 N 
ATOM     24  H   UNL d   1       0.308  -0.261  -3.772  0.00  0.00     0.169 HD
BRANCH  23  25
ATOM     25  C   UNL d   1       0.114  -1.256  -5.538  0.00  0.00     0.035 C 
ATOM     26  C   UNL d   1      -0.566  -0.298  -6.309  0.00  0.00     0.030 C 
ATOM     27  C   UNL d   1      -1.098  -0.695  -7.539  0.00  0.00     0.010 C 
ATOM     28  C   UNL d   1      -0.986  -2.043  -7.844  0.00  0.00    -0.052 C 
ATOM     29  C   UNL d   1      -0.856  -3.046  -6.928  0.00  0.00    -0.050 C 
ATOM     30  C   UNL d   1      -0.463  -2.871  -8.948  0.00  0.00     0.039 C 
ATOM     31  C   UNL d   1      -0.012  -2.620  -5.860  0.00  0.00     0.037 C 
ATOM     32  C   UNL d   1      -0.845  -4.540  -7.825  0.00  0.00     0.039 C 
ATOM     33  C   UNL d   1       0.518  -4.092  -7.972  0.00  0.00     0.009 C 
ENDBRANCH  23  25
ENDBRANCH   3  21
BRANCH   5  34
ATOM     34  C   UNL d   1       6.012  -1.607  -0.800  0.00  0.00     0.273 C 
BRANCH  34  35
ATOM     35  C   UNL d   1       6.243  -3.106  -0.912  0.00  0.00    -0.032 A 
ATOM     36  C   UNL d   1       6.843  -3.868   0.107  0.00  0.00     0.011 A 
ATOM     37  C   UNL d   1       7.157  -5.227  -0.106  0.00  0.00     0.037 A 
ATOM     38  C   UNL d   1       6.752  -5.861  -1.275  0.00  0.00     0.065 A 
ATOM     39  C   UNL d   1       6.147  -5.137  -2.279  0.00  0.00     0.037 A 
ATOM     40  C   UNL d   1       5.975  -3.769  -2.120  0.00  0.00     0.011 A 
BRANCH  38  41
ATOM     41  O   UNL d   1       6.941  -7.186  -1.508  0.00  0.00    -0.361 OA
ATOM     42  H   UNL d   1       7.318  -7.612  -0.723  0.00  0.00     0.217 HD
ENDBRANCH  38  41
ENDBRANCH  34  35
ENDBRANCH   5  34
TORSDOF 10
