@<TRIPOS>MOLECULE
*****
 59 62 0 0 0
SMALL
GASTEIGER

@<TRIPOS>ATOM
      1 C           6.5068    7.7213   -0.1195 C.3     1  UNL1       -0.0181
      2 S           5.0787    6.5932   -0.0273 S.3     1  UNL1       -0.1641
      3 C           5.8049    5.1504   -0.8458 C.3     1  UNL1       -0.0044
      4 C           4.8547    3.9426   -0.9519 C.3     1  UNL1       -0.0169
      5 C           5.4636    2.6588   -1.6012 C.3     1  UNL1        0.1008
      6 N           4.9890    1.4430   -0.8819 N.am    1  UNL1       -0.2987
      7 C           5.6477    0.2222   -0.9791 C.2     1  UNL1        0.2630
      8 O           6.5909    0.0031   -1.7473 O.2     1  UNL1       -0.2685
      9 C           5.2412   -0.8740   -0.0541 C.ar    1  UNL1        0.1260
     10 C           6.2307   -1.4818    0.7142 C.ar    1  UNL1       -0.0306
     11 C           5.9225   -2.6675    1.3704 C.ar    1  UNL1       -0.0504
     12 C           4.6442   -3.2151    1.2277 C.ar    1  UNL1        0.0004
     13 C           4.3059   -4.4414    1.8284 C.ar    1  UNL1       -0.0526
     14 C           3.0292   -4.9723    1.6664 C.ar    1  UNL1       -0.0611
     15 C           2.0933   -4.2841    0.9028 C.ar    1  UNL1       -0.0597
     16 C           2.4357   -3.0667    0.3028 C.ar    1  UNL1       -0.0357
     17 C           3.6958   -2.5050    0.4486 C.ar    1  UNL1        0.0718
     18 N           3.9717   -1.3360   -0.1662 N.ar    1  UNL1       -0.2421
     19 C           7.0146    2.7361   -1.5356 C.2     1  UNL1        0.2376
     20 O           7.6543    2.1604   -0.6501 O.2     1  UNL1       -0.2734
     21 N           7.6362    3.6167   -2.4217 N.am    1  UNL1       -0.2840
     22 C           9.0346    3.7016   -2.4082 C.ar    1  UNL1        0.0342
     23 C           9.7157    4.9072   -2.2412 C.ar    1  UNL1       -0.0404
     24 C          11.1064    4.9102   -2.3507 C.ar    1  UNL1       -0.0593
     25 C          11.7872    3.7109   -2.6058 C.ar    1  UNL1       -0.0495
     26 C          11.0884    2.4976   -2.7597 C.ar    1  UNL1        0.0385
     27 C          11.8189    1.2556   -3.1239 C.2     1  UNL1        0.2443
     28 O          13.0414    1.3350   -3.2406 O.2     1  UNL1       -0.2702
     29 N          11.1149    0.0661   -3.3622 N.am    1  UNL1       -0.3085
     30 C          11.8454   -1.1048   -3.7581 C.3     1  UNL1        0.0235
     31 C          11.6214   -2.4441   -3.1114 C.3     1  UNL1       -0.0328
     32 C          11.3384   -2.2567   -4.5744 C.3     1  UNL1       -0.0328
     33 C           9.7139    2.5081   -2.6381 C.ar    1  UNL1       -0.0284
     34 H           6.2147    8.6716    0.3338 H       1  UNL1        0.0340
     35 H           6.8041    7.9160   -1.1555 H       1  UNL1        0.0340
     36 H           7.3646    7.3267    0.4341 H       1  UNL1        0.0340
     37 H           6.7065    4.8770   -0.2868 H       1  UNL1        0.0377
     38 H           6.0701    5.4998   -1.8446 H       1  UNL1        0.0377
     39 H           3.9636    4.2323   -1.5247 H       1  UNL1        0.0296
     40 H           4.5022    3.6949    0.0567 H       1  UNL1        0.0296
     41 H           5.1345    2.5663   -2.6457 H       1  UNL1        0.0595
     42 H           4.0540    1.4199   -0.4857 H       1  UNL1        0.1498
     43 H           7.2313   -1.0625    0.7644 H       1  UNL1        0.0641
     44 H           6.6886   -3.1757    1.9524 H       1  UNL1        0.0625
     45 H           5.0345   -4.9902    2.4222 H       1  UNL1        0.0624
     46 H           2.7663   -5.9183    2.1336 H       1  UNL1        0.0618
     47 H           1.0937   -4.6896    0.7697 H       1  UNL1        0.0618
     48 H           1.6981   -2.5464   -0.3029 H       1  UNL1        0.0639
     49 H           7.1338    4.3705   -2.8658 H       1  UNL1        0.1549
     50 H           9.2009    5.8231   -1.9620 H       1  UNL1        0.0636
     51 H          11.6659    5.8391   -2.2514 H       1  UNL1        0.0618
     52 H          12.8730    3.7278   -2.6927 H       1  UNL1        0.0625
     53 H          10.1110   -0.0018   -3.2371 H       1  UNL1        0.1493
     54 H          12.8738   -0.8516   -4.0079 H       1  UNL1        0.0498
     55 H          10.7571   -2.6452   -2.4899 H       1  UNL1        0.0284
     56 H          12.5165   -2.9703   -2.7988 H       1  UNL1        0.0284
     57 H          10.3072   -2.3434   -4.8876 H       1  UNL1        0.0284
     58 H          12.0453   -2.6757   -5.2862 H       1  UNL1        0.0284
     59 H           9.1245    1.6075   -2.7532 H       1  UNL1        0.0644
@<TRIPOS>BOND
     1     1     2    1
     2     2     3    1
     3     3     4    1
     4     6     7   am
     5     7     8    2
     6     7     9    1
     7     9    10   ar
     8    10    11   ar
     9    11    12   ar
    10    12    13   ar
    11    13    14   ar
    12    14    15   ar
    13    15    16   ar
    14    16    17   ar
    15    12    17   ar
    16    17    18   ar
    17     9    18   ar
    18     5    19    1
    19    19    20    2
    20    19    21   am
    21    21    22    1
    22    22    23   ar
    23    23    24   ar
    24    24    25   ar
    25    25    26   ar
    26    26    27    1
    27    27    28    2
    28    27    29   am
    29    29    30    1
    30    30    31    1
    31    31    32    1
    32    30    32    1
    33    26    33   ar
    34    22    33   ar
    35     5     6    1
    36     5     4    1
    37     1    34    1
    38     1    35    1
    39     1    36    1
    40     3    37    1
    41     3    38    1
    42     4    39    1
    43     4    40    1
    44     5    41    1
    45     6    42    1
    46    10    43    1
    47    11    44    1
    48    13    45    1
    49    14    46    1
    50    15    47    1
    51    16    48    1
    52    21    49    1
    53    23    50    1
    54    24    51    1
    55    25    52    1
    56    29    53    1
    57    30    54    1
    58    31    55    1
    59    31    56    1
    60    32    57    1
    61    32    58    1
    62    33    59    1
