@<TRIPOS>MOLECULE
*****
 43 43 0 0 0
SMALL
GASTEIGER

@<TRIPOS>ATOM
      1 C           0.9738   -0.0116    0.0864 C.3     1  UNL1       -0.0559
      2 C           2.5245    0.0142    0.0731 C.3     1  UNL1       -0.0092
      3 C           3.0635    0.6451    1.3925 C.3     1  UNL1       -0.0559
      4 C           3.0168   -1.4404    0.0641 C.3     1  UNL1       -0.0559
      5 C           2.9939    0.7906   -1.1766 C.ar    1  UNL1        0.0004
      6 C           3.6150    0.1783   -2.2840 C.ar    1  UNL1       -0.0424
      7 C           3.9449    0.9076   -3.4331 C.ar    1  UNL1        0.0387
      8 C           4.5569    0.1731   -4.5950 C.2     1  UNL1        0.2574
      9 O           4.7678   -1.0438   -4.5266 O.2     1  UNL1       -0.2689
     10 N           4.8818    0.9067   -5.7331 N.am    1  UNL1       -0.2496
     11 N           5.3908    0.2485   -6.8766 N.3     1  UNL1       -0.2541
     12 C           3.6811    2.2856   -3.4392 C.ar    1  UNL1       -0.0424
     13 C           3.0786    2.9587   -2.3405 C.ar    1  UNL1        0.0004
     14 C           2.8380    4.4731   -2.4529 C.3     1  UNL1       -0.0092
     15 C           4.1900    5.1810   -2.6663 C.3     1  UNL1       -0.0559
     16 C           1.8872    4.7571   -3.6281 C.3     1  UNL1       -0.0559
     17 C           2.2064    5.1403   -1.2209 C.3     1  UNL1       -0.0559
     18 C           2.7161    2.1692   -1.2448 C.ar    1  UNL1        0.1242
     19 O           1.9450    2.5971   -0.2074 O.3     1  UNL1       -0.5062
     20 H           0.5940   -0.5596    0.9521 H       1  UNL1        0.0238
     21 H           0.5840   -0.4756   -0.8268 H       1  UNL1        0.0238
     22 H           0.5113    0.9792    0.1383 H       1  UNL1        0.0238
     23 H           2.7391    0.0653    2.2627 H       1  UNL1        0.0238
     24 H           2.7205    1.6633    1.5972 H       1  UNL1        0.0238
     25 H           4.1588    0.6893    1.3877 H       1  UNL1        0.0238
     26 H           2.6707   -1.9756    0.9536 H       1  UNL1        0.0238
     27 H           4.1124   -1.4795    0.0517 H       1  UNL1        0.0238
     28 H           2.6406   -1.9841   -0.8086 H       1  UNL1        0.0238
     29 H           3.8249   -0.8893   -2.2851 H       1  UNL1        0.0629
     30 H           4.6358    1.8848   -5.8308 H       1  UNL1        0.1690
     31 H           5.4983   -0.7456   -6.6267 H       1  UNL1        0.1405
     32 H           6.3442    0.5786   -7.0403 H       1  UNL1        0.1405
     33 H           3.9228    2.8700   -4.3191 H       1  UNL1        0.0629
     34 H           4.6807    4.8789   -3.5962 H       1  UNL1        0.0238
     35 H           4.8794    4.9584   -1.8416 H       1  UNL1        0.0238
     36 H           4.0560    6.2671   -2.7057 H       1  UNL1        0.0238
     37 H           2.3018    4.4409   -4.5897 H       1  UNL1        0.0238
     38 H           1.6736    5.8288   -3.7003 H       1  UNL1        0.0238
     39 H           0.9330    4.2333   -3.4898 H       1  UNL1        0.0238
     40 H           2.8568    5.0152   -0.3450 H       1  UNL1        0.0238
     41 H           1.2041    4.7312   -1.0363 H       1  UNL1        0.0238
     42 H           2.0695    6.2169   -1.3337 H       1  UNL1        0.0238
     43 H           2.0530    3.4970    0.0942 H       1  UNL1        0.2922
@<TRIPOS>BOND
     1     1     2    1
     2     2     3    1
     3     2     4    1
     4     2     5    1
     5     5     6   ar
     6     6     7   ar
     7     7     8    1
     8     8     9    2
     9     8    10   am
    10    10    11    1
    11     7    12   ar
    12    12    13   ar
    13    13    14    1
    14    14    15    1
    15    14    16    1
    16    14    17    1
    17    13    18   ar
    18     5    18   ar
    19    18    19    1
    20     1    20    1
    21     1    21    1
    22     1    22    1
    23     3    23    1
    24     3    24    1
    25     3    25    1
    26     4    26    1
    27     4    27    1
    28     4    28    1
    29     6    29    1
    30    10    30    1
    31    11    31    1
    32    11    32    1
    33    12    33    1
    34    15    34    1
    35    15    35    1
    36    15    36    1
    37    16    37    1
    38    16    38    1
    39    16    39    1
    40    17    40    1
    41    17    41    1
    42    17    42    1
    43    19    43    1
