REMARK  8 active torsions:
REMARK  status: ('A' for Active; 'I' for Inactive)
REMARK    1  A    between atoms: O_2  and  C_3 
REMARK    2  A    between atoms: C_6  and  C_7 
REMARK    3  A    between atoms: C_8  and  C_9 
REMARK       I    between atoms: C_9  and  N_11 
REMARK    4  A    between atoms: N_11  and  N_12 
REMARK       I    between atoms: N_12  and  C_13 
REMARK       I    between atoms: C_13  and  N_15 
REMARK    5  A    between atoms: N_15  and  C_16 
REMARK    6  A    between atoms: C_16  and  C_17 
REMARK    7  A    between atoms: C_17  and  C_18 
REMARK    8  A    between atoms: C_22  and  O_23 
ROOT
ATOM      1  C   UNL d   1       5.798  -5.827  -4.625  0.00  0.00     0.259 C 
ATOM      2  O   UNL d   1       6.732  -6.374  -4.028  0.00  0.00    -0.267 OA
ATOM      3  N   UNL d   1       5.373  -6.231  -5.885  0.00  0.00    -0.263 N 
ATOM      4  H   UNL d   1       4.604  -5.803  -6.399  0.00  0.00     0.190 HD
ENDROOT
BRANCH   1   5
ATOM      5  C   UNL d   1       5.041  -4.673  -4.017  0.00  0.00     0.076 C 
ATOM      6  C   UNL d   1       5.327  -4.148  -2.800  0.00  0.00     0.017 C 
BRANCH   6   7
ATOM      7  C   UNL d   1       4.582  -3.051  -2.107  0.00  0.00    -0.033 A 
ATOM      8  C   UNL d   1       4.906  -2.636  -0.809  0.00  0.00     0.014 A 
ATOM      9  C   UNL d   1       4.101  -1.696  -0.116  0.00  0.00     0.040 A 
ATOM     10  C   UNL d   1       2.984  -1.075  -0.713  0.00  0.00     0.101 A 
ATOM     11  C   UNL d   1       2.709  -1.421  -2.047  0.00  0.00     0.102 A 
ATOM     12  C   UNL d   1       3.497  -2.402  -2.700  0.00  0.00     0.051 A 
BRANCH  10  13
ATOM     13  O   UNL d   1       2.475  -0.034   0.034  0.00  0.00    -0.353 OA
ATOM     14  C   UNL d   1       1.095  -0.003   0.405  0.00  0.00     0.210 C 
ENDBRANCH  10  13
BRANCH  11  15
ATOM     15  O   UNL d   1       1.795  -0.931  -2.949  0.00  0.00    -0.353 OA
ATOM     16  C   UNL d   1       0.816  -0.077  -2.431  0.00  0.00     0.210 C 
ENDBRANCH  11  15
ENDBRANCH   6   7
ENDBRANCH   1   5
BRANCH   3  17
ATOM     17  N   UNL d   1       6.030  -7.322  -6.557  0.00  0.00    -0.249 N 
ATOM     18  C   UNL d   1       5.605  -7.719  -7.815  0.00  0.00     0.334 C 
ATOM     19  O   UNL d   1       4.672  -7.160  -8.399  0.00  0.00    -0.246 OA
ATOM     20  N   UNL d   1       6.297  -8.789  -8.358  0.00  0.00    -0.342 N 
ATOM     21  H   UNL d   1       7.086  -9.183  -7.867  0.00  0.00     0.164 HD
ATOM     22  H   UNL d   1       6.801  -7.754  -6.056  0.00  0.00     0.192 HD
BRANCH  20  23
ATOM     23  C   UNL d   1       5.974  -9.294  -9.695  0.00  0.00     0.125 C 
BRANCH  23  24
ATOM     24  C   UNL d   1       6.859 -10.457 -10.184  0.00  0.00     0.023 C 
BRANCH  24  25
ATOM     25  C   UNL d   1       6.479 -10.963 -11.600  0.00  0.00    -0.021 C 
ATOM     26  C   UNL d   1       6.602  -9.859 -12.652  0.00  0.00     0.009 C 
ATOM     27  C   UNL d   1       7.365 -12.143 -12.016  0.00  0.00     0.009 C 
ENDBRANCH  24  25
ENDBRANCH  23  24
ENDBRANCH  20  23
ENDBRANCH   3  17
TORSDOF 8
