REMARK  7 active torsions:
REMARK  status: ('A' for Active; 'I' for Inactive)
REMARK    1  A    between atoms: C_7  and  O_8 
REMARK    2  A    between atoms: O_8  and  C_9 
REMARK    3  A    between atoms: C_9  and  C_10 
REMARK       I    between atoms: C_10  and  N_12 
REMARK    4  A    between atoms: N_12  and  N_13 
REMARK       I    between atoms: N_13  and  C_14 
REMARK       I    between atoms: C_14  and  N_16 
REMARK    5  A    between atoms: N_16  and  C_17 
REMARK    6  A    between atoms: C_17  and  C_18 
REMARK    7  A    between atoms: C_21  and  N_22 
ROOT
ATOM      1  N   UNL d   1       1.820  -7.760  -0.026  0.00  0.00    -0.249 N 
ATOM      2  C   UNL d   1       2.913  -8.618  -0.028  0.00  0.00     0.335 C 
ATOM      3  O   UNL d   1       4.080  -8.221  -0.023  0.00  0.00    -0.246 OA
ATOM      4  N   UNL d   1       2.585  -9.962  -0.036  0.00  0.00    -0.337 N 
ATOM      5  H   UNL d   1       0.847  -8.060  -0.028  0.00  0.00     0.192 HD
ATOM      6  H   UNL d   1       1.602 -10.175  -0.049  0.00  0.00     0.164 HD
ENDROOT
BRANCH   1   7
ATOM      7  N   UNL d   1       2.012  -6.333  -0.018  0.00  0.00    -0.264 N 
ATOM      8  C   UNL d   1       0.894  -5.493  -0.017  0.00  0.00     0.260 C 
ATOM      9  O   UNL d   1      -0.244  -5.970  -0.021  0.00  0.00    -0.269 OA
ATOM     10  H   UNL d   1       2.978  -6.010  -0.015  0.00  0.00     0.190 HD
BRANCH   8  11
ATOM     11  C   UNL d   1       1.178  -3.958  -0.009  0.00  0.00     0.280 C 
BRANCH  11  12
ATOM     12  O   UNL d   1      -0.032  -3.183  -0.004  0.00  0.00    -0.342 OA
BRANCH  12  13
ATOM     13  C   UNL d   1       0.055  -1.811  -0.002  0.00  0.00     0.070 A 
ATOM     14  C   UNL d   1      -1.162  -1.109  -0.004  0.00  0.00     0.043 A 
ATOM     15  C   UNL d   1      -1.202   0.300  -0.004  0.00  0.00    -0.059 A 
ATOM     16  C   UNL d   1       0.003   1.011  -0.007  0.00  0.00     0.013 A 
ATOM     17  C   UNL d   1      -2.521   1.023  -0.005  0.00  0.00     0.048 C 
ATOM     18  C   UNL d   1       1.226   0.328  -0.001  0.00  0.00    -0.059 A 
ATOM     19  C   UNL d   1       2.528   1.074   0.008  0.00  0.00     0.048 C 
ATOM     20  C   UNL d   1       1.241  -1.080   0.003  0.00  0.00     0.043 A 
ENDBRANCH  12  13
ENDBRANCH  11  12
ENDBRANCH   8  11
ENDBRANCH   1   7
BRANCH   4  21
ATOM     21  C   UNL d   1       3.591 -11.037  -0.040  0.00  0.00     0.164 C 
BRANCH  21  22
ATOM     22  C   UNL d   1       3.060 -12.477  -0.032  0.00  0.00    -0.025 A 
ATOM     23  C   UNL d   1       1.702 -12.787   0.013  0.00  0.00     0.014 A 
ATOM     24  C   UNL d   1       1.260 -14.116   0.031  0.00  0.00     0.049 A 
ATOM     25  C   UNL d   1       2.170 -15.177   0.019  0.00  0.00     0.102 A 
ATOM     26  N   UNL d   1       3.473 -14.847  -0.020  0.00  0.00    -0.352 N 
ATOM     27  C   UNL d   1       3.938 -13.576  -0.057  0.00  0.00     0.098 A 
ATOM     28  H   UNL d   1       4.118 -15.631  -0.086  0.00  0.00     0.166 HD
BRANCH  25  29
ATOM     29  N   UNL d   1       1.811 -16.492  -0.081  0.00  0.00    -0.367 N 
ATOM     30  C   UNL d   1       0.790 -16.943  -1.030  0.00  0.00     0.124 C 
ATOM     31  C   UNL d   1      -0.009 -17.980  -0.257  0.00  0.00     0.021 C 
ATOM     32  C   UNL d   1       1.052 -18.658   0.597  0.00  0.00     0.021 C 
ATOM     33  C   UNL d   1       2.080 -17.550   0.905  0.00  0.00     0.124 C 
ENDBRANCH  25  29
ENDBRANCH  21  22
ENDBRANCH   4  21
TORSDOF 7
