REMARK  10 active torsions:
REMARK  status: ('A' for Active; 'I' for Inactive)
REMARK    1  A    between atoms: C_2  and  O_3 
REMARK    2  A    between atoms: O_3  and  C_4 
REMARK    3  A    between atoms: C_10  and  C_11 
REMARK       I    between atoms: C_11  and  N_13 
REMARK    4  A    between atoms: N_13  and  C_14 
REMARK    5  A    between atoms: C_14  and  N_16 
REMARK    6  A    between atoms: N_16  and  N_17 
REMARK       I    between atoms: N_17  and  C_18 
REMARK    7  A    between atoms: C_18  and  C_20 
REMARK    8  A    between atoms: C_20  and  O_21 
REMARK    9  A    between atoms: O_21  and  C_22 
REMARK   10  A    between atoms: C_25  and  C_26 
ROOT
ATOM      1  N   UNL d   1       0.319  -0.206  -4.404  0.00  0.00    -0.273 N 
ATOM      2  H   UNL d   1      -0.086  -0.193  -3.468  0.00  0.00     0.189 HD
ENDROOT
BRANCH   1   3
ATOM      3  C   UNL d   1       1.675  -0.413  -4.720  0.00  0.00     0.193 C 
ATOM      4  S   UNL d   1       2.151  -0.409  -6.341  0.00  0.00    -0.039 SA
BRANCH   3   5
ATOM      5  N   UNL d   1       2.543  -0.605  -3.619  0.00  0.00    -0.298 N 
ATOM      6  C   UNL d   1       3.942  -0.830  -3.661  0.00  0.00     0.260 C 
ATOM      7  O   UNL d   1       4.589  -0.882  -4.713  0.00  0.00    -0.267 OA
ATOM      8  H   UNL d   1       2.140  -0.609  -2.688  0.00  0.00     0.171 HD
BRANCH   6   9
ATOM      9  C   UNL d   1       4.765  -1.010  -2.410  0.00  0.00     0.067 A 
ATOM     10  C   UNL d   1       6.159  -1.224  -2.580  0.00  0.00     0.039 A 
ATOM     11  C   UNL d   1       7.013  -1.385  -1.487  0.00  0.00     0.012 A 
ATOM     12  C   UNL d   1       6.503  -1.335  -0.199  0.00  0.00     0.022 A 
ATOM     13 BR   UNL d   1       8.863  -1.687  -1.748  0.00  0.00    -0.051 Br
ATOM     14  C   UNL d   1       5.133  -1.129  -0.010  0.00  0.00     0.039 A 
ATOM     15  C   UNL d   1       4.261  -0.959  -1.105  0.00  0.00     0.084 A 
BRANCH  15  16
ATOM     16  O   UNL d   1       2.908  -0.841  -0.944  0.00  0.00    -0.350 OA
BRANCH  16  17
ATOM     17  C   UNL d   1       2.501   0.076   0.074  0.00  0.00     0.171 C 
ATOM     18  C   UNL d   1       0.984   0.088   0.066  0.00  0.00     0.034 C 
ENDBRANCH  16  17
ENDBRANCH  15  16
ENDBRANCH   6   9
ENDBRANCH   3   5
ENDBRANCH   1   3
BRANCH   1  19
ATOM     19  N   UNL d   1      -0.638   0.001  -5.486  0.00  0.00    -0.266 N 
ATOM     20  C   UNL d   1      -1.987   0.218  -5.229  0.00  0.00     0.260 C 
ATOM     21  O   UNL d   1      -2.417   0.226  -4.075  0.00  0.00    -0.269 OA
ATOM     22  H   UNL d   1      -0.240  -0.019  -6.425  0.00  0.00     0.190 HD
BRANCH  20  23
ATOM     23  C   UNL d   1      -2.888   0.433  -6.486  0.00  0.00     0.280 C 
BRANCH  23  24
ATOM     24  O   UNL d   1      -4.225   0.761  -6.085  0.00  0.00    -0.342 OA
BRANCH  24  25
ATOM     25  C   UNL d   1      -5.196   0.835  -7.047  0.00  0.00     0.069 A 
ATOM     26  C   UNL d   1      -6.227   1.754  -6.820  0.00  0.00     0.037 A 
ATOM     27  C   UNL d   1      -7.329   1.835  -7.684  0.00  0.00     0.010 A 
ATOM     28  C   UNL d   1      -7.381   1.054  -8.846  0.00  0.00    -0.055 A 
ATOM     29  C   UNL d   1      -6.362   0.108  -9.036  0.00  0.00     0.010 A 
ATOM     30  C   UNL d   1      -5.284  -0.004  -8.150  0.00  0.00     0.037 A 
BRANCH  28  31
ATOM     31  C   UNL d   1      -8.482   1.284  -9.878  0.00  0.00     0.010 C 
ATOM     32  C   UNL d   1      -8.449   2.739 -10.372  0.00  0.00     0.015 C 
ATOM     33  C   UNL d   1      -8.364   0.361 -11.099  0.00  0.00     0.015 C 
ENDBRANCH  28  31
ENDBRANCH  24  25
ENDBRANCH  23  24
ENDBRANCH  20  23
ENDBRANCH   1  19
TORSDOF 10
