@<TRIPOS>MOLECULE
*****
 51 54 0 0 0
SMALL
GASTEIGER

@<TRIPOS>ATOM
      1 O           1.0230    0.0537    0.0155 O.2     1  UNL1       -0.2687
      2 C           2.2508    0.0392    0.0731 C.2     1  UNL1        0.2599
      3 N           3.0007    0.9590    0.7798 N.am    1  UNL1       -0.2324
      4 N           2.3384    1.9966    1.4725 N.pl3   1  UNL1       -0.2606
      5 C           3.0485    2.8718    2.2789 C.2     1  UNL1        0.0935
      6 C           4.0917    3.5567    1.8077 C.2     1  UNL1       -0.0084
      7 C           4.9279    4.5219    2.5661 C.2     1  UNL1        0.0914
      8 N           5.9392    5.1733    2.0721 N.2     1  UNL1       -0.1288
      9 S           6.3355    4.9424    0.5057 S.O2    1  UNL1        0.0992
     10 O           6.7611    3.5646    0.3456 O.2     1  UNL1       -0.1463
     11 O           5.2699    5.4716   -0.3271 O.2     1  UNL1       -0.1463
     12 C           7.7484    5.9618    0.1967 C.ar    1  UNL1        0.1125
     13 C           7.5909    7.3499    0.1831 C.ar    1  UNL1       -0.0338
     14 C           8.6910    8.1589   -0.0993 C.ar    1  UNL1       -0.0459
     15 C           9.9293    7.5748   -0.3735 C.ar    1  UNL1        0.0180
     16 BR         11.4239    8.6763   -0.7270 Br      1  UNL1       -0.0503
     17 C          10.0770    6.1871   -0.3882 C.ar    1  UNL1       -0.0459
     18 C           8.9796    5.3728   -0.1102 C.ar    1  UNL1       -0.0338
     19 C           4.5207    4.7008    3.9998 C.2     1  UNL1       -0.0095
     20 C           3.4620    4.0301    4.5028 C.2     1  UNL1        0.0104
     21 C           2.9998    4.1848    5.9263 C.3     1  UNL1       -0.0054
     22 C           3.5579    5.4011    6.6030 C.2     1  UNL1       -0.0832
     23 C           4.6072    6.0793    6.1149 C.2     1  UNL1       -0.0832
     24 C           5.3150    5.6753    4.8450 C.3     1  UNL1       -0.0070
     25 C           2.6374    3.0954    3.6884 C.2     1  UNL1        0.2049
     26 O           1.6643    2.5098    4.1672 O.2     1  UNL1       -0.2856
     27 C           3.0679   -1.0072   -0.6215 C.2     1  UNL1        0.0369
     28 C           2.7580   -1.3818   -1.8840 C.2     1  UNL1       -0.0549
     29 C           3.4996   -2.5045   -2.5655 C.3     1  UNL1        0.0279
     30 N           4.8458   -2.5520   -2.0134 N.pl3   1  UNL1       -0.3460
     31 C           5.0477   -2.3806   -0.6675 C.2     1  UNL1       -0.0097
     32 C           4.1663   -1.6831    0.0645 C.2     1  UNL1       -0.0363
     33 H           4.0169    0.9460    0.7847 H       1  UNL1        0.1730
     34 H           1.3976    1.7491    1.8040 H       1  UNL1        0.1701
     35 H           4.3116    3.3974    0.7616 H       1  UNL1        0.0659
     36 H           6.6191    7.7991    0.3774 H       1  UNL1        0.0637
     37 H           8.5741    9.2394   -0.1061 H       1  UNL1        0.0629
     38 H          11.0381    5.7328   -0.6158 H       1  UNL1        0.0629
     39 H           9.0916    4.2907   -0.1431 H       1  UNL1        0.0637
     40 H           3.2934    3.2953    6.4972 H       1  UNL1        0.0357
     41 H           1.9078    4.2630    5.9554 H       1  UNL1        0.0357
     42 H           3.0689    5.7188    7.5203 H       1  UNL1        0.0572
     43 H           4.9736    6.9545    6.6459 H       1  UNL1        0.0572
     44 H           6.2789    5.2246    5.1137 H       1  UNL1        0.0356
     45 H           5.5214    6.5885    4.2759 H       1  UNL1        0.0356
     46 H           1.9623   -0.8977   -2.4408 H       1  UNL1        0.0595
     47 H           3.5366   -2.3813   -3.6512 H       1  UNL1        0.0505
     48 H           2.9793   -3.4490   -2.3545 H       1  UNL1        0.0505
     49 H           5.6048   -2.8958   -2.5915 H       1  UNL1        0.1458
     50 H           5.9325   -2.8505   -0.2494 H       1  UNL1        0.0778
     51 H           4.2617   -1.5915    1.1388 H       1  UNL1        0.0637
@<TRIPOS>BOND
     1     1     2    2
     2     2     3   am
     3     3     4    1
     4     4     5    1
     5     5     6    2
     6     6     7    1
     7     7     8    2
     8     8     9    1
     9     9    10    2
    10     9    11    2
    11     9    12    1
    12    12    13   ar
    13    13    14   ar
    14    14    15   ar
    15    15    16    1
    16    15    17   ar
    17    17    18   ar
    18    12    18   ar
    19     7    19    1
    20    19    20    2
    21    20    21    1
    22    21    22    1
    23    22    23    2
    24    23    24    1
    25    19    24    1
    26    20    25    1
    27     5    25    1
    28    25    26    2
    29     2    27    1
    30    27    28    2
    31    28    29    1
    32    29    30    1
    33    30    31    1
    34    31    32    2
    35    27    32    1
    36     3    33    1
    37     4    34    1
    38     6    35    1
    39    13    36    1
    40    14    37    1
    41    17    38    1
    42    18    39    1
    43    21    40    1
    44    21    41    1
    45    22    42    1
    46    23    43    1
    47    24    44    1
    48    24    45    1
    49    28    46    1
    50    29    47    1
    51    29    48    1
    52    30    49    1
    53    31    50    1
    54    32    51    1
