@<TRIPOS>MOLECULE
*****
 66 68 0 0 0
SMALL
GASTEIGER

@<TRIPOS>ATOM
      1 C           1.0077    0.1389    0.4530 C.3     1  UNL1       -0.0494
      2 C           2.4745    0.0096    0.1089 C.3     1  UNL1        0.0093
      3 N           2.8353   -0.3206   -1.2887 N.pl3   1  UNL1       -0.3304
      4 C           1.9962   -0.9643   -2.3187 C.3     1  UNL1        0.0093
      5 C           0.4965   -0.9205   -2.1277 C.3     1  UNL1       -0.0494
      6 C           4.2157   -0.5368   -1.5166 C.ar    1  UNL1        0.0297
      7 C           4.8463   -0.2397   -2.7407 C.ar    1  UNL1       -0.0401
      8 C           6.2191   -0.5146   -2.9709 C.ar    1  UNL1       -0.0528
      9 C           6.9964   -1.1140   -1.9767 C.ar    1  UNL1       -0.0230
     10 C           8.4774   -1.2619   -2.0606 C.2     1  UNL1       -0.0282
     11 C           9.4475   -1.5839   -1.1501 C.2     1  UNL1        0.0984
     12 N          10.8053   -1.6327   -1.5151 N.am    1  UNL1       -0.2773
     13 C          11.3831   -1.2784   -2.7278 C.2     1  UNL1        0.2498
     14 O          10.7918   -0.8056   -3.7117 O.2     1  UNL1       -0.2698
     15 C          12.8472   -1.4563   -2.9128 C.ar    1  UNL1        0.0553
     16 C          13.5207   -0.4983   -3.7034 C.ar    1  UNL1       -0.0482
     17 C          14.8290   -0.7198   -4.1412 C.ar    1  UNL1       -0.0610
     18 C          15.5038   -1.8672   -3.7393 C.ar    1  UNL1       -0.0603
     19 C          14.8588   -2.8052   -2.9307 C.ar    1  UNL1       -0.0427
     20 C          13.5340   -2.6084   -2.5182 C.ar    1  UNL1        0.0531
     21 CL         12.8208   -3.8543   -1.5581 Cl      1  UNL1       -0.0828
     22 C           9.0964   -1.8388    0.3424 C.2     1  UNL1        0.2774
     23 O           8.0888   -1.3525    0.8541 O.2     1  UNL1       -0.2671
     24 N           9.9555   -2.5253    1.1924 N.am    1  UNL1       -0.2019
     25 N           9.3887   -2.8357    2.4102 N.2     1  UNL1       -0.1873
     26 C          10.0979   -3.2321    3.4107 C.2     1  UNL1        0.0564
     27 C           9.4465   -3.6354    4.6889 C.ar    1  UNL1        0.0396
     28 C          10.0639   -3.2970    5.8956 C.ar    1  UNL1       -0.0494
     29 C           9.5719   -3.8214    7.0906 C.ar    1  UNL1       -0.0575
     30 C           8.4182   -4.6129    7.0839 C.ar    1  UNL1       -0.0163
     31 C           7.7620   -4.9377    5.8815 C.ar    1  UNL1        0.1619
     32 O           6.6939   -5.7778    6.0758 O.3     1  UNL1       -0.4914
     33 C           5.9903   -6.2399    4.9360 C.3     1  UNL1        0.0790
     34 C           8.2959   -4.4492    4.6758 C.ar    1  UNL1        0.1672
     35 O           7.8619   -4.8146    3.4309 O.3     1  UNL1       -0.5029
     36 C           6.2833   -1.5939   -0.8974 C.ar    1  UNL1       -0.0528
     37 C           4.9996   -1.1810   -0.5776 C.ar    1  UNL1       -0.0401
     38 H           0.8491    0.5286    1.4609 H       1  UNL1        0.0245
     39 H           0.5295   -0.8433    0.4520 H       1  UNL1        0.0245
     40 H           0.5122    0.8375   -0.2200 H       1  UNL1        0.0245
     41 H           2.8865   -0.6907    0.8436 H       1  UNL1        0.0461
     42 H           2.9302    0.9868    0.3138 H       1  UNL1        0.0461
     43 H           2.2870   -2.0135   -2.4704 H       1  UNL1        0.0461
     44 H           2.1828   -0.4413   -3.2636 H       1  UNL1        0.0461
     45 H           0.1934   -1.5683   -1.3033 H       1  UNL1        0.0245
     46 H          -0.0478   -1.2892   -2.9993 H       1  UNL1        0.0245
     47 H           0.1603    0.1072   -1.9840 H       1  UNL1        0.0245
     48 H           4.2809    0.2476   -3.5291 H       1  UNL1        0.0636
     49 H           6.6426   -0.2866   -3.9482 H       1  UNL1        0.0624
     50 H           8.7868   -0.9952   -3.0669 H       1  UNL1        0.0644
     51 H          11.4411   -1.9675   -0.8033 H       1  UNL1        0.1553
     52 H          13.0105    0.4139   -4.0166 H       1  UNL1        0.0625
     53 H          15.3082   -0.0164   -4.8207 H       1  UNL1        0.0618
     54 H          16.5286   -2.0380   -4.0623 H       1  UNL1        0.0618
     55 H          15.3874   -3.7140   -2.6525 H       1  UNL1        0.0632
     56 H          10.9304   -2.7137    1.0315 H       1  UNL1        0.1776
     57 H          11.1937   -3.2937    3.3655 H       1  UNL1        0.0852
     58 H          10.9231   -2.6332    5.9118 H       1  UNL1        0.0625
     59 H          10.0947   -3.6327    8.0266 H       1  UNL1        0.0619
     60 H           8.0401   -4.9992    8.0312 H       1  UNL1        0.0655
     61 H           5.2132   -6.9461    5.2361 H       1  UNL1        0.0660
     62 H           6.6612   -6.7761    4.2555 H       1  UNL1        0.0660
     63 H           5.4747   -5.4016    4.4558 H       1  UNL1        0.0660
     64 H           6.9079   -4.9257    3.3797 H       1  UNL1        0.2923
     65 H           6.6994   -2.3408   -0.2405 H       1  UNL1        0.0624
     66 H           4.6466   -1.4821    0.4000 H       1  UNL1        0.0636
@<TRIPOS>BOND
     1     1     2    1
     2     2     3    1
     3     3     4    1
     4     4     5    1
     5     3     6    1
     6     6     7   ar
     7     7     8   ar
     8     8     9   ar
     9     9    10    1
    10    10    11    2
    11    11    12    1
    12    12    13   am
    13    13    14    2
    14    13    15    1
    15    15    16   ar
    16    16    17   ar
    17    17    18   ar
    18    18    19   ar
    19    19    20   ar
    20    15    20   ar
    21    20    21    1
    22    11    22    1
    23    22    23    2
    24    22    24   am
    25    24    25    1
    26    25    26    2
    27    26    27    1
    28    27    28   ar
    29    28    29   ar
    30    29    30   ar
    31    30    31   ar
    32    31    32    1
    33    32    33    1
    34    31    34   ar
    35    27    34   ar
    36    34    35    1
    37     9    36   ar
    38    36    37   ar
    39     6    37   ar
    40     1    38    1
    41     1    39    1
    42     1    40    1
    43     2    41    1
    44     2    42    1
    45     4    43    1
    46     4    44    1
    47     5    45    1
    48     5    46    1
    49     5    47    1
    50     7    48    1
    51     8    49    1
    52    10    50    1
    53    12    51    1
    54    16    52    1
    55    17    53    1
    56    18    54    1
    57    19    55    1
    58    24    56    1
    59    26    57    1
    60    28    58    1
    61    29    59    1
    62    30    60    1
    63    33    61    1
    64    33    62    1
    65    33    63    1
    66    35    64    1
    67    36    65    1
    68    37    66    1
