@<TRIPOS>MOLECULE
*****
 57 59 0 0 0
SMALL
GASTEIGER

@<TRIPOS>ATOM
      1 C           0.8920   -0.0110   -0.0331 C.3     1  UNL1       -0.0648
      2 C           2.4071   -0.0260   -0.0487 C.3     1  UNL1       -0.0476
      3 C           2.9783   -1.0004   -1.0913 C.3     1  UNL1        0.0240
      4 C           4.4939   -0.9367   -1.0701 C.2     1  UNL1        0.2172
      5 O           5.0730   -0.2092   -0.2624 O.2     1  UNL1       -0.2755
      6 N           5.1437   -1.7059   -2.0366 N.am    1  UNL1       -0.2855
      7 C           6.5523   -1.8247   -2.0536 C.ar    1  UNL1        0.0335
      8 C           7.3372   -1.9423   -3.2074 C.ar    1  UNL1       -0.0387
      9 C           8.7705   -2.0784   -3.1243 C.ar    1  UNL1       -0.0388
     10 C           9.4274   -2.0977   -1.8791 C.ar    1  UNL1        0.0327
     11 N          10.8862   -2.1158   -1.7072 N.am    1  UNL1       -0.2966
     12 C          11.6045   -2.0005   -0.4672 C.2     1  UNL1        0.1411
     13 S          10.9211   -1.8140    1.0693 S.2     1  UNL1       -0.0182
     14 N          13.0188   -2.0470   -0.5647 N.am    1  UNL1       -0.2636
     15 C          13.8729   -2.0521    0.5698 C.2     1  UNL1        0.2497
     16 O          13.5378   -2.0391    1.7563 O.2     1  UNL1       -0.2698
     17 C          15.3348   -2.0557    0.4651 C.ar    1  UNL1        0.0436
     18 C          16.0580   -2.7617    1.4350 C.ar    1  UNL1       -0.0474
     19 C          17.4395   -2.5849    1.5621 C.ar    1  UNL1       -0.0333
     20 C          18.1779   -1.7285    0.7129 C.ar    1  UNL1        0.1079
     21 N          19.5423   -1.7305    0.9131 N.pl3   1  UNL1       -0.3247
     22 C          20.4023   -0.5618    1.0434 C.3     1  UNL1        0.0124
     23 C          21.5621   -0.8723    0.1011 C.3     1  UNL1       -0.0358
     24 C          21.7652   -2.3655    0.3063 C.3     1  UNL1       -0.0358
     25 C          20.3579   -2.9167    0.5987 C.3     1  UNL1        0.0124
     26 C          17.4047   -0.9818   -0.2232 C.ar    1  UNL1        0.2946
     27 N          17.9613   -0.0022   -1.1773 N.pl3   1  UNL1        0.0815
     28 O          19.1692    0.1272   -1.3111 O.2     1  UNL1        0.0415
     29 O          17.1406    0.6478   -1.8582 O.co2   1  UNL1       -0.5760
     30 C          15.9965   -1.1492   -0.3353 C.ar    1  UNL1        0.0296
     31 C           8.5628   -2.0832   -0.7928 C.ar    1  UNL1       -0.0388
     32 C           7.1947   -1.9042   -0.8478 C.ar    1  UNL1       -0.0387
     33 H           0.5303    0.6993    0.7182 H       1  UNL1        0.0230
     34 H           0.4959   -0.9998    0.2147 H       1  UNL1        0.0230
     35 H           0.4969    0.2932   -1.0064 H       1  UNL1        0.0230
     36 H           2.7723   -0.2898    0.9529 H       1  UNL1        0.0267
     37 H           2.7703    0.9901   -0.2522 H       1  UNL1        0.0267
     38 H           2.6276   -0.7266   -2.0910 H       1  UNL1        0.0358
     39 H           2.6534   -2.0219   -0.8653 H       1  UNL1        0.0358
     40 H           4.6149   -2.1782   -2.7561 H       1  UNL1        0.1548
     41 H           6.8644   -1.8475   -4.1826 H       1  UNL1        0.0637
     42 H           9.3194   -2.1694   -4.0596 H       1  UNL1        0.0637
     43 H          11.4026   -2.1117   -2.5812 H       1  UNL1        0.1538
     44 H          13.4482   -2.0762   -1.4780 H       1  UNL1        0.1568
     45 H          15.5331   -3.4045    2.1460 H       1  UNL1        0.0626
     46 H          17.9408   -3.0858    2.3928 H       1  UNL1        0.0638
     47 H          20.7731   -0.5365    2.0753 H       1  UNL1        0.0464
     48 H          19.9163    0.3995    0.8686 H       1  UNL1        0.0464
     49 H          22.4521   -0.2803    0.3274 H       1  UNL1        0.0281
     50 H          21.3106   -0.6953   -0.9493 H       1  UNL1        0.0281
     51 H          22.4281   -2.5313    1.1629 H       1  UNL1        0.0281
     52 H          22.2277   -2.8426   -0.5649 H       1  UNL1        0.0281
     53 H          20.4035   -3.5944    1.4595 H       1  UNL1        0.0464
     54 H          19.9757   -3.4729   -0.2651 H       1  UNL1        0.0464
     55 H          15.4052   -0.5230   -0.9996 H       1  UNL1        0.0693
     56 H           8.8506   -2.2331    0.2225 H       1  UNL1        0.0637
     57 H           6.6723   -1.8711    0.1049 H       1  UNL1        0.0637
@<TRIPOS>UNITY_ATOM_ATTR
27 1
charge 1
29 1
charge -1
@<TRIPOS>BOND
     1     1     2    1
     2     2     3    1
     3     3     4    1
     4     4     5    2
     5     4     6   am
     6     6     7    1
     7     7     8   ar
     8     8     9   ar
     9     9    10   ar
    10    10    11    1
    11    11    12    1
    12    12    13    2
    13    12    14    1
    14    14    15   am
    15    15    16    2
    16    15    17    1
    17    17    18   ar
    18    18    19   ar
    19    19    20   ar
    20    20    21    1
    21    21    22    1
    22    22    23    1
    23    23    24    1
    24    24    25    1
    25    21    25    1
    26    20    26   ar
    27    26    27    1
    28    27    28    2
    29    27    29    1
    30    26    30   ar
    31    17    30   ar
    32    10    31   ar
    33    31    32   ar
    34     7    32   ar
    35     1    33    1
    36     1    34    1
    37     1    35    1
    38     2    36    1
    39     2    37    1
    40     3    38    1
    41     3    39    1
    42     6    40    1
    43     8    41    1
    44     9    42    1
    45    11    43    1
    46    14    44    1
    47    18    45    1
    48    19    46    1
    49    22    47    1
    50    22    48    1
    51    23    49    1
    52    23    50    1
    53    24    51    1
    54    24    52    1
    55    25    53    1
    56    25    54    1
    57    30    55    1
    58    31    56    1
    59    32    57    1
