REMARK  5 active torsions:
REMARK  status: ('A' for Active; 'I' for Inactive)
REMARK    1  A    between atoms: C_5  and  N_6 
REMARK       I    between atoms: N_6  and  C_7 
REMARK       I    between atoms: C_7  and  N_9 
REMARK    2  A    between atoms: N_9  and  C_10 
REMARK    3  A    between atoms: C_12  and  N_13 
REMARK       I    between atoms: N_13  and  C_14 
REMARK    4  A    between atoms: C_14  and  C_16 
REMARK    5  A    between atoms: C_25  and  N_26 
ROOT
ATOM      1  C   UNL d   1      -6.371  -3.520  -0.069  0.00  0.00     0.065 A 
ATOM      2  C   UNL d   1      -7.209  -4.405   0.688  0.00  0.00     0.061 A 
ATOM      3  C   UNL d   1      -8.621  -4.389   0.540  0.00  0.00     0.037 A 
ATOM      4  C   UNL d   1      -9.169  -3.393  -0.258  0.00  0.00     0.032 A 
ATOM      5  C   UNL d   1      -8.369  -2.534  -0.997  0.00  0.00     0.034 A 
ATOM      6  C   UNL d   1      -6.972  -2.581  -0.954  0.00  0.00     0.057 A 
ENDROOT
BRANCH   1   7
ATOM      7  N   UNL d   1      -4.925  -3.594   0.051  0.00  0.00    -0.306 N 
ATOM      8  C   UNL d   1      -4.196  -2.433   0.313  0.00  0.00     0.325 C 
ATOM      9  N   UNL d   1      -2.807  -2.513   0.129  0.00  0.00    -0.309 N 
ATOM     10  O   UNL d   1      -4.765  -1.399   0.663  0.00  0.00    -0.247 OA
ATOM     11  H   UNL d   1      -2.378  -3.421   0.022  0.00  0.00     0.170 HD
ATOM     12  H   UNL d   1      -4.522  -4.488   0.283  0.00  0.00     0.170 HD
BRANCH   9  13
ATOM     13  C   UNL d   1      -1.931  -1.354   0.118  0.00  0.00     0.038 A 
ATOM     14  C   UNL d   1      -2.433  -0.042   0.117  0.00  0.00     0.030 A 
ATOM     15  C   UNL d   1      -1.629   1.097   0.040  0.00  0.00     0.011 A 
ATOM     16  C   UNL d   1      -0.248   0.979   0.013  0.00  0.00    -0.040 A 
ATOM     17  C   UNL d   1       0.575   2.237   0.006  0.00  0.00     0.050 C 
ATOM     18  C   UNL d   1       0.289  -0.320   0.015  0.00  0.00     0.042 A 
ATOM     19  C   UNL d   1      -0.538  -1.476   0.046  0.00  0.00     0.054 A 
ATOM     20 CL   UNL d   1       2.007  -0.540  -0.011  0.00  0.00    -0.084 Cl
ENDBRANCH   9  13
ENDBRANCH   1   7
BRANCH   6  21
ATOM     21  N   UNL d   1      -6.329  -1.729  -1.829  0.00  0.00    -0.379 N 
ATOM     22  C   UNL d   1      -5.223  -2.073  -2.696  0.00  0.00     0.123 C 
ATOM     23  C   UNL d   1      -4.292  -0.882  -2.583  0.00  0.00     0.021 C 
ATOM     24  C   UNL d   1      -5.208   0.302  -2.322  0.00  0.00     0.021 C 
ATOM     25  C   UNL d   1      -6.439  -0.284  -1.624  0.00  0.00     0.123 C 
ENDBRANCH   6  21
BRANCH   3  26
ATOM     26  N   UNL d   1      -9.475  -5.381   1.130  0.00  0.00    -0.323 N 
ATOM     27  C   UNL d   1     -10.832  -5.545   0.818  0.00  0.00     0.256 C 
ATOM     28  O   UNL d   1     -11.508  -4.854   0.046  0.00  0.00    -0.267 OA
ATOM     29  H   UNL d   1      -9.028  -6.100   1.686  0.00  0.00     0.169 HD
BRANCH  27  30
ATOM     30  C   UNL d   1     -11.597  -6.641   1.458  0.00  0.00     0.032 A 
ATOM     31  C   UNL d   1     -12.661  -7.239   0.748  0.00  0.00     0.020 A 
ATOM     32  C   UNL d   1     -13.563  -8.080   1.403  0.00  0.00     0.043 A 
ATOM     33  C   UNL d   1     -13.360  -8.370   2.746  0.00  0.00     0.116 A 
ATOM     34  F   UNL d   1     -14.194  -9.210   3.373  0.00  0.00    -0.206 F 
ATOM     35  C   UNL d   1     -12.303  -7.800   3.453  0.00  0.00     0.043 A 
ATOM     36  C   UNL d   1     -11.422  -6.925   2.813  0.00  0.00     0.020 A 
ENDBRANCH  27  30
ENDBRANCH   3  26
TORSDOF 5
