REMARK  8 active torsions:
REMARK  status: ('A' for Active; 'I' for Inactive)
REMARK       I    between atoms: C_2  and  N_3 
REMARK       I    between atoms: C_2  and  N_10 
REMARK    1  A    between atoms: N_3  and  C_4 
REMARK    2  A    between atoms: N_10  and  C_11 
REMARK    3  A    between atoms: C_14  and  N_15 
REMARK       I    between atoms: N_15  and  C_16 
REMARK    4  A    between atoms: C_16  and  C_18 
REMARK    5  A    between atoms: C_21  and  S_22 
REMARK    6  A    between atoms: S_22  and  N_25 
REMARK    7  A    between atoms: N_25  and  C_26 
REMARK    8  A    between atoms: C_26  and  C_27 
ROOT
ATOM      1  N   UNL d   1       8.700  -0.801   1.094  0.00  0.00    -0.323 N 
ATOM      2  C   UNL d   1       9.447   0.376   1.016  0.00  0.00     0.256 C 
ATOM      3  O   UNL d   1       9.008   1.521   0.943  0.00  0.00    -0.267 OA
ATOM      4  H   UNL d   1       9.189  -1.686   1.158  0.00  0.00     0.169 HD
ENDROOT
BRANCH   1   5
ATOM      5  C   UNL d   1       7.274  -0.848   1.068  0.00  0.00     0.035 A 
ATOM      6  C   UNL d   1       6.584  -2.070   1.107  0.00  0.00     0.032 A 
ATOM      7  C   UNL d   1       5.176  -2.106   0.956  0.00  0.00     0.032 A 
ATOM      8  C   UNL d   1       4.453  -0.918   0.801  0.00  0.00     0.036 A 
ATOM      9  C   UNL d   1       5.130   0.287   0.859  0.00  0.00     0.032 A 
ATOM     10  C   UNL d   1       6.512   0.316   0.979  0.00  0.00     0.032 A 
BRANCH   8  11
ATOM     11  N   UNL d   1       3.059  -0.923   0.648  0.00  0.00    -0.309 N 
ATOM     12  C   UNL d   1       2.260  -0.045  -0.054  0.00  0.00     0.325 C 
ATOM     13  O   UNL d   1       1.041  -0.111   0.095  0.00  0.00    -0.247 OA
ATOM     14  N   UNL d   1       2.901   0.759  -0.975  0.00  0.00    -0.309 N 
ATOM     15  H   UNL d   1       3.848   0.502  -1.214  0.00  0.00     0.170 HD
ATOM     16  H   UNL d   1       2.529  -1.620   1.157  0.00  0.00     0.170 HD
BRANCH  14  17
ATOM     17  C   UNL d   1       2.248   1.625  -1.871  0.00  0.00     0.036 A 
ATOM     18  C   UNL d   1       2.728   1.725  -3.182  0.00  0.00     0.029 A 
ATOM     19  C   UNL d   1       2.119   2.596  -4.089  0.00  0.00     0.002 A 
ATOM     20  C   UNL d   1       1.018   3.354  -3.694  0.00  0.00     0.000 A 
ATOM     21  C   UNL d   1       0.556   3.276  -2.381  0.00  0.00     0.002 A 
ATOM     22  C   UNL d   1       1.169   2.413  -1.472  0.00  0.00     0.029 A 
ENDBRANCH  14  17
ENDBRANCH   8  11
ENDBRANCH   1   5
BRANCH   2  23
ATOM     23  C   UNL d   1      10.927   0.294   0.992  0.00  0.00     0.032 A 
ATOM     24  C   UNL d   1      11.645   1.291   1.676  0.00  0.00     0.018 A 
ATOM     25  C   UNL d   1      13.029   1.406   1.518  0.00  0.00     0.026 A 
ATOM     26  C   UNL d   1      13.715   0.477   0.726  0.00  0.00     0.074 A 
ATOM     27  C   UNL d   1      13.005  -0.508   0.029  0.00  0.00     0.026 A 
ATOM     28  C   UNL d   1      11.607  -0.592   0.154  0.00  0.00     0.018 A 
BRANCH  26  29
ATOM     29  S   UNL d   1      15.494   0.559   0.721  0.00  0.00     0.241 S 
ATOM     30  O   UNL d   1      15.875   1.767   0.038  0.00  0.00    -0.206 OA
ATOM     31  O   UNL d   1      15.927   0.276   2.079  0.00  0.00    -0.206 OA
BRANCH  29  32
ATOM     32  N   UNL d   1      16.032  -0.724  -0.254  0.00  0.00    -0.209 NA
ATOM     33  H   UNL d   1      15.704  -0.599  -1.211  0.00  0.00     0.140 HD
BRANCH  32  34
ATOM     34  C   UNL d   1      17.518  -0.823  -0.250  0.00  0.00     0.169 C 
BRANCH  34  35
ATOM     35  C   UNL d   1      17.956  -1.883  -1.204  0.00  0.00     0.066 A 
ATOM     36  C   UNL d   1      18.666  -1.823  -2.387  0.00  0.00     0.036 A 
ATOM     37  C   UNL d   1      18.752  -3.146  -2.877  0.00  0.00     0.027 A 
ATOM     38  C   UNL d   1      18.130  -3.939  -1.943  0.00  0.00     0.142 A 
ATOM     39  O   UNL d   1      17.648  -3.184  -0.918  0.00  0.00    -0.326 OA
ENDBRANCH  34  35
ENDBRANCH  32  34
ENDBRANCH  29  32
ENDBRANCH  26  29
ENDBRANCH   2  23
TORSDOF 8
