@<TRIPOS>MOLECULE
*****
 46 47 0 0 0
SMALL
GASTEIGER

@<TRIPOS>ATOM
      1 O           1.1691   -0.1933   -0.1461 O.2     1  UNL1       -0.2743
      2 C           2.4019   -0.1269   -0.0899 C.2     1  UNL1        0.2294
      3 C           3.1181    0.8902    0.7572 C.3     1  UNL1        0.0294
      4 C           2.1298    1.7809    1.5037 C.3     1  UNL1       -0.0194
      5 C           2.8004    2.8311    2.3523 C.ar    1  UNL1       -0.0469
      6 C           3.5788    2.4805    3.4638 C.ar    1  UNL1       -0.0586
      7 C           4.0158    3.4651    4.3508 C.ar    1  UNL1       -0.0615
      8 C           3.7494    4.8085    4.0910 C.ar    1  UNL1       -0.0617
      9 C           3.0284    5.1690    2.9553 C.ar    1  UNL1       -0.0615
     10 C           2.5526    4.1846    2.0921 C.ar    1  UNL1       -0.0586
     11 N           3.1647   -1.0039   -0.8155 N.am    1  UNL1       -0.2351
     12 N           4.5943   -1.0982   -0.8878 N.am    1  UNL1       -0.2455
     13 C           5.1411   -2.0973   -1.7205 C.2     1  UNL1        0.1531
     14 S           4.1040   -3.1264   -2.5702 S.2     1  UNL1       -0.0170
     15 N           6.5574   -2.1419   -1.7623 N.am    1  UNL1       -0.2639
     16 C           7.3357   -3.0478   -2.5236 C.2     1  UNL1        0.2561
     17 O           6.8359   -3.9273   -3.2281 O.2     1  UNL1       -0.2717
     18 C           8.8843   -2.9485   -2.4603 C.3     1  UNL1        0.1655
     19 O           9.4179   -3.8893   -3.4195 O.3     1  UNL1       -0.4828
     20 C          10.7561   -4.1560   -3.4575 C.ar    1  UNL1        0.1216
     21 C          11.2837   -4.4986   -4.7140 C.ar    1  UNL1       -0.0135
     22 C          12.6284   -4.8722   -4.8595 C.ar    1  UNL1        0.0190
     23 C          13.4649   -4.8522   -3.7394 C.ar    1  UNL1        0.2734
     24 N          14.9074   -5.0940   -3.8951 N.pl3   1  UNL1        0.0796
     25 O          15.3378   -5.3316   -5.0291 O.2     1  UNL1        0.0414
     26 O          15.6152   -5.0120   -2.8764 O.co2   1  UNL1       -0.5760
     27 C          12.9401   -4.5471   -2.4768 C.ar    1  UNL1        0.0190
     28 C          11.5843   -4.2116   -2.3395 C.ar    1  UNL1       -0.0135
     29 H           3.7465    1.5027    0.1026 H       1  UNL1        0.0362
     30 H           3.7541    0.3509    1.4658 H       1  UNL1        0.0362
     31 H           1.4755    1.1855    2.1554 H       1  UNL1        0.0318
     32 H           1.4560    2.2681    0.7854 H       1  UNL1        0.0318
     33 H           3.8172    1.4401    3.6717 H       1  UNL1        0.0620
     34 H           4.5364    3.1831    5.2624 H       1  UNL1        0.0618
     35 H           4.0953    5.5749    4.7790 H       1  UNL1        0.0618
     36 H           2.8033    6.2134    2.7578 H       1  UNL1        0.0618
     37 H           1.9587    4.4774    1.2290 H       1  UNL1        0.0620
     38 H           2.6454   -1.6834   -1.3781 H       1  UNL1        0.1728
     39 H           5.1321   -0.4302   -0.3481 H       1  UNL1        0.1718
     40 H           7.0563   -1.4637   -1.2043 H       1  UNL1        0.1566
     41 H           9.2049   -3.1846   -1.4424 H       1  UNL1        0.0795
     42 H           9.2069   -1.9481   -2.7607 H       1  UNL1        0.0795
     43 H          10.6467   -4.4672   -5.5974 H       1  UNL1        0.0656
     44 H          13.0024   -5.1672   -5.8388 H       1  UNL1        0.0686
     45 H          13.5695   -4.5728   -1.5890 H       1  UNL1        0.0686
     46 H          11.1992   -4.0265   -1.3440 H       1  UNL1        0.0656
@<TRIPOS>UNITY_ATOM_ATTR
24 1
charge 1
26 1
charge -1
@<TRIPOS>BOND
     1     1     2    2
     2     2     3    1
     3     3     4    1
     4     4     5    1
     5     5     6   ar
     6     6     7   ar
     7     7     8   ar
     8     8     9   ar
     9     9    10   ar
    10     5    10   ar
    11     2    11   am
    12    11    12    1
    13    12    13    1
    14    13    14    2
    15    13    15    1
    16    15    16   am
    17    16    17    2
    18    16    18    1
    19    18    19    1
    20    19    20    1
    21    20    21   ar
    22    21    22   ar
    23    22    23   ar
    24    23    24    1
    25    24    25    2
    26    24    26    1
    27    23    27   ar
    28    27    28   ar
    29    20    28   ar
    30     3    29    1
    31     3    30    1
    32     4    31    1
    33     4    32    1
    34     6    33    1
    35     7    34    1
    36     8    35    1
    37     9    36    1
    38    10    37    1
    39    11    38    1
    40    12    39    1
    41    15    40    1
    42    18    41    1
    43    18    42    1
    44    21    43    1
    45    22    44    1
    46    27    45    1
    47    28    46    1
