@<TRIPOS>MOLECULE
*****
 50 50 0 0 0
SMALL
GASTEIGER

@<TRIPOS>ATOM
      1 C           1.0665    0.0636   -0.0010 C.3     1  UNL1       -0.0636
      2 C           2.5967    0.0524   -0.0777 C.3     1  UNL1       -0.0376
      3 C           3.1270   -0.5478   -1.4043 C.3     1  UNL1        0.0201
      4 C           2.5797    0.2548   -2.5882 C.3     1  UNL1       -0.0466
      5 N           4.6005   -0.5947   -1.4618 N.am    1  UNL1       -0.3112
      6 C           5.2787   -1.1841   -2.5304 C.2     1  UNL1        0.2333
      7 O           4.6903   -1.7009   -3.4823 O.2     1  UNL1       -0.2738
      8 C           6.8350   -1.1620   -2.4841 C.3     1  UNL1        0.0980
      9 C           7.3006   -1.9343   -1.2534 C.3     1  UNL1       -0.0380
     10 N           7.4173   -1.7500   -3.7128 N.am    1  UNL1       -0.2884
     11 C           8.7745   -1.7932   -3.9177 C.2     1  UNL1        0.3003
     12 O           9.5839   -1.3236   -3.1350 O.2     1  UNL1       -0.2528
     13 N           9.1608   -2.4785   -5.0423 N.am    1  UNL1       -0.2979
     14 C          10.5887   -2.6170   -5.3496 C.3     1  UNL1        0.0285
     15 C          10.8538   -3.3786   -6.6547 C.3     1  UNL1        0.0249
     16 N          12.2696   -3.3808   -7.0278 N.pl3   1  UNL1       -0.3371
     17 C          12.7347   -3.8959   -8.2323 C.ar    1  UNL1        0.1054
     18 C          13.7708   -4.8597   -8.1696 C.ar    1  UNL1       -0.0342
     19 C          14.3206   -5.4485   -9.3197 C.ar    1  UNL1       -0.0596
     20 C          13.7994   -5.1464  -10.5689 C.ar    1  UNL1       -0.0552
     21 C          12.7728   -4.2137  -10.6699 C.ar    1  UNL1        0.0175
     22 C          12.2500   -3.5807   -9.5196 C.ar    1  UNL1        0.2937
     23 N          11.2681   -2.5127   -9.7792 N.pl3   1  UNL1        0.0815
     24 O          10.6461   -2.5649  -10.8505 O.2     1  UNL1        0.0415
     25 O          11.1295   -1.5946   -8.9572 O.co2   1  UNL1       -0.5760
     26 H           0.7228    0.4867    0.9479 H       1  UNL1        0.0230
     27 H           0.6645   -0.9507   -0.0917 H       1  UNL1        0.0230
     28 H           0.6204    0.6771   -0.7897 H       1  UNL1        0.0230
     29 H           2.9830   -0.5152    0.7781 H       1  UNL1        0.0280
     30 H           2.9619    1.0804    0.0426 H       1  UNL1        0.0280
     31 H           2.7785   -1.5861   -1.4764 H       1  UNL1        0.0495
     32 H           2.9133    1.2959   -2.5273 H       1  UNL1        0.0247
     33 H           1.4881    0.2381   -2.6242 H       1  UNL1        0.0247
     34 H           2.9132   -0.1458   -3.5464 H       1  UNL1        0.0247
     35 H           5.1225   -0.2154   -0.6806 H       1  UNL1        0.1490
     36 H           7.1642   -0.1169   -2.4366 H       1  UNL1        0.0592
     37 H           6.9503   -2.9711   -1.3015 H       1  UNL1        0.0252
     38 H           6.9224   -1.4883   -0.3303 H       1  UNL1        0.0252
     39 H           8.3900   -1.9603   -1.1729 H       1  UNL1        0.0252
     40 H           6.7648   -2.0704   -4.4177 H       1  UNL1        0.1510
     41 H           8.4801   -2.6684   -5.7626 H       1  UNL1        0.1503
     42 H          11.0673   -3.1362   -4.5102 H       1  UNL1        0.0478
     43 H          11.0316   -1.6134   -5.3981 H       1  UNL1        0.0478
     44 H          10.2318   -2.9060   -7.4118 H       1  UNL1        0.0476
     45 H          10.4884   -4.4077   -6.5794 H       1  UNL1        0.0476
     46 H          12.9608   -3.1534   -6.3176 H       1  UNL1        0.1463
     47 H          14.1581   -5.1874   -7.2047 H       1  UNL1        0.0638
     48 H          15.1533   -6.1457   -9.2397 H       1  UNL1        0.0618
     49 H          14.1903   -5.6241  -11.4642 H       1  UNL1        0.0620
     50 H          12.4012   -3.9606  -11.6610 H       1  UNL1        0.0686
@<TRIPOS>UNITY_ATOM_ATTR
23 1
charge 1
25 1
charge -1
@<TRIPOS>BOND
     1     1     2    1
     2     2     3    1
     3     3     4    1
     4     3     5    1
     5     5     6   am
     6     6     7    2
     7     6     8    1
     8     8     9    1
     9     8    10    1
    10    10    11   am
    11    11    12    2
    12    11    13   am
    13    13    14    1
    14    14    15    1
    15    15    16    1
    16    16    17    1
    17    17    18   ar
    18    18    19   ar
    19    19    20   ar
    20    20    21   ar
    21    21    22   ar
    22    17    22   ar
    23    22    23    1
    24    23    24    2
    25    23    25    1
    26     1    26    1
    27     1    27    1
    28     1    28    1
    29     2    29    1
    30     2    30    1
    31     3    31    1
    32     4    32    1
    33     4    33    1
    34     4    34    1
    35     5    35    1
    36     8    36    1
    37     9    37    1
    38     9    38    1
    39     9    39    1
    40    10    40    1
    41    13    41    1
    42    14    42    1
    43    14    43    1
    44    15    44    1
    45    15    45    1
    46    16    46    1
    47    18    47    1
    48    19    48    1
    49    20    49    1
    50    21    50    1
