REMARK  4 active torsions:
REMARK  status: ('A' for Active; 'I' for Inactive)
REMARK    1  A    between atoms: N_1  and  N_2 
REMARK       I    between atoms: N_2  and  C_3 
REMARK    2  A    between atoms: C_3  and  C_5 
REMARK    3  A    between atoms: C_10  and  N_11 
REMARK       I    between atoms: N_11  and  C_12 
REMARK    4  A    between atoms: C_12  and  C_14 
ROOT
ATOM      1  C   UNL d   1       4.551  -1.260  -0.056  0.00  0.00     0.060 A 
ATOM      2  C   UNL d   1       5.317  -2.181  -0.798  0.00  0.00     0.019 A 
ATOM      3  C   UNL d   1       6.696  -2.289  -0.614  0.00  0.00     0.001 A 
ATOM      4  C   UNL d   1       7.342  -1.436   0.273  0.00  0.00     0.002 A 
ATOM      5  C   UNL d   1       6.600  -0.505   1.014  0.00  0.00     0.030 A 
ATOM      6  C   UNL d   1       5.198  -0.413   0.882  0.00  0.00     0.050 A 
ENDROOT
BRANCH   6   7
ATOM      7  N   UNL d   1       4.537   0.552   1.705  0.00  0.00    -0.322 N 
ATOM      8  C   UNL d   1       3.240   0.369   2.158  0.00  0.00     0.262 C 
ATOM      9  O   UNL d   1       2.724  -0.735   2.202  0.00  0.00    -0.267 OA
ATOM     10  H   UNL d   1       5.114   1.208   2.222  0.00  0.00     0.169 HD
BRANCH   8  11
ATOM     11  C   UNL d   1       2.420   1.528   2.579  0.00  0.00     0.109 A 
ATOM     12  C   UNL d   1       1.094   1.257   2.953  0.00  0.00     0.135 A 
ATOM     13  F   UNL d   1       0.599   0.011   2.958  0.00  0.00    -0.205 F 
ATOM     14  C   UNL d   1       0.216   2.261   3.335  0.00  0.00     0.043 A 
ATOM     15  C   UNL d   1       0.673   3.566   3.421  0.00  0.00     0.006 A 
ATOM     16  C   UNL d   1       1.975   3.870   3.013  0.00  0.00     0.043 A 
ATOM     17  C   UNL d   1       2.833   2.857   2.564  0.00  0.00     0.135 A 
ATOM     18  F   UNL d   1       4.056   3.204   2.133  0.00  0.00    -0.205 F 
ENDBRANCH   8  11
ENDBRANCH   6   7
BRANCH   1  19
ATOM     19  C   UNL d   1       3.073  -1.342  -0.301  0.00  0.00     0.268 C 
ATOM     20  N   UNL d   1       2.394  -0.133  -0.522  0.00  0.00    -0.290 N 
ATOM     21  H   UNL d   1       2.929   0.720  -0.399  0.00  0.00     0.183 HD
ATOM     22  O   UNL d   1       2.530  -2.445  -0.272  0.00  0.00    -0.266 OA
BRANCH  20  23
ATOM     23  N   UNL d   1       0.989  -0.095  -0.237  0.00  0.00    -0.247 NA
ATOM     24  H   UNL d   1       0.703   0.851   0.013  0.00  0.00     0.143 HD
ATOM     25  H   UNL d   1       0.863  -0.645   0.632  0.00  0.00     0.143 HD
ENDBRANCH  20  23
ENDBRANCH   1  19
TORSDOF 4
