REMARK  5 active torsions:
REMARK  status: ('A' for Active; 'I' for Inactive)
REMARK       I    between atoms: C_2  and  N_3 
REMARK    1  A    between atoms: C_2  and  C_17 
REMARK    2  A    between atoms: N_3  and  N_4 
REMARK       I    between atoms: N_4  and  C_5 
REMARK    3  A    between atoms: C_7  and  C_5 
REMARK    4  A    between atoms: C_9  and  C_10 
REMARK    5  A    between atoms: C_22  and  O_23 
ROOT
ATOM      1  N   UNL d   1       3.748   2.215   4.781  0.00  0.00    -0.267 N 
ATOM      2  C   UNL d   1       2.725   3.164   4.815  0.00  0.00     0.240 C 
ATOM      3  O   UNL d   1       2.182   3.550   5.850  0.00  0.00    -0.271 OA
ATOM      4  H   UNL d   1       4.193   1.912   3.915  0.00  0.00     0.190 HD
ENDROOT
BRANCH   1   5
ATOM      5  N   UNL d   1       4.212   1.553   5.959  0.00  0.00    -0.263 N 
ATOM      6  C   UNL d   1       5.247   0.615   5.855  0.00  0.00     0.272 C 
ATOM      7  O   UNL d   1       5.747   0.306   4.775  0.00  0.00    -0.266 OA
ATOM      8  H   UNL d   1       3.809   1.850   6.843  0.00  0.00     0.190 HD
BRANCH   6   9
ATOM      9  C   UNL d   1       5.686  -0.057   7.127  0.00  0.00     0.066 A 
ATOM     10  C   UNL d   1       4.714  -0.603   7.979  0.00  0.00     0.020 A 
ATOM     11  C   UNL d   1       5.085  -1.305   9.135  0.00  0.00     0.001 A 
ATOM     12  C   UNL d   1       6.431  -1.468   9.458  0.00  0.00     0.003 A 
ATOM     13  C   UNL d   1       7.413  -0.937   8.621  0.00  0.00     0.037 A 
ATOM     14  C   UNL d   1       7.042  -0.242   7.456  0.00  0.00     0.081 A 
BRANCH  14  15
ATOM     15  O   UNL d   1       8.021   0.283   6.658  0.00  0.00    -0.360 OA
ATOM     16  H   UNL d   1       8.897   0.008   6.976  0.00  0.00     0.217 HD
ENDBRANCH  14  15
ENDBRANCH   6   9
ENDBRANCH   1   5
BRANCH   2  17
ATOM     17  C   UNL d   1       2.303   3.672   3.457  0.00  0.00     0.088 A 
ATOM     18  C   UNL d   1       0.913   4.181   3.122  0.00  0.00     0.025 A 
ATOM     19  C   UNL d   1       2.067   5.151   3.123  0.00  0.00     0.032 A 
BRANCH  19  20
ATOM     20  C   UNL d   1       2.700   5.687   1.839  0.00  0.00    -0.050 A 
ATOM     21  C   UNL d   1       2.420   5.159   0.561  0.00  0.00     0.007 A 
ATOM     22  C   UNL d   1       3.102   5.581  -0.586  0.00  0.00     0.004 A 
ATOM     23  C   UNL d   1       4.077   6.565  -0.488  0.00  0.00     0.042 A 
ATOM     24  C   UNL d   1       4.332   7.139   0.749  0.00  0.00     0.116 A 
ATOM     25  F   UNL d   1       5.261   8.101   0.846  0.00  0.00    -0.206 F 
ATOM     26  C   UNL d   1       3.654   6.720   1.893  0.00  0.00     0.049 A 
ENDBRANCH  19  20
ENDBRANCH   2  17
TORSDOF 5
