REMARK  4 active torsions:
REMARK  status: ('A' for Active; 'I' for Inactive)
REMARK    1  A    between atoms: C_5  and  N_6 
REMARK    2  A    between atoms: N_6  and  C_7 
REMARK    3  A    between atoms: C_10  and  N_11 
REMARK       I    between atoms: N_11  and  C_12 
REMARK    4  A    between atoms: C_12  and  C_14 
ROOT
ATOM      1  C   UNL d   1       7.395  -1.315   0.226  0.00  0.00     0.033 C 
ATOM      2  C   UNL d   1       8.246  -1.818   1.210  0.00  0.00     0.032 C 
ATOM      3  C   UNL d   1       8.751  -3.126   1.107  0.00  0.00     0.032 C 
ATOM      4  C   UNL d   1       8.651  -3.829  -0.098  0.00  0.00     0.035 C 
ATOM      5  C   UNL d   1       7.923  -3.240  -1.133  0.00  0.00     0.032 C 
ATOM      6  C   UNL d   1       7.261  -2.029  -0.961  0.00  0.00     0.032 C 
ENDROOT
BRANCH   4   7
ATOM      7  N   UNL d   1       9.318  -5.074  -0.259  0.00  0.00    -0.323 N 
ATOM      8  C   UNL d   1       9.413  -5.755  -1.461  0.00  0.00     0.261 C 
ATOM      9  O   UNL d   1       8.835  -5.463  -2.518  0.00  0.00    -0.267 OA
ATOM     10  H   UNL d   1       9.802  -5.447   0.552  0.00  0.00     0.169 HD
BRANCH   8  11
ATOM     11  C   UNL d   1      10.245  -6.959  -1.550  0.00  0.00     0.092 C 
ATOM     12  C   UNL d   1      10.103  -7.974  -0.610  0.00  0.00     0.133 C 
ATOM     13  F   UNL d   1       9.386  -7.785   0.506  0.00  0.00    -0.205 F 
ATOM     14  C   UNL d   1      10.657  -9.233  -0.837  0.00  0.00     0.043 C 
ATOM     15  C   UNL d   1      11.252  -9.518  -2.065  0.00  0.00     0.005 C 
ATOM     16  C   UNL d   1      11.479  -8.489  -2.976  0.00  0.00     0.025 C 
ATOM     17  C   UNL d   1      11.011  -7.201  -2.703  0.00  0.00     0.052 C 
ATOM     18 CL   UNL d   1      11.473  -5.951  -3.810  0.00  0.00    -0.083 Cl
ENDBRANCH   8  11
ENDBRANCH   4   7
BRANCH   1  19
ATOM     19  N   UNL d   1       6.641  -0.157   0.477  0.00  0.00    -0.340 N 
ATOM     20  H   UNL d   1       7.148   0.714   0.411  0.00  0.00     0.167 HD
BRANCH  19  21
ATOM     21  C   UNL d   1       5.244  -0.104   0.310  0.00  0.00     0.150 C 
ATOM     22  C   UNL d   1       4.581   1.111   0.292  0.00  0.00     0.054 C 
ATOM     23  C   UNL d   1       3.209   1.137   0.041  0.00  0.00     0.032 C 
ATOM     24  C   UNL d   1       2.506  -0.055   0.019  0.00  0.00     0.053 C 
ATOM     25  C   UNL d   1       1.011  -0.085   0.007  0.00  0.00     0.072 C 
ATOM     26  N   UNL d   1       3.150  -1.229   0.119  0.00  0.00    -0.153 NA
ATOM     27  N   UNL d   1       4.522  -1.245   0.221  0.00  0.00    -0.132 NA
ENDBRANCH  19  21
ENDBRANCH   1  19
TORSDOF 4
