@<TRIPOS>MOLECULE
*****
 49 52 0 0 0
SMALL
GASTEIGER

@<TRIPOS>ATOM
      1 C          -7.5922   -1.2826   -7.5307 C.3     1  UNL1       -0.0397
      2 C          -7.3393   -0.5771   -6.2376 C.ar    1  UNL1       -0.0503
      3 C          -7.5119    0.8041   -6.0729 C.ar    1  UNL1       -0.0571
      4 C          -7.2302    1.4272   -4.8434 C.ar    1  UNL1       -0.0402
      5 C          -6.7664    0.6664   -3.7688 C.ar    1  UNL1        0.0335
      6 N          -6.4195    1.2955   -2.5437 N.am    1  UNL1       -0.2837
      7 C          -6.1018    0.5855   -1.3934 C.2     1  UNL1        0.2420
      8 O          -6.3065   -0.6285   -1.2998 O.2     1  UNL1       -0.2731
      9 C          -5.5135    1.3265   -0.1557 C.3     1  UNL1        0.1233
     10 N          -4.0497    1.1827   -0.0577 N.pl3   1  UNL1       -0.3294
     11 C          -3.3361    0.0015   -0.0263 C.ar    1  UNL1        0.0286
     12 C          -3.9339   -1.2733    0.0056 C.ar    1  UNL1       -0.0405
     13 C          -3.2214   -2.4663   -0.1235 C.ar    1  UNL1       -0.0546
     14 C          -1.8553   -2.3771   -0.1422 C.ar    1  UNL1       -0.0181
     15 C          -1.2477   -1.1269   -0.0860 C.ar    1  UNL1        0.0431
     16 C          -1.9429    0.0632   -0.0491 C.ar    1  UNL1       -0.0284
     17 C           0.1978   -1.3247   -0.0519 C.2     1  UNL1        0.2447
     18 O           1.0261   -0.4515    0.0265 O.2     1  UNL1       -0.2702
     19 N           0.4021   -2.6892   -0.1098 N.am    1  UNL1       -0.3072
     20 C          -0.8286   -3.4511   -0.1445 C.3     1  UNL1        0.0379
     21 C          -5.9853    2.7720   -0.0735 C.ar    1  UNL1       -0.0185
     22 C          -7.3714    3.0299   -0.0542 C.ar    1  UNL1       -0.0563
     23 C          -7.8504    4.3381   -0.0826 C.ar    1  UNL1       -0.0614
     24 C          -6.9564    5.4053   -0.0957 C.ar    1  UNL1       -0.0617
     25 C          -5.5881    5.1689   -0.0733 C.ar    1  UNL1       -0.0614
     26 C          -5.1082    3.8654   -0.0647 C.ar    1  UNL1       -0.0563
     27 C          -6.6117   -0.7126   -3.9587 C.ar    1  UNL1       -0.0402
     28 C          -6.8960   -1.3318   -5.1637 C.ar    1  UNL1       -0.0571
     29 H          -7.9450   -0.5933   -8.2998 H       1  UNL1        0.0278
     30 H          -8.3480   -2.0622   -7.3862 H       1  UNL1        0.0278
     31 H          -6.6654   -1.7509   -7.8813 H       1  UNL1        0.0278
     32 H          -7.8588    1.4062   -6.9091 H       1  UNL1        0.0621
     33 H          -7.3741    2.5010   -4.7568 H       1  UNL1        0.0636
     34 H          -6.5061    2.3050   -2.4896 H       1  UNL1        0.1549
     35 H          -5.9440    0.8232    0.7223 H       1  UNL1        0.0645
     36 H          -3.4789    2.0113   -0.0404 H       1  UNL1        0.1471
     37 H          -5.0005   -1.3813    0.1448 H       1  UNL1        0.0636
     38 H          -3.7543   -3.4090   -0.1755 H       1  UNL1        0.0622
     39 H          -1.3975    1.0004   -0.0246 H       1  UNL1        0.0644
     40 H           1.3425   -3.0565   -0.0762 H       1  UNL1        0.1493
     41 H          -0.9088   -4.0682    0.7553 H       1  UNL1        0.0512
     42 H          -0.8740   -4.0669   -1.0463 H       1  UNL1        0.0512
     43 H          -8.0907    2.2091   -0.0564 H       1  UNL1        0.0621
     44 H          -8.9208    4.5255   -0.1022 H       1  UNL1        0.0618
     45 H          -7.3217    6.4269   -0.1209 H       1  UNL1        0.0618
     46 H          -4.8791    5.9920   -0.0722 H       1  UNL1        0.0618
     47 H          -4.0311    3.7522   -0.0641 H       1  UNL1        0.0621
     48 H          -6.2410   -1.3809   -3.1938 H       1  UNL1        0.0636
     49 H          -6.7448   -2.4054   -5.2405 H       1  UNL1        0.0621
@<TRIPOS>BOND
     1     1     2    1
     2     2     3   ar
     3     3     4   ar
     4     4     5   ar
     5     5     6    1
     6     6     7   am
     7     7     8    2
     8    10    11    1
     9    11    12   ar
    10    12    13   ar
    11    13    14   ar
    12    14    15   ar
    13    15    16   ar
    14    11    16   ar
    15    15    17    1
    16    17    18    2
    17    17    19   am
    18    19    20    1
    19    14    20    1
    20     9    21    1
    21    21    22   ar
    22    22    23   ar
    23    23    24   ar
    24    24    25   ar
    25    25    26   ar
    26    21    26   ar
    27     5    27   ar
    28    27    28   ar
    29     2    28   ar
    30     9    10    1
    31     9     7    1
    32     1    29    1
    33     1    30    1
    34     1    31    1
    35     3    32    1
    36     4    33    1
    37     6    34    1
    38     9    35    1
    39    10    36    1
    40    12    37    1
    41    13    38    1
    42    16    39    1
    43    19    40    1
    44    20    41    1
    45    20    42    1
    46    22    43    1
    47    23    44    1
    48    24    45    1
    49    25    46    1
    50    26    47    1
    51    27    48    1
    52    28    49    1
