REMARK  7 active torsions:
REMARK  status: ('A' for Active; 'I' for Inactive)
REMARK    1  A    between atoms: C_2  and  C_3 
REMARK       I    between atoms: C_2  and  N_12 
REMARK    2  A    between atoms: C_3  and  C_4 
REMARK    3  A    between atoms: C_4  and  C_5 
REMARK    4  A    between atoms: C_5  and  N_6 
REMARK       I    between atoms: N_6  and  C_7 
REMARK    5  A    between atoms: C_7  and  C_9 
REMARK    6  A    between atoms: N_12  and  N_13 
REMARK    7  A    between atoms: N_13  and  C_14 
ROOT
ATOM      1  O   UNL d   1       1.164  -0.043   0.112  0.00  0.00    -0.272 OA
ATOM      2  C   UNL d   1       2.393  -0.043   0.027  0.00  0.00     0.236 C 
ATOM      3  N   UNL d   1       3.143  -0.772   0.938  0.00  0.00    -0.270 N 
ATOM      4  H   UNL d   1       2.628  -1.121   1.744  0.00  0.00     0.190 HD
ENDROOT
BRANCH   2   5
ATOM      5  C   UNL d   1       3.123   0.712  -1.083  0.00  0.00     0.106 C 
BRANCH   5   6
ATOM      6  C   UNL d   1       2.155   1.374  -2.083  0.00  0.00     0.029 C 
BRANCH   6   7
ATOM      7  C   UNL d   1       2.894   2.110  -3.205  0.00  0.00     0.123 C 
BRANCH   7   8
ATOM      8  N   UNL d   1       2.006   2.743  -4.170  0.00  0.00    -0.361 N 
ATOM      9  C   UNL d   1       2.518   3.448  -5.242  0.00  0.00     0.221 C 
ATOM     10  O   UNL d   1       3.723   3.591  -5.443  0.00  0.00    -0.273 OA
ATOM     11  H   UNL d   1       1.004   2.667  -4.051  0.00  0.00     0.162 HD
BRANCH   9  12
ATOM     12  C   UNL d   1       1.513   4.055  -6.173  0.00  0.00     0.078 A 
ATOM     13  C   UNL d   1       1.696   5.480  -6.663  0.00  0.00     0.015 A 
ATOM     14  C   UNL d   1       1.885   4.339  -7.618  0.00  0.00     0.015 A 
ENDBRANCH   9  12
ENDBRANCH   7   8
ENDBRANCH   6   7
ENDBRANCH   5   6
ENDBRANCH   2   5
BRANCH   3  15
ATOM     15  N   UNL d   1       4.505  -0.567   1.115  0.00  0.00    -0.298 N 
ATOM     16  H   UNL d   1       5.053  -0.169   0.356  0.00  0.00     0.187 HD
BRANCH  15  17
ATOM     17  C   UNL d   1       5.230  -1.347   2.039  0.00  0.00     0.048 A 
ATOM     18  C   UNL d   1       4.854  -2.610   2.522  0.00  0.00     0.034 A 
ATOM     19  C   UNL d   1       5.657  -3.287   3.460  0.00  0.00     0.044 A 
ATOM     20  C   UNL d   1       6.819  -2.694   3.939  0.00  0.00     0.116 A 
ATOM     21  F   UNL d   1       7.586  -3.342   4.826  0.00  0.00    -0.206 F 
ATOM     22  C   UNL d   1       7.195  -1.434   3.505  0.00  0.00     0.044 A 
ATOM     23  C   UNL d   1       6.403  -0.771   2.562  0.00  0.00     0.034 A 
ENDBRANCH  15  17
ENDBRANCH   3  15
TORSDOF 7
