@<TRIPOS>MOLECULE
*****
 45 48 0 0 0
SMALL
GASTEIGER

@<TRIPOS>ATOM
      1 O           1.0712    0.0341    0.0733 O.2     1  UNL1       -0.2683
      2 C           2.2916   -0.0028    0.0726 C.2     1  UNL1        0.2655
      3 C           3.1262   -1.1489    0.0655 C.ar    1  UNL1        0.1262
      4 N           3.0485   -2.4910    0.0577 N.ar    1  UNL1       -0.2716
      5 N           4.2821   -3.0699    0.0126 N.ar    1  UNL1       -0.1727
      6 C           5.1539   -2.0343    0.0618 C.ar    1  UNL1        0.1020
      7 C           6.6011   -2.2094    0.1012 C.ar    1  UNL1        0.0438
      8 C           7.2630   -2.8802   -0.9370 C.ar    1  UNL1       -0.0490
      9 C           8.6563   -3.0071   -0.9234 C.ar    1  UNL1       -0.0609
     10 C           9.3959   -2.4826    0.1369 C.ar    1  UNL1       -0.0583
     11 C           8.7485   -1.8154    1.1793 C.ar    1  UNL1       -0.0195
     12 C           7.3592   -1.6691    1.1509 C.ar    1  UNL1        0.1261
     13 O           6.7204   -0.9866    2.1540 O.3     1  UNL1       -0.5061
     14 C           4.4478   -0.8249    0.0714 C.ar    1  UNL1        0.0350
     15 C           4.6269    0.6341    0.1182 C.3     1  UNL1        0.0837
     16 C           5.4391    1.0340   -1.0813 C.ar    1  UNL1        0.0127
     17 C           5.0100    0.8440   -2.4066 C.ar    1  UNL1       -0.0537
     18 C           5.7631    1.3443   -3.4707 C.ar    1  UNL1       -0.0613
     19 C           6.9444    2.0461   -3.2269 C.ar    1  UNL1       -0.0590
     20 C           7.3808    2.2422   -1.9194 C.ar    1  UNL1       -0.0261
     21 C           6.6346    1.7313   -0.8649 C.ar    1  UNL1        0.1287
     22 F           7.0350    1.9938    0.3886 F       1  UNL1       -0.2051
     23 N           3.1952    1.0768    0.0643 N.am    1  UNL1       -0.2849
     24 C           2.7735    2.4797    0.0701 C.3     1  UNL1        0.0180
     25 C           3.9160    3.4933    0.0819 C.3     1  UNL1       -0.0138
     26 C           3.4608    4.9386    0.0756 C.3     1  UNL1        0.0456
     27 O           4.6032    5.7905    0.0576 O.3     1  UNL1       -0.3950
     28 H           2.2265   -3.0865    0.0725 H       1  UNL1        0.1891
     29 H           6.6964   -3.2932   -1.7685 H       1  UNL1        0.0625
     30 H           9.1640   -3.5161   -1.7398 H       1  UNL1        0.0618
     31 H          10.4780   -2.5948    0.1479 H       1  UNL1        0.0619
     32 H           9.3413   -1.4174    1.9971 H       1  UNL1        0.0654
     33 H           7.3688   -0.6948    2.8133 H       1  UNL1        0.2922
     34 H           5.0470    0.9578    1.0748 H       1  UNL1        0.0603
     35 H           4.0749    0.3271   -2.6160 H       1  UNL1        0.0622
     36 H           5.4196    1.1972   -4.4921 H       1  UNL1        0.0618
     37 H           7.5201    2.4477   -4.0562 H       1  UNL1        0.0618
     38 H           8.2836    2.8065   -1.7107 H       1  UNL1        0.0646
     39 H           2.1268    2.6307    0.9427 H       1  UNL1        0.0466
     40 H           2.1428    2.6328   -0.8144 H       1  UNL1        0.0466
     41 H           4.5343    3.3711   -0.8094 H       1  UNL1        0.0302
     42 H           4.5690    3.3186    0.9459 H       1  UNL1        0.0302
     43 H           2.8618    5.1767    0.9570 H       1  UNL1        0.0557
     44 H           2.8765    5.1517   -0.8242 H       1  UNL1        0.0557
     45 H           5.1398    5.5922    0.8448 H       1  UNL1        0.2094
@<TRIPOS>BOND
     1     1     2    2
     2     2     3    1
     3     3     4   ar
     4     4     5   ar
     5     5     6   ar
     6     6     7    1
     7     7     8   ar
     8     8     9   ar
     9     9    10   ar
    10    10    11   ar
    11    11    12   ar
    12     7    12   ar
    13    12    13    1
    14     6    14   ar
    15     3    14   ar
    16    14    15    1
    17    16    17   ar
    18    17    18   ar
    19    18    19   ar
    20    19    20   ar
    21    20    21   ar
    22    16    21   ar
    23    21    22    1
    24    15    23    1
    25     2    23   am
    26    23    24    1
    27    24    25    1
    28    25    26    1
    29    26    27    1
    30    15    16    1
    31     4    28    1
    32     8    29    1
    33     9    30    1
    34    10    31    1
    35    11    32    1
    36    13    33    1
    37    15    34    1
    38    17    35    1
    39    18    36    1
    40    19    37    1
    41    20    38    1
    42    24    39    1
    43    24    40    1
    44    25    41    1
    45    25    42    1
    46    26    43    1
    47    26    44    1
    48    27    45    1
