@<TRIPOS>MOLECULE
*****
 43 45 0 0 0
SMALL
GASTEIGER

@<TRIPOS>ATOM
      1 C           1.0354   -0.0839   -0.0547 C.3     1  UNL1       -0.0203
      2 C           2.5587   -0.0869   -0.0579 C.2     1  UNL1        0.0635
      3 N           3.1791   -0.7862   -0.9690 N.2     1  UNL1       -0.1845
      4 N           4.5617   -0.8419   -1.0145 N.am    1  UNL1       -0.2039
      5 C           5.1976   -1.5446   -2.0403 C.2     1  UNL1        0.2698
      6 O           4.5828   -2.1575   -2.9187 O.2     1  UNL1       -0.2703
      7 C           6.7480   -1.5010   -1.9957 C.3     1  UNL1        0.1668
      8 O           7.2694   -2.2136   -3.1220 O.3     1  UNL1       -0.4827
      9 C           8.6139   -2.4234   -3.2413 C.ar    1  UNL1        0.1218
     10 C           9.4931   -2.6685   -2.1932 C.ar    1  UNL1       -0.0193
     11 C          10.8296   -3.0064   -2.4641 C.ar    1  UNL1       -0.0506
     12 C          11.3047   -3.1235   -3.7826 C.ar    1  UNL1       -0.0177
     13 C          12.6271   -3.5182   -4.0610 C.ar    1  UNL1       -0.0540
     14 C          13.0804   -3.6359   -5.3765 C.ar    1  UNL1       -0.0612
     15 C          12.2186   -3.3564   -6.4317 C.ar    1  UNL1       -0.0612
     16 C          10.9013   -2.9667   -6.1717 C.ar    1  UNL1       -0.0539
     17 C          10.4238   -2.8551   -4.8508 C.ar    1  UNL1       -0.0144
     18 C           9.0879   -2.5067   -4.5595 C.ar    1  UNL1       -0.0122
     19 C           3.2058    0.7757    0.9612 C.ar    1  UNL1        0.0009
     20 C           2.8588    0.7106    2.3147 C.ar    1  UNL1       -0.0526
     21 C           3.5117    1.5434    3.2303 C.ar    1  UNL1       -0.0577
     22 C           4.5160    2.4178    2.7987 C.ar    1  UNL1       -0.0201
     23 C           4.8498    2.4629    1.4500 C.ar    1  UNL1        0.1175
     24 O           5.8446    3.2532    0.9616 O.3     1  UNL1       -0.5067
     25 C           4.1788    1.6769    0.5295 C.ar    1  UNL1       -0.0113
     26 H           0.6402   -0.6793   -0.8831 H       1  UNL1        0.0293
     27 H           0.6642    0.9415   -0.1656 H       1  UNL1        0.0293
     28 H           0.6434   -0.4962    0.8797 H       1  UNL1        0.0293
     29 H           5.1028   -0.3853   -0.2909 H       1  UNL1        0.1773
     30 H           7.0751   -1.9387   -1.0470 H       1  UNL1        0.0795
     31 H           7.0746   -0.4565   -2.0628 H       1  UNL1        0.0795
     32 H           9.1670   -2.6592   -1.1600 H       1  UNL1        0.0654
     33 H          11.5013   -3.2070   -1.6316 H       1  UNL1        0.0625
     34 H          13.3133   -3.7519   -3.2500 H       1  UNL1        0.0624
     35 H          14.1030   -3.9477   -5.5751 H       1  UNL1        0.0618
     36 H          12.5676   -3.4495   -7.4574 H       1  UNL1        0.0618
     37 H          10.2430   -2.7595   -7.0128 H       1  UNL1        0.0624
     38 H           8.3908   -2.3158   -5.3737 H       1  UNL1        0.0660
     39 H           2.1005    0.0174    2.6725 H       1  UNL1        0.0624
     40 H           3.2433    1.5051    4.2845 H       1  UNL1        0.0619
     41 H           5.0179    3.0522    3.5228 H       1  UNL1        0.0654
     42 H           6.2301    3.7750    1.6833 H       1  UNL1        0.2921
     43 H           4.4252    1.7606   -0.5256 H       1  UNL1        0.0660
@<TRIPOS>BOND
     1     1     2    1
     2     2     3    2
     3     3     4    1
     4     4     5   am
     5     5     6    2
     6     5     7    1
     7     7     8    1
     8     8     9    1
     9     9    10   ar
    10    10    11   ar
    11    11    12   ar
    12    12    13   ar
    13    13    14   ar
    14    14    15   ar
    15    15    16   ar
    16    16    17   ar
    17    12    17   ar
    18    17    18   ar
    19     9    18   ar
    20     2    19    1
    21    19    20   ar
    22    20    21   ar
    23    21    22   ar
    24    22    23   ar
    25    23    24    1
    26    23    25   ar
    27    19    25   ar
    28     1    26    1
    29     1    27    1
    30     1    28    1
    31     4    29    1
    32     7    30    1
    33     7    31    1
    34    10    32    1
    35    11    33    1
    36    13    34    1
    37    14    35    1
    38    15    36    1
    39    16    37    1
    40    18    38    1
    41    20    39    1
    42    21    40    1
    43    22    41    1
    44    24    42    1
    45    25    43    1
