REMARK  7 active torsions:
REMARK  status: ('A' for Active; 'I' for Inactive)
REMARK    1  A    between atoms: C_2  and  C_4 
REMARK    2  A    between atoms: C_4  and  C_5 
REMARK    3  A    between atoms: C_5  and  N_6 
REMARK       I    between atoms: N_6  and  C_7 
REMARK       I    between atoms: C_7  and  N_9 
REMARK    4  A    between atoms: N_9  and  N_10 
REMARK       I    between atoms: N_10  and  C_11 
REMARK    5  A    between atoms: C_11  and  C_13 
REMARK    6  A    between atoms: C_14  and  C_15 
REMARK    7  A    between atoms: C_20  and  N_21 
ROOT
ATOM      1  N   UNL d   1       8.387   4.339   2.034  0.00  0.00    -0.263 N 
ATOM      2  C   UNL d   1       8.760   5.536   2.632  0.00  0.00     0.259 C 
ATOM      3  O   UNL d   1       7.955   6.414   2.938  0.00  0.00    -0.267 OA
ATOM      4  H   UNL d   1       9.042   3.637   1.693  0.00  0.00     0.190 HD
ENDROOT
BRANCH   1   5
ATOM      5  N   UNL d   1       7.000   4.044   1.841  0.00  0.00    -0.249 N 
ATOM      6  C   UNL d   1       6.617   2.817   1.323  0.00  0.00     0.334 C 
ATOM      7  N   UNL d   1       5.248   2.619   1.263  0.00  0.00    -0.342 N 
ATOM      8  O   UNL d   1       7.433   1.972   0.957  0.00  0.00    -0.246 OA
ATOM      9  H   UNL d   1       4.619   3.360   1.535  0.00  0.00     0.164 HD
ATOM     10  H   UNL d   1       6.348   4.756   2.154  0.00  0.00     0.192 HD
BRANCH   7  11
ATOM     11  C   UNL d   1       4.693   1.387   0.701  0.00  0.00     0.125 C 
BRANCH  11  12
ATOM     12  C   UNL d   1       3.155   1.329   0.660  0.00  0.00     0.023 C 
BRANCH  12  13
ATOM     13  C   UNL d   1       2.609   0.007   0.061  0.00  0.00    -0.021 C 
ATOM     14  C   UNL d   1       1.076  -0.012   0.083  0.00  0.00     0.009 C 
ATOM     15  C   UNL d   1       3.085  -0.206  -1.377  0.00  0.00     0.009 C 
ENDBRANCH  12  13
ENDBRANCH  11  12
ENDBRANCH   7  11
ENDBRANCH   1   5
BRANCH   2  16
ATOM     16  C   UNL d   1      10.234   5.694   2.870  0.00  0.00     0.076 C 
ATOM     17  C   UNL d   1      10.793   6.868   3.235  0.00  0.00     0.019 C 
BRANCH  17  18
ATOM     18  C   UNL d   1      12.257   7.152   3.209  0.00  0.00    -0.003 A 
ATOM     19  C   UNL d   1      12.810   7.812   4.336  0.00  0.00     0.014 A 
ATOM     20  C   UNL d   1      14.156   8.222   4.373  0.00  0.00     0.001 A 
ATOM     21  C   UNL d   1      15.004   7.931   3.314  0.00  0.00     0.002 A 
ATOM     22  C   UNL d   1      14.493   7.286   2.192  0.00  0.00     0.037 A 
ATOM     23  C   UNL d   1      13.130   6.915   2.118  0.00  0.00     0.113 A 
BRANCH  23  24
ATOM     24  N   UNL d   1      12.710   6.302   0.837  0.00  0.00    -0.115 N 
ATOM     25  O   UNL d   1      13.603   5.924   0.069  0.00  0.00    -0.532 OA
ATOM     26  O   UNL d   1      11.505   6.197   0.571  0.00  0.00    -0.532 OA
ENDBRANCH  23  24
ENDBRANCH  17  18
ENDBRANCH   2  16
TORSDOF 7
