REMARK  8 active torsions:
REMARK  status: ('A' for Active; 'I' for Inactive)
REMARK    1  A    between atoms: O_2  and  C_3 
REMARK    2  A    between atoms: C_6  and  C_7 
REMARK       I    between atoms: C_7  and  N_9 
REMARK    3  A    between atoms: N_9  and  C_10 
REMARK    4  A    between atoms: C_10  and  N_12 
REMARK    5  A    between atoms: N_12  and  C_13 
REMARK    6  A    between atoms: C_16  and  N_17 
REMARK       I    between atoms: N_17  and  C_18 
REMARK    7  A    between atoms: C_18  and  C_20 
REMARK    8  A    between atoms: C_30  and  O_31 
ROOT
ATOM      1  N   UNL d   1       5.276   2.633  -8.068  0.00  0.00    -0.333 N 
ATOM      2  H   UNL d   1       4.598   3.323  -7.773  0.00  0.00     0.168 HD
ENDROOT
BRANCH   1   3
ATOM      3  C   UNL d   1       5.826   1.712  -7.130  0.00  0.00     0.179 C 
ATOM      4  S   UNL d   1       7.303   0.917  -7.382  0.00  0.00    -0.040 SA
BRANCH   3   5
ATOM      5  N   UNL d   1       5.070   1.553  -5.939  0.00  0.00    -0.299 N 
ATOM      6  C   UNL d   1       5.409   0.670  -4.878  0.00  0.00     0.257 C 
ATOM      7  O   UNL d   1       6.355  -0.112  -4.906  0.00  0.00    -0.267 OA
ATOM      8  H   UNL d   1       4.237   2.111  -5.842  0.00  0.00     0.171 HD
BRANCH   6   9
ATOM      9  C   UNL d   1       4.596   0.560  -3.629  0.00  0.00     0.035 A 
ATOM     10  C   UNL d   1       4.982  -0.397  -2.668  0.00  0.00     0.020 A 
ATOM     11  C   UNL d   1       4.201  -0.653  -1.528  0.00  0.00     0.040 A 
ATOM     12  C   UNL d   1       3.042   0.095  -1.257  0.00  0.00     0.101 A 
ATOM     13  C   UNL d   1       2.699   1.107  -2.187  0.00  0.00     0.102 A 
ATOM     14  C   UNL d   1       3.467   1.311  -3.361  0.00  0.00     0.056 A 
BRANCH  12  15
ATOM     15  O   UNL d   1       2.563  -0.097   0.022  0.00  0.00    -0.353 OA
ATOM     16  C   UNL d   1       1.219  -0.517   0.265  0.00  0.00     0.210 C 
ENDBRANCH  12  15
BRANCH  13  17
ATOM     17  O   UNL d   1       1.714   2.064  -2.163  0.00  0.00    -0.353 OA
ATOM     18  C   UNL d   1       0.749   1.904  -1.165  0.00  0.00     0.210 C 
ENDBRANCH  13  17
ENDBRANCH   6   9
ENDBRANCH   3   5
ENDBRANCH   1   3
BRANCH   1  19
ATOM     19  C   UNL d   1       5.816   2.822  -9.393  0.00  0.00     0.034 A 
ATOM     20  C   UNL d   1       6.037   4.075  -9.985  0.00  0.00     0.032 A 
ATOM     21  C   UNL d   1       6.626   4.173 -11.285  0.00  0.00     0.032 A 
ATOM     22  C   UNL d   1       7.043   3.025 -11.981  0.00  0.00     0.035 A 
ATOM     23  C   UNL d   1       6.761   1.801 -11.392  0.00  0.00     0.032 A 
ATOM     24  C   UNL d   1       6.135   1.704 -10.154  0.00  0.00     0.032 A 
BRANCH  22  25
ATOM     25  N   UNL d   1       7.739   3.105 -13.226  0.00  0.00    -0.323 N 
ATOM     26  C   UNL d   1       8.204   1.987 -13.937  0.00  0.00     0.256 C 
ATOM     27  O   UNL d   1       8.081   0.816 -13.631  0.00  0.00    -0.267 OA
ATOM     28  H   UNL d   1       7.915   4.025 -13.605  0.00  0.00     0.169 HD
BRANCH  26  29
ATOM     29  C   UNL d   1       8.943   2.213 -15.202  0.00  0.00     0.032 A 
ATOM     30  C   UNL d   1       8.725   1.301 -16.250  0.00  0.00     0.017 A 
ATOM     31  C   UNL d   1       9.550   1.304 -17.372  0.00  0.00     0.002 A 
ATOM     32  C   UNL d   1      10.562   2.255 -17.478  0.00  0.00     0.007 A 
ATOM     33  C   UNL d   1      10.791   3.165 -16.437  0.00  0.00    -0.061 A 
ATOM     34  C   UNL d   1      11.943   4.121 -16.507  0.00  0.00     0.048 C 
ATOM     35  C   UNL d   1       9.979   3.139 -15.291  0.00  0.00     0.023 A 
ENDBRANCH  26  29
ENDBRANCH  22  25
ENDBRANCH   1  19
TORSDOF 8
