REMARK  8 active torsions:
REMARK  status: ('A' for Active; 'I' for Inactive)
REMARK    1  A    between atoms: C_2  and  N_3 
REMARK    2  A    between atoms: N_6  and  C_7 
REMARK    3  A    between atoms: C_10  and  C_11 
REMARK    4  A    between atoms: C_11  and  O_13 
REMARK    5  A    between atoms: C_16  and  N_17 
REMARK    6  A    between atoms: N_17  and  C_18 
REMARK    7  A    between atoms: C_18  and  N_20 
REMARK       I    between atoms: N_20  and  C_21 
REMARK    8  A    between atoms: C_21  and  C_23 
ROOT
ATOM      1  C   UNL d   1       0.998  -3.644   3.688  0.00  0.00     0.052 C 
ATOM      2  C   UNL d   1       1.140  -4.981   4.130  0.00  0.00     0.032 C 
ATOM      3  C   UNL d   1       0.044  -5.846   4.352  0.00  0.00     0.020 C 
ATOM      4  C   UNL d   1      -1.268  -5.406   4.171  0.00  0.00     0.041 C 
ATOM      5  C   UNL d   1      -1.460  -4.072   3.786  0.00  0.00     0.043 C 
ATOM      6  C   UNL d   1      -0.362  -3.147   3.651  0.00  0.00     0.042 C 
ENDROOT
BRANCH   6   7
ATOM      7  N   UNL d   1      -0.771  -1.728   3.348  0.00  0.00    -0.234 NA
ATOM      8  H   UNL d   1      -1.776  -1.791   3.155  0.00  0.00     0.136 HD
BRANCH   7   9
ATOM      9  C   UNL d   1      -0.264  -1.114   2.217  0.00  0.00     0.157 C 
ATOM     10  S   UNL d   1      -0.407  -2.107   0.862  0.00  0.00    -0.046 SA
BRANCH   9  11
ATOM     11  N   UNL d   1      -0.052   0.419   2.326  0.00  0.00    -0.304 N 
ATOM     12  C   UNL d   1       0.999   1.480   1.897  0.00  0.00     0.259 C 
ATOM     13  O   UNL d   1       2.214   1.522   2.098  0.00  0.00    -0.267 OA
ATOM     14  H   UNL d   1      -0.945   0.814   2.070  0.00  0.00     0.171 HD
BRANCH  12  15
ATOM     15  C   UNL d   1       0.738   2.725   1.186  0.00  0.00     0.055 A 
ATOM     16  C   UNL d   1       1.694   3.179   0.205  0.00  0.00     0.042 A 
ATOM     17  C   UNL d   1       1.714   4.495  -0.216  0.00  0.00     0.035 A 
ATOM     18 CL   UNL d   1       2.966   5.067  -1.252  0.00  0.00    -0.084 Cl
ATOM     19  C   UNL d   1       0.750   5.347   0.284  0.00  0.00     0.025 A 
ATOM     20  C   UNL d   1      -0.151   4.910   1.274  0.00  0.00     0.026 A 
ATOM     21  C   UNL d   1      -0.144   3.608   1.751  0.00  0.00     0.049 A 
ATOM     22 CL   UNL d   1      -1.150   3.169   3.076  0.00  0.00    -0.083 Cl
ENDBRANCH  12  15
ENDBRANCH   9  11
ENDBRANCH   7   9
ENDBRANCH   6   7
BRANCH   1  23
ATOM     23  N   UNL d   1       2.162  -2.974   3.292  0.00  0.00    -0.376 N 
ATOM     24  C   UNL d   1       2.482  -1.660   3.773  0.00  0.00     0.150 C 
ATOM     25  C   UNL d   1       2.645  -0.717   2.588  0.00  0.00     0.254 C 
ATOM     26  N   UNL d   1       3.191  -1.051   1.190  0.00  0.00    -0.068 N 
ATOM     27  C   UNL d   1       3.121  -2.551   0.929  0.00  0.00     0.254 C 
ATOM     28  H   UNL d   1       4.169  -0.747   1.268  0.00  0.00     0.280 HD
ATOM     29  C   UNL d   1       3.134  -3.417   2.243  0.00  0.00     0.150 C 
BRANCH  26  30
ATOM     30  C   UNL d   1       2.698  -0.220  -0.125  0.00  0.00     0.230 C 
ATOM     31  C   UNL d   1       1.219  -0.070  -0.550  0.00  0.00     0.034 C 
ENDBRANCH  26  30
ENDBRANCH   1  23
BRANCH   4  32
ATOM     32  C   UNL d   1      -2.389  -6.360   4.533  0.00  0.00     0.293 C 
ATOM     33  O   UNL d   1      -2.193  -7.444   5.003  0.00  0.00    -0.259 OA
BRANCH  32  34
ATOM     34  O   UNL d   1      -3.623  -5.797   4.326  0.00  0.00    -0.323 OA
ATOM     35  C   UNL d   1      -4.717  -6.629   4.759  0.00  0.00     0.213 C 
ENDBRANCH  32  34
ENDBRANCH   4  32
TORSDOF 8
