REMARK  6 active torsions:
REMARK  status: ('A' for Active; 'I' for Inactive)
REMARK    1  A    between atoms: N_7  and  C_8 
REMARK    2  A    between atoms: C_11  and  C_12 
REMARK       I    between atoms: C_12  and  N_14 
REMARK       I    between atoms: C_15  and  N_16 
REMARK       I    between atoms: C_15  and  N_28 
REMARK    3  A    between atoms: N_16  and  C_17 
REMARK    4  A    between atoms: C_17  and  C_18 
REMARK    5  A    between atoms: C_18  and  C_19 
REMARK    6  A    between atoms: N_28  and  C_29 
ROOT
ATOM      1  C   UNL d   1       1.615  -6.680  -0.173  0.00  0.00     0.293 C 
ATOM      2  O   UNL d   1       1.986  -7.392   0.747  0.00  0.00    -0.265 OA
ATOM      3  N   UNL d   1       0.795  -7.090  -1.210  0.00  0.00    -0.023 NA
ATOM      4  C   UNL d   1       0.302  -8.298  -1.191  0.00  0.00     0.704 C 
ATOM      5  N   UNL d   1      -0.528  -8.695  -2.210  0.00  0.00    -0.224 N 
ATOM      6  N   UNL d   1       0.480  -9.234  -0.201  0.00  0.00    -0.190 N 
ATOM      7  H   UNL d   1      -1.020  -9.571  -2.083  0.00  0.00     0.177 HD
ATOM      8  H   UNL d   1       1.113  -8.927   0.545  0.00  0.00     0.184 HD
ENDROOT
BRANCH   5   9
ATOM      9  C   UNL d   1      -0.974  -7.819  -3.262  0.00  0.00     0.142 C 
BRANCH   9  10
ATOM     10  C   UNL d   1      -1.897  -8.554  -4.219  0.00  0.00     0.057 C 
BRANCH  10  11
ATOM     11  C   UNL d   1      -2.442  -7.747  -5.356  0.00  0.00    -0.048 C 
ATOM     12  C   UNL d   1      -3.157  -8.326  -6.319  0.00  0.00    -0.006 C 
ATOM     13  C   UNL d   1      -3.517  -9.683  -6.519  0.00  0.00     0.014 C 
ATOM     14  C   UNL d   1      -3.491  -7.271  -7.280  0.00  0.00     0.038 C 
ATOM     15  C   UNL d   1      -4.027 -10.024  -7.706  0.00  0.00     0.001 C 
ATOM     16  C   UNL d   1      -4.380  -9.013  -8.693  0.00  0.00     0.002 C 
ATOM     17  C   UNL d   1      -4.171  -7.690  -8.523  0.00  0.00     0.030 C 
ATOM     18  N   UNL d   1      -3.092  -6.125  -6.875  0.00  0.00    -0.385 N 
ATOM     19  C   UNL d   1      -2.257  -6.283  -5.644  0.00  0.00     0.155 C 
ATOM     20  H   UNL d   1      -3.327  -5.258  -7.358  0.00  0.00     0.160 HD
ENDBRANCH  10  11
ENDBRANCH   9  10
ENDBRANCH   5   9
BRANCH   6  21
ATOM     21  C   UNL d   1       0.227 -10.617  -0.166  0.00  0.00     0.049 A 
ATOM     22  C   UNL d   1      -0.150 -11.214   1.049  0.00  0.00     0.033 A 
ATOM     23  C   UNL d   1      -0.445 -12.579   1.112  0.00  0.00     0.044 A 
ATOM     24  C   UNL d   1      -0.438 -13.335  -0.053  0.00  0.00     0.116 A 
ATOM     25  F   UNL d   1      -0.801 -14.623  -0.013  0.00  0.00    -0.206 F 
ATOM     26  C   UNL d   1      -0.070 -12.769  -1.264  0.00  0.00     0.044 A 
ATOM     27  C   UNL d   1       0.288 -11.423  -1.311  0.00  0.00     0.033 A 
ENDBRANCH   6  21
BRANCH   1  28
ATOM     28  C   UNL d   1       2.041  -5.239  -0.183  0.00  0.00     0.035 A 
ATOM     29  C   UNL d   1       2.849  -4.771   0.867  0.00  0.00     0.019 A 
ATOM     30  C   UNL d   1       3.172  -3.416   0.969  0.00  0.00     0.031 A 
ATOM     31  C   UNL d   1       2.751  -2.528  -0.023  0.00  0.00     0.039 A 
ATOM     32  C   UNL d   1       1.972  -2.983  -1.092  0.00  0.00     0.031 A 
ATOM     33  C   UNL d   1       1.619  -4.338  -1.171  0.00  0.00     0.019 A 
BRANCH  31  34
ATOM     34  N   UNL d   1       3.200  -1.181   0.004  0.00  0.00    -0.320 N 
ATOM     35  C   UNL d   1       4.531  -0.781   0.037  0.00  0.00     0.013 A 
ATOM     36  C   UNL d   1       4.567   0.599   0.003  0.00  0.00     0.027 A 
ATOM     37  C   UNL d   1       5.687  -1.720   0.007  0.00  0.00     0.068 C 
ATOM     38  C   UNL d   1       3.239   1.061  -0.042  0.00  0.00     0.027 A 
ATOM     39  C   UNL d   1       2.407  -0.043  -0.058  0.00  0.00     0.013 A 
ATOM     40  C   UNL d   1       0.920  -0.068  -0.032  0.00  0.00     0.068 C 
ENDBRANCH  31  34
ENDBRANCH   1  28
TORSDOF 6
