REMARK  5 active torsions:
REMARK  status: ('A' for Active; 'I' for Inactive)
REMARK       I    between atoms: C_2  and  N_3 
REMARK       I    between atoms: C_2  and  N_12 
REMARK    1  A    between atoms: N_3  and  O_4 
REMARK    2  A    between atoms: O_4  and  C_5 
REMARK    3  A    between atoms: C_5  and  C_6 
REMARK    4  A    between atoms: N_12  and  C_13 
REMARK    5  A    between atoms: C_15  and  C_16 
ROOT
ATOM      1  O   UNL d   1       1.094   0.117  -0.105  0.00  0.00    -0.245 OA
ATOM      2  C   UNL d   1       2.323   0.085  -0.022  0.00  0.00     0.340 C 
ATOM      3  N   UNL d   1       3.021  -0.397   1.045  0.00  0.00    -0.216 N 
ATOM      4  N   UNL d   1       3.091   0.588  -1.051  0.00  0.00    -0.336 N 
ATOM      5  H   UNL d   1       4.026  -0.462   1.050  0.00  0.00     0.199 HD
ATOM      6  H   UNL d   1       2.532   0.894  -1.841  0.00  0.00     0.164 HD
ENDROOT
BRANCH   3   7
ATOM      7  O   UNL d   1       2.306  -0.883   2.165  0.00  0.00    -0.272 OA
BRANCH   7   8
ATOM      8  C   UNL d   1       3.239  -1.319   3.153  0.00  0.00     0.240 C 
BRANCH   8   9
ATOM      9  C   UNL d   1       2.552  -1.875   4.372  0.00  0.00    -0.032 A 
ATOM     10  C   UNL d   1       1.971  -1.023   5.321  0.00  0.00     0.009 A 
ATOM     11  C   UNL d   1       1.515  -1.535   6.538  0.00  0.00     0.001 A 
ATOM     12  C   UNL d   1       1.549  -2.908   6.777  0.00  0.00     0.000 A 
ATOM     13  C   UNL d   1       2.066  -3.769   5.812  0.00  0.00     0.001 A 
ATOM     14  C   UNL d   1       2.568  -3.255   4.617  0.00  0.00     0.009 A 
ENDBRANCH   8   9
ENDBRANCH   7   8
ENDBRANCH   3   7
BRANCH   4  15
ATOM     15  C   UNL d   1       4.523   0.602  -1.133  0.00  0.00     0.095 A 
ATOM     16  C   UNL d   1       5.314   1.207  -2.257  0.00  0.00     0.037 A 
ATOM     17  C   UNL d   1       5.249  -0.297  -2.118  0.00  0.00     0.043 A 
BRANCH  17  18
ATOM     18  C   UNL d   1       4.472  -1.131  -3.120  0.00  0.00    -0.049 A 
ATOM     19  C   UNL d   1       4.561  -2.537  -3.136  0.00  0.00     0.008 A 
ATOM     20  C   UNL d   1       3.889  -3.299  -4.102  0.00  0.00     0.004 A 
ATOM     21  C   UNL d   1       3.050  -2.675  -5.021  0.00  0.00     0.042 A 
ATOM     22  C   UNL d   1       2.936  -1.297  -5.005  0.00  0.00     0.116 A 
ATOM     23  F   UNL d   1       2.152  -0.673  -5.893  0.00  0.00    -0.206 F 
ATOM     24  C   UNL d   1       3.641  -0.539  -4.085  0.00  0.00     0.049 A 
ENDBRANCH  17  18
ENDBRANCH   4  15
TORSDOF 5
