REMARK  6 active torsions:
REMARK  status: ('A' for Active; 'I' for Inactive)
REMARK    1  A    between atoms: C_4  and  N_5 
REMARK       I    between atoms: N_5  and  C_6 
REMARK    2  A    between atoms: C_6  and  C_8 
REMARK       I    between atoms: C_8  and  N_10 
REMARK    3  A    between atoms: N_10  and  C_11 
REMARK    4  A    between atoms: C_11  and  C_12 
REMARK    5  A    between atoms: C_20  and  C_21 
REMARK       I    between atoms: C_21  and  N_23 
REMARK    6  A    between atoms: N_23  and  C_24 
ROOT
ATOM      1  N   UNL d   1      -1.954  -2.421   0.007  0.00  0.00    -0.319 N 
ATOM      2  C   UNL d   1      -3.344  -2.514   0.005  0.00  0.00     0.313 C 
ATOM      3  O   UNL d   1      -4.159  -1.595  -0.004  0.00  0.00    -0.262 OA
ATOM      4  H   UNL d   1      -1.453  -3.305   0.017  0.00  0.00     0.169 HD
ENDROOT
BRANCH   1   5
ATOM      5  C   UNL d   1      -1.200  -1.212   0.003  0.00  0.00     0.035 A 
ATOM      6  C   UNL d   1       0.203  -1.253   0.006  0.00  0.00     0.037 A 
ATOM      7  C   UNL d   1       0.996  -0.067  -0.003  0.00  0.00    -0.044 A 
ATOM      8  C   UNL d   1       2.486  -0.233  -0.012  0.00  0.00     0.049 C 
ATOM      9  C   UNL d   1       0.372   1.201  -0.013  0.00  0.00     0.038 A 
ATOM     10  C   UNL d   1      -1.032   1.224  -0.006  0.00  0.00     0.020 A 
ATOM     11  C   UNL d   1      -1.795   0.047  -0.006  0.00  0.00     0.030 A 
BRANCH   9  12
ATOM     12  C   UNL d   1       1.045   2.563  -0.046  0.00  0.00     0.252 C 
ATOM     13  O   UNL d   1       0.347   3.574  -0.087  0.00  0.00    -0.268 OA
ATOM     14  N   UNL d   1       2.423   2.644  -0.021  0.00  0.00    -0.353 N 
ATOM     15  H   UNL d   1       2.998   1.835  -0.002  0.00  0.00     0.163 HD
BRANCH  14  16
ATOM     16  C   UNL d   1       3.196   3.872   0.008  0.00  0.00     0.076 C 
ATOM     17  C   UNL d   1       2.878   4.663   1.267  0.00  0.00     0.032 C 
ATOM     18  C   UNL d   1       4.695   3.535  -0.014  0.00  0.00     0.032 C 
ENDBRANCH  14  16
ENDBRANCH   9  12
ENDBRANCH   1   5
BRANCH   2  19
ATOM     19  C   UNL d   1      -3.942  -3.957   0.015  0.00  0.00     0.309 C 
ATOM     20  O   UNL d   1      -3.223  -4.947   0.028  0.00  0.00    -0.262 OA
ATOM     21  N   UNL d   1      -5.316  -3.938   0.010  0.00  0.00    -0.348 N 
ATOM     22  H   UNL d   1      -5.675  -2.998   0.001  0.00  0.00     0.163 HD
BRANCH  21  23
ATOM     23  C   UNL d   1      -6.222  -5.072   0.019  0.00  0.00     0.169 C 
BRANCH  23  24
ATOM     24  C   UNL d   1      -7.699  -4.678   0.009  0.00  0.00     0.006 A 
ATOM     25  S   UNL d   1      -8.874  -5.956  -0.003  0.00  0.00    -0.104 SA
ATOM     26  C   UNL d   1     -10.193  -4.871  -0.015  0.00  0.00     0.051 A 
ATOM     27  C   UNL d   1      -9.770  -3.566  -0.005  0.00  0.00     0.015 A 
ATOM     28  C   UNL d   1      -8.342  -3.441   0.009  0.00  0.00    -0.047 A 
ATOM     29  C   UNL d   1      -7.686  -2.106   0.021  0.00  0.00     0.049 C 
ENDBRANCH  23  24
ENDBRANCH  21  23
ENDBRANCH   2  19
TORSDOF 6
