REMARK  4 active torsions:
REMARK  status: ('A' for Active; 'I' for Inactive)
REMARK    1  A    between atoms: O_2  and  C_3 
REMARK    2  A    between atoms: C_6  and  N_7 
REMARK       I    between atoms: N_7  and  C_8 
REMARK       I    between atoms: C_8  and  N_10 
REMARK    3  A    between atoms: N_10  and  C_11 
REMARK    4  A    between atoms: C_14  and  O_15 
ROOT
ATOM      1  N   UNL d   1       5.419   1.942   4.393  0.00  0.00    -0.309 N 
ATOM      2  C   UNL d   1       4.934   1.817   5.691  0.00  0.00     0.325 C 
ATOM      3  O   UNL d   1       3.858   1.277   5.967  0.00  0.00    -0.247 OA
ATOM      4  N   UNL d   1       5.712   2.354   6.709  0.00  0.00    -0.309 N 
ATOM      5  H   UNL d   1       6.282   2.442   4.232  0.00  0.00     0.170 HD
ATOM      6  H   UNL d   1       6.396   3.065   6.502  0.00  0.00     0.170 HD
ENDROOT
BRANCH   1   7
ATOM      7  C   UNL d   1       4.698   1.483   3.232  0.00  0.00     0.036 A 
ATOM      8  C   UNL d   1       5.161   1.720   1.931  0.00  0.00     0.032 A 
ATOM      9  C   UNL d   1       4.377   1.348   0.808  0.00  0.00     0.039 A 
ATOM     10  C   UNL d   1       3.153   0.685   0.962  0.00  0.00     0.068 A 
ATOM     11  C   UNL d   1       2.716   0.415   2.243  0.00  0.00     0.039 A 
ATOM     12  C   UNL d   1       3.481   0.800   3.342  0.00  0.00     0.032 A 
BRANCH  10  13
ATOM     13  O   UNL d   1       2.513   0.259  -0.169  0.00  0.00    -0.356 OA
ATOM     14  C   UNL d   1       1.093   0.121  -0.077  0.00  0.00     0.210 C 
ENDBRANCH  10  13
ENDBRANCH   1   7
BRANCH   4  15
ATOM     15  C   UNL d   1       5.315   2.176   8.078  0.00  0.00     0.037 A 
ATOM     16  C   UNL d   1       5.437   3.173   9.037  0.00  0.00     0.032 A 
ATOM     17  C   UNL d   1       5.075   2.903  10.378  0.00  0.00     0.039 A 
ATOM     18  C   UNL d   1       4.559   1.653  10.794  0.00  0.00     0.074 A 
ATOM     19  C   UNL d   1       4.459   0.638   9.841  0.00  0.00    -0.026 A 
ATOM     20  C   UNL d   1       4.056  -0.797  10.032  0.00  0.00     0.051 C 
ATOM     21  C   UNL d   1       4.821   0.936   8.504  0.00  0.00     0.039 A 
BRANCH  18  22
ATOM     22  O   UNL d   1       4.219   1.627  12.124  0.00  0.00    -0.355 OA
ATOM     23  C   UNL d   1       3.574   0.477  12.650  0.00  0.00     0.210 C 
ENDBRANCH  18  22
ENDBRANCH   4  15
TORSDOF 4
