@<TRIPOS>MOLECULE
*****
 64 68 0 0 0
SMALL
GASTEIGER

@<TRIPOS>ATOM
      1 C           0.9689    0.1436   -0.0585 C.3     1  UNL1        0.0817
      2 O           2.4053    0.2309   -0.0394 O.3     1  UNL1       -0.4666
      3 C           2.9894    1.0124   -0.9956 C.2     1  UNL1        0.3278
      4 O           2.3658    1.7039   -1.7953 O.2     1  UNL1       -0.2487
      5 C           4.5399    0.9336   -0.9432 C.3     1  UNL1        0.1279
      6 C           5.0202   -0.4966   -1.2097 C.3     1  UNL1        0.0415
      7 C           4.6800   -1.5137   -0.1908 C.ar    1  UNL1        0.1436
      8 C           4.8640   -2.8732   -0.2424 C.ar    1  UNL1        0.1313
      9 N           4.4106   -3.3892    0.9473 N.ar    1  UNL1       -0.2498
     10 C           3.9369   -2.4198    1.7302 C.ar    1  UNL1        0.2425
     11 N           4.1041   -1.2828    1.0527 N.ar    1  UNL1       -0.2473
     12 N           5.1366    1.8620   -1.9385 N.am    1  UNL1       -0.2992
     13 C           6.5120    2.0228   -2.0521 C.2     1  UNL1        0.2513
     14 O           7.2732    1.3987   -1.3141 O.2     1  UNL1       -0.2721
     15 C           7.0100    2.9930   -3.1392 C.3     1  UNL1        0.1652
     16 O           8.4444    2.9587   -3.2042 O.3     1  UNL1       -0.4825
     17 C           9.0163    3.8462   -4.0774 C.ar    1  UNL1        0.1282
     18 C           8.6235    5.1793   -4.1605 C.ar    1  UNL1        0.0225
     19 C           9.2419    6.0321   -5.0732 C.ar    1  UNL1        0.1343
     20 O           8.8258    7.3303   -5.1390 O.3     1  UNL1       -0.5058
     21 C          10.2733    5.5703   -5.9012 C.ar    1  UNL1        0.1012
     22 C          10.7012    4.2464   -5.7878 C.ar    1  UNL1        0.1380
     23 C          10.0886    3.3936   -4.8568 C.ar    1  UNL1        0.0227
     24 O          11.7351    3.7122   -6.5103 O.3     1  UNL1       -0.4900
     25 C          11.9848    4.3716   -7.7555 C.3     1  UNL1        0.1034
     26 C          12.1122    5.8866   -7.6381 C.3     1  UNL1        0.0815
     27 C          12.1980    6.5148   -9.0177 C.ar    1  UNL1       -0.0299
     28 C          11.1290    6.3778   -9.9246 C.ar    1  UNL1       -0.0541
     29 C          11.1783    6.9731  -11.1803 C.ar    1  UNL1       -0.0160
     30 C          12.2958    7.7147  -11.5423 C.ar    1  UNL1        0.1621
     31 C          13.3505    7.8869  -10.6390 C.ar    1  UNL1        0.1623
     32 C          13.3076    7.2849   -9.3829 C.ar    1  UNL1       -0.0123
     33 O          14.4702    8.6249  -10.9227 O.3     1  UNL1       -0.4849
     34 C          14.2692    9.4571  -12.0687 C.3     1  UNL1        0.1237
     35 C          13.5879    8.6909  -13.1902 C.3     1  UNL1        0.1237
     36 O          12.2829    8.2566  -12.8002 O.3     1  UNL1       -0.4849
     37 C          10.9441    6.4636   -6.8698 C.2     1  UNL1        0.1808
     38 O          10.5885    7.6296   -7.0202 O.2     1  UNL1       -0.2910
     39 H           0.6621   -0.5916    0.6962 H       1  UNL1        0.0661
     40 H           0.6073   -0.2064   -1.0304 H       1  UNL1        0.0661
     41 H           0.5339    1.1089    0.2076 H       1  UNL1        0.0661
     42 H           4.8672    1.2814    0.0455 H       1  UNL1        0.0619
     43 H           6.1121   -0.5416   -1.2702 H       1  UNL1        0.0373
     44 H           4.6530   -0.8352   -2.1861 H       1  UNL1        0.0373
     45 H           5.2714   -3.5305   -0.9918 H       1  UNL1        0.1120
     46 H           4.4374   -4.3720    1.2059 H       1  UNL1        0.3101
     47 H           3.4899   -2.5261    2.7116 H       1  UNL1        0.1581
     48 H           3.7416   -0.3877    1.3807 H       1  UNL1        0.3104
     49 H           4.4976    2.4183   -2.5037 H       1  UNL1        0.1496
     50 H           6.6348    3.9847   -2.8690 H       1  UNL1        0.0795
     51 H           6.6030    2.6831   -4.1089 H       1  UNL1        0.0795
     52 H           7.8620    5.5754   -3.5010 H       1  UNL1        0.0691
     53 H           8.1326    7.5253   -4.4927 H       1  UNL1        0.2922
     54 H          10.4441    2.3699   -4.7552 H       1  UNL1        0.0691
     55 H          11.2116    4.0633   -8.4707 H       1  UNL1        0.0707
     56 H          12.9297    3.9703   -8.1466 H       1  UNL1        0.0707
     57 H          13.0054    6.1277   -7.0450 H       1  UNL1        0.0463
     58 H          10.2325    5.8267   -9.6484 H       1  UNL1        0.0622
     59 H          10.3474    6.8573  -11.8696 H       1  UNL1        0.0655
     60 H          14.1284    7.4462   -8.6885 H       1  UNL1        0.0658
     61 H          15.2536    9.8013  -12.3997 H       1  UNL1        0.0731
     62 H          13.6817   10.3324  -11.7662 H       1  UNL1        0.0731
     63 H          14.1723    7.8115  -13.4873 H       1  UNL1        0.0731
     64 H          13.4697    9.3369  -14.0649 H       1  UNL1        0.0731
@<TRIPOS>UNITY_ATOM_ATTR
9 1
charge 1
@<TRIPOS>BOND
     1     1     2    1
     2     2     3    1
     3     3     4    2
     4     3     5    1
     5     5     6    1
     6     6     7    1
     7     7     8   ar
     8     8     9   ar
     9     9    10   ar
    10    10    11   ar
    11     7    11   ar
    12     5    12    1
    13    12    13   am
    14    13    14    2
    15    13    15    1
    16    15    16    1
    17    16    17    1
    18    17    18   ar
    19    18    19   ar
    20    19    20    1
    21    19    21   ar
    22    21    22   ar
    23    22    23   ar
    24    17    23   ar
    25    22    24    1
    26    24    25    1
    27    25    26    1
    28    27    28   ar
    29    28    29   ar
    30    29    30   ar
    31    30    31   ar
    32    31    32   ar
    33    27    32   ar
    34    31    33    1
    35    33    34    1
    36    34    35    1
    37    35    36    1
    38    30    36    1
    39    26    37    1
    40    21    37    1
    41    37    38    2
    42    26    27    1
    43     1    39    1
    44     1    40    1
    45     1    41    1
    46     5    42    1
    47     6    43    1
    48     6    44    1
    49     8    45    1
    50     9    46    1
    51    10    47    1
    52    11    48    1
    53    12    49    1
    54    15    50    1
    55    15    51    1
    56    18    52    1
    57    20    53    1
    58    23    54    1
    59    25    55    1
    60    25    56    1
    61    26    57    1
    62    28    58    1
    63    29    59    1
    64    32    60    1
    65    34    61    1
    66    34    62    1
    67    35    63    1
    68    35    64    1
