REMARK  7 active torsions:
REMARK  status: ('A' for Active; 'I' for Inactive)
REMARK       I    between atoms: C_2  and  N_4 
REMARK    1  A    between atoms: C_5  and  N_4 
REMARK    2  A    between atoms: C_6  and  O_7 
REMARK    3  A    between atoms: O_7  and  C_8 
REMARK    4  A    between atoms: C_28  and  C_29 
REMARK    5  A    between atoms: C_29  and  O_30 
REMARK    6  A    between atoms: C_31  and  O_32 
REMARK    7  A    between atoms: C_33  and  O_34 
ROOT
ATOM      1  C   UNL d   1       5.130   0.896  -2.514  0.00  0.00     0.072 C 
ATOM      2  C   UNL d   1       6.375   1.464  -2.280  0.00  0.00     0.037 C 
ATOM      3  C   UNL d   1       6.447   2.629  -1.504  0.00  0.00     0.011 C 
ATOM      4  C   UNL d   1       5.293   3.242  -0.955  0.00  0.00    -0.047 C 
ATOM      5  C   UNL d   1       4.032   2.753  -1.334  0.00  0.00    -0.049 C 
ATOM      6  C   UNL d   1       3.971   1.586  -2.133  0.00  0.00     0.044 C 
ATOM      7  C   UNL d   1       2.773   3.245  -0.647  0.00  0.00     0.039 C 
ATOM      8  C   UNL d   1       2.885   4.455   0.292  0.00  0.00     0.010 C 
ATOM      9  C   UNL d   1       4.176   4.327   1.134  0.00  0.00    -0.000 C 
ATOM     10  C   UNL d   1       5.385   4.347   0.101  0.00  0.00     0.024 C 
ATOM     11  C   UNL d   1       6.771   4.394   0.763  0.00  0.00     0.011 C 
ATOM     12  C   UNL d   1       6.849   5.547   1.734  0.00  0.00     0.018 C 
ATOM     13  C   UNL d   1       5.778   5.436   2.747  0.00  0.00     0.021 C 
ATOM     14  C   UNL d   1       5.759   6.684   3.716  0.00  0.00     0.024 C 
ATOM     15  C   UNL d   1       5.981   4.052   3.406  0.00  0.00     0.135 C 
ATOM     16  O   UNL d   1       6.136   2.932   2.958  0.00  0.00    -0.297 OA
ATOM     17  C   UNL d   1       5.492   4.176   4.734  0.00  0.00     0.079 C 
ATOM     18  C   UNL d   1       4.031   4.566   3.923  0.00  0.00     0.013 C 
ATOM     19  C   UNL d   1       4.336   5.223   2.400  0.00  0.00     0.006 C 
ENDROOT
BRANCH   1  20
ATOM     20  O   UNL d   1       4.952  -0.396  -2.956  0.00  0.00    -0.318 OA
BRANCH  20  21
ATOM     21  C   UNL d   1       5.284  -1.425  -1.982  0.00  0.00     0.292 C 
ATOM     22  C   UNL d   1       4.679  -1.256  -0.572  0.00  0.00     0.171 C 
ATOM     23  C   UNL d   1       5.197  -2.333   0.374  0.00  0.00     0.177 C 
ATOM     24  C   UNL d   1       4.866  -3.705  -0.165  0.00  0.00     0.180 C 
ATOM     25  C   UNL d   1       5.231  -3.806  -1.657  0.00  0.00     0.179 C 
ATOM     26  O   UNL d   1       4.766  -2.696  -2.446  0.00  0.00    -0.349 OA
BRANCH  22  27
ATOM     27  N   UNL d   1       4.984  -0.027   0.062  0.00  0.00    -0.349 N 
ATOM     28  C   UNL d   1       4.113   0.667   0.825  0.00  0.00     0.214 C 
ATOM     29  C   UNL d   1       2.624   0.370   0.724  0.00  0.00     0.117 C 
ATOM     30  O   UNL d   1       4.581   1.511   1.513  0.00  0.00    -0.274 OA
ATOM     31  H   UNL d   1       5.939   0.312   0.155  0.00  0.00     0.163 HD
ENDBRANCH  22  27
BRANCH  23  32
ATOM     32  O   UNL d   1       4.672  -2.187   1.704  0.00  0.00    -0.391 OA
ATOM     33  H   UNL d   1       3.701  -2.195   1.668  0.00  0.00     0.210 HD
ENDBRANCH  23  32
BRANCH  24  34
ATOM     34  O   UNL d   1       5.590  -4.668   0.607  0.00  0.00    -0.390 OA
ATOM     35  H   UNL d   1       6.532  -4.427   0.596  0.00  0.00     0.210 HD
ENDBRANCH  24  34
BRANCH  25  36
ATOM     36  C   UNL d   1       4.648  -5.106  -2.229  0.00  0.00     0.198 C 
BRANCH  36  37
ATOM     37  O   UNL d   1       5.130  -6.274  -1.580  0.00  0.00    -0.398 OA
ATOM     38  H   UNL d   1       6.097  -6.210  -1.501  0.00  0.00     0.209 HD
ENDBRANCH  36  37
ENDBRANCH  25  36
ENDBRANCH  20  21
ENDBRANCH   1  20
TORSDOF 7
