REMARK  9 active torsions:
REMARK  status: ('A' for Active; 'I' for Inactive)
REMARK    1  A    between atoms: O_2  and  C_3 
REMARK    2  A    between atoms: C_6  and  C_7 
REMARK    3  A    between atoms: C_8  and  C_9 
REMARK       I    between atoms: C_9  and  N_11 
REMARK    4  A    between atoms: N_11  and  C_12 
REMARK    5  A    between atoms: C_12  and  N_14 
REMARK    6  A    between atoms: N_14  and  C_15 
REMARK    7  A    between atoms: C_20  and  N_21 
REMARK       I    between atoms: N_21  and  C_22 
REMARK    8  A    between atoms: C_22  and  C_24 
REMARK    9  A    between atoms: C_29  and  O_30 
ROOT
ATOM      1  C   UNL d   1       5.657   5.698  -8.060  0.00  0.00     0.179 C 
ATOM      2  S   UNL d   1       7.115   5.062  -8.663  0.00  0.00    -0.040 SA
ENDROOT
BRANCH   1   3
ATOM      3  N   UNL d   1       4.979   5.111  -6.959  0.00  0.00    -0.300 N 
ATOM      4  C   UNL d   1       5.394   3.918  -6.326  0.00  0.00     0.247 C 
ATOM      5  O   UNL d   1       6.295   3.181  -6.717  0.00  0.00    -0.268 OA
ATOM      6  H   UNL d   1       4.183   5.598  -6.575  0.00  0.00     0.171 HD
BRANCH   4   7
ATOM      7  C   UNL d   1       4.684   3.472  -5.090  0.00  0.00     0.075 C 
ATOM      8  C   UNL d   1       5.105   2.336  -4.473  0.00  0.00     0.017 C 
BRANCH   8   9
ATOM      9  C   UNL d   1       4.489   1.702  -3.285  0.00  0.00    -0.033 A 
ATOM     10  C   UNL d   1       4.922   0.482  -2.754  0.00  0.00     0.014 A 
ATOM     11  C   UNL d   1       4.195  -0.148  -1.713  0.00  0.00     0.040 A 
ATOM     12  C   UNL d   1       3.064   0.453  -1.115  0.00  0.00     0.101 A 
ATOM     13  C   UNL d   1       2.700   1.727  -1.586  0.00  0.00     0.102 A 
ATOM     14  C   UNL d   1       3.401   2.302  -2.661  0.00  0.00     0.051 A 
BRANCH  12  15
ATOM     15  O   UNL d   1       2.612  -0.204   0.011  0.00  0.00    -0.353 OA
ATOM     16  C   UNL d   1       1.243  -0.603   0.120  0.00  0.00     0.210 C 
ENDBRANCH  12  15
BRANCH  13  17
ATOM     17  O   UNL d   1       1.771   2.646  -1.163  0.00  0.00    -0.353 OA
ATOM     18  C   UNL d   1       0.853   2.170  -0.229  0.00  0.00     0.210 C 
ENDBRANCH  13  17
ENDBRANCH   8   9
ENDBRANCH   4   7
ENDBRANCH   1   3
BRANCH   1  19
ATOM     19  N   UNL d   1       5.080   6.901  -8.574  0.00  0.00    -0.333 N 
ATOM     20  H   UNL d   1       4.394   7.433  -8.055  0.00  0.00     0.168 HD
BRANCH  19  21
ATOM     21  C   UNL d   1       5.556   7.524  -9.792  0.00  0.00     0.036 A 
ATOM     22  C   UNL d   1       5.851   8.869  -9.953  0.00  0.00     0.030 A 
ATOM     23  C   UNL d   1       6.405   9.318 -11.181  0.00  0.00     0.011 A 
ATOM     24  C   UNL d   1       6.719   8.427 -12.242  0.00  0.00    -0.035 A 
ATOM     25  C   UNL d   1       7.478   8.940 -13.438  0.00  0.00     0.050 C 
ATOM     26  C   UNL d   1       6.347   7.083 -12.104  0.00  0.00     0.042 A 
ATOM     27  C   UNL d   1       5.740   6.708 -10.902  0.00  0.00     0.059 A 
BRANCH  26  28
ATOM     28  N   UNL d   1       6.559   6.104 -13.122  0.00  0.00    -0.326 N 
ATOM     29  C   UNL d   1       6.192   4.757 -12.991  0.00  0.00     0.226 C 
ATOM     30  O   UNL d   1       5.665   4.227 -12.038  0.00  0.00    -0.273 OA
ATOM     31  H   UNL d   1       6.988   6.407 -13.983  0.00  0.00     0.169 HD
BRANCH  29  32
ATOM     32  C   UNL d   1       6.447   3.865 -14.159  0.00  0.00     0.078 A 
ATOM     33  C   UNL d   1       6.869   2.434 -13.862  0.00  0.00     0.015 A 
ATOM     34  C   UNL d   1       5.479   2.704 -14.358  0.00  0.00     0.015 A 
ENDBRANCH  29  32
ENDBRANCH  26  28
ENDBRANCH  19  21
ENDBRANCH   1  19
TORSDOF 9
