@<TRIPOS>MOLECULE
*****
 68 72 0 0 0
SMALL
GASTEIGER

@<TRIPOS>ATOM
      1 C           2.4936   -0.0095   -0.0130 C.3     1  UNL1       -0.0397
      2 C           0.9948   -0.0161    0.0016 C.ar    1  UNL1       -0.0501
      3 C           0.2708   -1.2098    0.0036 C.ar    1  UNL1       -0.0588
      4 C          -1.1237   -1.1823   -0.0016 C.ar    1  UNL1       -0.0611
      5 C          -1.8049    0.0399   -0.0091 C.ar    1  UNL1       -0.0553
      6 C          -1.0968    1.2533   -0.0038 C.ar    1  UNL1       -0.0102
      7 C          -1.8398    2.5787    0.0098 C.3     1  UNL1        0.1146
      8 O          -0.9166    3.6823   -0.0199 O.3     1  UNL1       -0.4874
      9 C          -1.4530    4.9376    0.0279 C.ar    1  UNL1        0.1210
     10 C          -2.4753    5.3215    0.8907 C.ar    1  UNL1       -0.0193
     11 C          -2.9414    6.6503    0.8972 C.ar    1  UNL1       -0.0496
     12 C          -2.3816    7.6157    0.0494 C.ar    1  UNL1       -0.0052
     13 C          -2.8922    9.0312    0.0304 C.2     1  UNL1        0.0528
     14 N          -3.8721    9.4293    0.7875 N.2     1  UNL1       -0.1874
     15 N          -4.2920   10.7553    0.7340 N.am    1  UNL1       -0.2016
     16 C          -5.4877   11.0786    1.3907 C.2     1  UNL1        0.2838
     17 O          -6.2362   10.1916    1.8115 O.2     1  UNL1       -0.2667
     18 C          -5.8918   12.4612    1.5516 C.ar    1  UNL1        0.1608
     19 C          -6.2338   13.2538    2.6635 C.ar    1  UNL1        0.1399
     20 C          -6.1925   13.0726    4.1730 C.3     1  UNL1        0.0155
     21 N          -5.6848   11.7454    4.7227 N.4     1  UNL1        0.2397
     22 C          -6.7040   10.6474    4.4821 C.3     1  UNL1       -0.0315
     23 C          -6.1191    9.2631    4.7209 C.3     1  UNL1       -0.0123
     24 C          -4.7273    9.0399    4.1483 C.3     1  UNL1       -0.0434
     25 C          -3.7807   10.0977    4.6796 C.3     1  UNL1       -0.0123
     26 C          -4.2442   11.4937    4.3194 C.3     1  UNL1       -0.0315
     27 N          -6.6718   14.4692    2.2000 N.ar    1  UNL1       -0.1279
     28 N          -6.5763   14.4809    0.8790 N.ar    1  UNL1       -0.0581
     29 N          -6.2057   13.2507    0.4570 N.ar    1  UNL1       -0.1830
     30 C          -6.2332   12.8106   -0.8794 C.ar    1  UNL1        0.2407
     31 N          -5.5489   13.4653   -1.8139 N.ar    1  UNL1       -0.0272
     32 O          -5.6942   12.6510   -2.9471 O.2     1  UNL1       -0.2388
     33 N          -6.4470   11.5128   -2.6607 N.ar    1  UNL1       -0.0319
     34 C          -6.7900   11.6236   -1.3811 C.ar    1  UNL1        0.2064
     35 N          -7.5596   10.7500   -0.7099 N.pl3   1  UNL1       -0.3375
     36 C          -1.3229    7.2335   -0.7873 C.ar    1  UNL1       -0.0496
     37 C          -0.8561    5.9041   -0.7856 C.ar    1  UNL1       -0.0193
     38 C           0.3048    1.2029    0.0025 C.ar    1  UNL1       -0.0524
     39 H           2.9007   -1.0249    0.0004 H       1  UNL1        0.0278
     40 H           2.8760    0.5214    0.8649 H       1  UNL1        0.0278
     41 H           2.8543    0.4889   -0.9188 H       1  UNL1        0.0278
     42 H           0.7877   -2.1669    0.0051 H       1  UNL1        0.0620
     43 H          -1.6775   -2.1188   -0.0027 H       1  UNL1        0.0618
     44 H          -2.8928    0.0307   -0.0191 H       1  UNL1        0.0621
     45 H          -2.4504    2.6018    0.9187 H       1  UNL1        0.0748
     46 H          -2.4824    2.6300   -0.8777 H       1  UNL1        0.0748
     47 H          -2.9062    4.6101    1.5886 H       1  UNL1        0.0654
     48 H          -3.7473    6.9143    1.5759 H       1  UNL1        0.0625
     49 H          -2.3954    9.7222   -0.6719 H       1  UNL1        0.0851
     50 H          -3.7930   11.4025    0.1286 H       1  UNL1        0.1776
     51 H          -7.1850   13.2334    4.6249 H       1  UNL1        0.0884
     52 H          -5.5548   13.8464    4.6292 H       1  UNL1        0.0884
     53 H          -5.6604   11.8427    5.7463 H       1  UNL1        0.2037
     54 H          -7.1597   10.7941    3.5087 H       1  UNL1        0.0814
     55 H          -7.5452   10.8240    5.1635 H       1  UNL1        0.0814
     56 H          -6.8016    8.4967    4.3366 H       1  UNL1        0.0317
     57 H          -6.0573    9.1160    5.8041 H       1  UNL1        0.0317
     58 H          -4.7316    9.0545    3.0617 H       1  UNL1        0.0269
     59 H          -4.3658    8.0388    4.4045 H       1  UNL1        0.0269
     60 H          -2.7785    9.9272    4.2679 H       1  UNL1        0.0317
     61 H          -3.7045   10.0052    5.7669 H       1  UNL1        0.0317
     62 H          -4.1328   11.6573    3.2532 H       1  UNL1        0.0814
     63 H          -3.6267   12.2566    4.8064 H       1  UNL1        0.0814
     64 H          -7.9223    9.9258   -1.1801 H       1  UNL1        0.1439
     65 H          -7.7758   10.7707    0.2824 H       1  UNL1        0.1439
     66 H          -0.8427    7.9453   -1.4542 H       1  UNL1        0.0625
     67 H          -0.0272    5.6155   -1.4322 H       1  UNL1        0.0654
     68 H           0.8805    2.1264    0.0054 H       1  UNL1        0.0624
@<TRIPOS>UNITY_ATOM_ATTR
21 1
charge 1
@<TRIPOS>BOND
     1     1     2    1
     2     2     3   ar
     3     3     4   ar
     4     4     5   ar
     5     5     6   ar
     6     6     7    1
     7     7     8    1
     8     8     9    1
     9     9    10   ar
    10    10    11   ar
    11    11    12   ar
    12    12    13    1
    13    13    14    2
    14    14    15    1
    15    15    16   am
    16    16    17    2
    17    16    18    1
    18    18    19   ar
    19    19    20    1
    20    20    21    1
    21    21    22    1
    22    22    23    1
    23    23    24    1
    24    24    25    1
    25    25    26    1
    26    21    26    1
    27    19    27   ar
    28    27    28   ar
    29    28    29   ar
    30    18    29   ar
    31    29    30    1
    32    30    31   ar
    33    31    32   ar
    34    32    33   ar
    35    33    34   ar
    36    30    34   ar
    37    34    35    1
    38    12    36   ar
    39    36    37   ar
    40     9    37   ar
    41     6    38   ar
    42     2    38   ar
    43     1    39    1
    44     1    40    1
    45     1    41    1
    46     3    42    1
    47     4    43    1
    48     5    44    1
    49     7    45    1
    50     7    46    1
    51    10    47    1
    52    11    48    1
    53    13    49    1
    54    15    50    1
    55    20    51    1
    56    20    52    1
    57    21    53    1
    58    22    54    1
    59    22    55    1
    60    23    56    1
    61    23    57    1
    62    24    58    1
    63    24    59    1
    64    25    60    1
    65    25    61    1
    66    26    62    1
    67    26    63    1
    68    35    64    1
    69    35    65    1
    70    36    66    1
    71    37    67    1
    72    38    68    1
