@<TRIPOS>MOLECULE
*****
 30 31 0 0 0
SMALL
GASTEIGER

@<TRIPOS>ATOM
      1 C           2.4782   -0.0003   -0.0131 C.3     1  UNL1       -0.0397
      2 C           0.9779    0.0017    0.0033 C.ar    1  UNL1       -0.0504
      3 C           0.2540   -1.1920    0.0061 C.ar    1  UNL1       -0.0581
      4 C          -1.1448   -1.1651    0.0029 C.ar    1  UNL1       -0.0494
      5 C          -1.8505    0.0525   -0.0033 C.ar    1  UNL1        0.0370
      6 C          -3.3484   -0.0050   -0.0433 C.2     1  UNL1        0.2483
      7 O          -3.8688   -1.1184   -0.1559 O.2     1  UNL1       -0.2699
      8 N          -4.0567    1.1960   -0.0519 N.am    1  UNL1       -0.2785
      9 C          -5.4739    1.2398   -0.0587 C.ar    1  UNL1        0.0770
     10 C          -6.1275    2.1462   -0.9029 C.ar    1  UNL1       -0.0185
     11 C          -7.5262    2.1546   -0.9581 C.ar    1  UNL1        0.0430
     12 CL         -8.3412    3.2237   -2.0362 Cl      1  UNL1       -0.0835
     13 C          -8.2795    1.2939   -0.1595 C.ar    1  UNL1       -0.0398
     14 C          -7.6348    0.4224    0.7159 C.ar    1  UNL1       -0.0170
     15 C          -6.2422    0.4138    0.7766 C.ar    1  UNL1        0.1381
     16 O          -5.6256   -0.3186    1.7547 O.3     1  UNL1       -0.5049
     17 C          -1.1199    1.2445    0.0095 C.ar    1  UNL1       -0.0494
     18 C           0.2810    1.2159    0.0082 C.ar    1  UNL1       -0.0581
     19 H           2.8814   -1.0183    0.0002 H       1  UNL1        0.0278
     20 H           2.8662    0.5261    0.8648 H       1  UNL1        0.0278
     21 H           2.8437    0.4938   -0.9192 H       1  UNL1        0.0278
     22 H           0.7668   -2.1520    0.0050 H       1  UNL1        0.0620
     23 H          -1.6852   -2.1115   -0.0004 H       1  UNL1        0.0625
     24 H          -3.5780    2.0554   -0.2705 H       1  UNL1        0.1552
     25 H          -5.5664    2.8037   -1.5607 H       1  UNL1        0.0652
     26 H          -9.3656    1.3075   -0.2011 H       1  UNL1        0.0633
     27 H          -8.2235   -0.2215    1.3610 H       1  UNL1        0.0655
     28 H          -6.2360   -0.9969    2.0796 H       1  UNL1        0.2922
     29 H          -1.6008    2.2144    0.0164 H       1  UNL1        0.0625
     30 H           0.8303    2.1552    0.0072 H       1  UNL1        0.0620
@<TRIPOS>BOND
     1     1     2    1
     2     2     3   ar
     3     3     4   ar
     4     4     5   ar
     5     5     6    1
     6     6     7    2
     7     6     8   am
     8     8     9    1
     9     9    10   ar
    10    10    11   ar
    11    11    12    1
    12    11    13   ar
    13    13    14   ar
    14    14    15   ar
    15     9    15   ar
    16    15    16    1
    17     5    17   ar
    18    17    18   ar
    19     2    18   ar
    20     1    19    1
    21     1    20    1
    22     1    21    1
    23     3    22    1
    24     4    23    1
    25     8    24    1
    26    10    25    1
    27    13    26    1
    28    14    27    1
    29    16    28    1
    30    17    29    1
    31    18    30    1
