@<TRIPOS>MOLECULE
*****
 31 32 0 0 0
SMALL
GASTEIGER

@<TRIPOS>ATOM
      1 C           1.0312   -0.0794   -0.0206 C.3     1  UNL1       -0.0245
      2 C           2.5446   -0.1137   -0.0616 C.2     1  UNL1        0.0369
      3 N           3.1613   -1.1146   -0.6185 N.2     1  UNL1       -0.1880
      4 N           4.5430   -1.2028   -0.6187 N.am    1  UNL1       -0.1906
      5 C           5.1722   -2.2148   -1.3343 C.2     1  UNL1        0.3233
      6 O           4.5422   -3.0852   -1.9433 O.2     1  UNL1       -0.2507
      7 N           6.5667   -2.1631   -1.2796 N.am    1  UNL1       -0.2681
      8 C           7.3801   -3.1500   -1.8996 C.ar    1  UNL1        0.0348
      9 C           8.5095   -3.6531   -1.2425 C.ar    1  UNL1       -0.0404
     10 C           9.3135   -4.6253   -1.8593 C.ar    1  UNL1       -0.0600
     11 C           8.9847   -5.1119   -3.1241 C.ar    1  UNL1       -0.0616
     12 C           7.8769   -4.5985   -3.7908 C.ar    1  UNL1       -0.0600
     13 C           7.0821   -3.6239   -3.1811 C.ar    1  UNL1       -0.0404
     14 C           3.2508    1.0189    0.5980 C.3     1  UNL1       -0.0013
     15 C           4.4304    1.6290   -0.1353 C.3     1  UNL1       -0.0445
     16 C           3.2101    2.4489    0.1002 C.3     1  UNL1       -0.0445
     17 H           0.6055   -0.9373   -0.5505 H       1  UNL1        0.0290
     18 H           0.6549    0.8380   -0.4829 H       1  UNL1        0.0290
     19 H           0.6834   -0.1086    1.0175 H       1  UNL1        0.0290
     20 H           5.0852   -0.5512   -0.0738 H       1  UNL1        0.1788
     21 H           7.0112   -1.5684   -0.5962 H       1  UNL1        0.1564
     22 H           8.7406   -3.3647   -0.2210 H       1  UNL1        0.0636
     23 H          10.1914   -5.0177   -1.3509 H       1  UNL1        0.0618
     24 H           9.5821   -5.8940   -3.5872 H       1  UNL1        0.0618
     25 H           7.6240   -4.9522   -4.7867 H       1  UNL1        0.0618
     26 H           6.2325   -3.2254   -3.7297 H       1  UNL1        0.0636
     27 H           3.2649    0.9349    1.6819 H       1  UNL1        0.0361
     28 H           4.6039    1.3307   -1.1669 H       1  UNL1        0.0272
     29 H           5.3324    1.7614    0.4468 H       1  UNL1        0.0272
     30 H           2.6050    2.6965   -0.7640 H       1  UNL1        0.0272
     31 H           3.3280    3.2687    0.8017 H       1  UNL1        0.0272
@<TRIPOS>BOND
     1     1     2    1
     2     2     3    2
     3     3     4    1
     4     4     5   am
     5     5     6    2
     6     5     7   am
     7     7     8    1
     8     8     9   ar
     9     9    10   ar
    10    10    11   ar
    11    11    12   ar
    12    12    13   ar
    13     8    13   ar
    14     2    14    1
    15    14    15    1
    16    15    16    1
    17    14    16    1
    18     1    17    1
    19     1    18    1
    20     1    19    1
    21     4    20    1
    22     7    21    1
    23     9    22    1
    24    10    23    1
    25    11    24    1
    26    12    25    1
    27    13    26    1
    28    14    27    1
    29    15    28    1
    30    15    29    1
    31    16    30    1
    32    16    31    1
