REMARK  5 active torsions:
REMARK  status: ('A' for Active; 'I' for Inactive)
REMARK    1  A    between atoms: O_2  and  C_3 
REMARK    2  A    between atoms: C_6  and  C_7 
REMARK       I    between atoms: C_7  and  N_9 
REMARK    3  A    between atoms: N_9  and  C_10 
REMARK    4  A    between atoms: C_10  and  N_12 
REMARK    5  A    between atoms: N_12  and  C_13 
ROOT
ATOM      1  C   UNL d   1       5.023  -3.813  -3.239  0.00  0.00     0.257 C 
ATOM      2  O   UNL d   1       5.789  -4.496  -2.550  0.00  0.00    -0.267 OA
ATOM      3  N   UNL d   1       4.766  -4.070  -4.605  0.00  0.00    -0.299 N 
ATOM      4  H   UNL d   1       4.016  -3.562  -5.050  0.00  0.00     0.171 HD
ENDROOT
BRANCH   3   5
ATOM      5  C   UNL d   1       5.540  -4.921  -5.430  0.00  0.00     0.179 C 
ATOM      6  S   UNL d   1       7.062  -5.512  -4.985  0.00  0.00    -0.040 SA
BRANCH   5   7
ATOM      7  N   UNL d   1       4.955  -5.211  -6.690  0.00  0.00    -0.330 N 
ATOM      8  H   UNL d   1       4.428  -4.484  -7.160  0.00  0.00     0.168 HD
BRANCH   7   9
ATOM      9  C   UNL d   1       5.442  -6.283  -7.539  0.00  0.00     0.075 A 
ATOM     10  C   UNL d   1       5.783  -6.060  -8.883  0.00  0.00     0.034 A 
ATOM     11  C   UNL d   1       6.302  -7.115  -9.658  0.00  0.00     0.022 A 
ATOM     12  C   UNL d   1       6.452  -8.365  -9.079  0.00  0.00     0.118 A 
ATOM     13  N   UNL d   1       6.091  -8.638  -7.815  0.00  0.00    -0.246 NA
ATOM     14  C   UNL d   1       5.588  -7.610  -7.088  0.00  0.00     0.152 A 
ATOM     15 CL   UNL d   1       4.878  -8.178  -5.617  0.00  0.00    -0.060 Cl
ENDBRANCH   7   9
ENDBRANCH   5   7
ENDBRANCH   3   5
BRANCH   1  16
ATOM     16  C   UNL d   1       4.321  -2.735  -2.475  0.00  0.00     0.034 A 
ATOM     17  C   UNL d   1       4.676  -2.546  -1.119  0.00  0.00     0.020 A 
ATOM     18  C   UNL d   1       4.039  -1.590  -0.316  0.00  0.00     0.039 A 
ATOM     19  C   UNL d   1       3.019  -0.801  -0.852  0.00  0.00     0.089 A 
ATOM     20  C   UNL d   1       2.721  -0.929  -2.218  0.00  0.00     0.068 A 
ATOM     21  C   UNL d   1       3.348  -1.904  -3.016  0.00  0.00     0.044 A 
ATOM     22 CL   UNL d   1       1.655   0.136  -3.067  0.00  0.00    -0.081 Cl
BRANCH  19  23
ATOM     23  O   UNL d   1       2.463   0.109   0.009  0.00  0.00    -0.354 OA
ATOM     24  C   UNL d   1       1.037   0.052   0.093  0.00  0.00     0.210 C 
ENDBRANCH  19  23
ENDBRANCH   1  16
TORSDOF 5
