@<TRIPOS>MOLECULE
*****
 45 46 0 0 0
SMALL
GASTEIGER

@<TRIPOS>ATOM
      1 C           1.0773   -0.0621    0.0806 C.3     1  UNL1       -0.0307
      2 C           2.5996   -0.0706    0.0764 C.3     1  UNL1        0.0868
      3 O           3.0659   -1.0232    1.0385 O.3     1  UNL1       -0.4922
      4 C           4.4191   -1.0567    1.2542 C.ar    1  UNL1        0.1205
      5 C           4.9755   -2.3007    1.5549 C.ar    1  UNL1       -0.0192
      6 C           6.3376   -2.4149    1.9019 C.ar    1  UNL1       -0.0461
      7 C           7.1888   -1.2932    1.8936 C.ar    1  UNL1        0.0384
      8 C           8.6734   -1.4754    2.1403 C.2     1  UNL1        0.2601
      9 O           9.1278   -2.6000    2.3732 O.2     1  UNL1       -0.2687
     10 N           9.5005   -0.3588    2.0625 N.am    1  UNL1       -0.2304
     11 N          10.9129   -0.4843    2.2266 N.am    1  UNL1       -0.2341
     12 C          11.6901    0.6639    2.1395 C.2     1  UNL1        0.2306
     13 O          11.1776    1.7638    1.9190 O.2     1  UNL1       -0.2742
     14 C          13.1975    0.4795    2.3358 C.3     1  UNL1        0.0408
     15 C          13.9307    1.8277    2.2197 C.3     1  UNL1        0.0174
     16 N          15.3851    1.6867    2.2777 N.pl3   1  UNL1       -0.3434
     17 C          16.2346    2.7865    2.3516 C.ar    1  UNL1        0.0271
     18 C          17.4920    2.7171    1.7337 C.ar    1  UNL1       -0.0409
     19 C          18.4036    3.7792    1.8037 C.ar    1  UNL1       -0.0600
     20 C          18.0500    4.9589    2.4499 C.ar    1  UNL1       -0.0616
     21 C          16.7989    5.0596    3.0494 C.ar    1  UNL1       -0.0600
     22 C          15.9014    3.9836    2.9956 C.ar    1  UNL1       -0.0409
     23 C           6.6103   -0.0491    1.6115 C.ar    1  UNL1       -0.0461
     24 C           5.2411    0.0667    1.3003 C.ar    1  UNL1       -0.0192
     25 H           0.6915    0.6110   -0.6922 H       1  UNL1        0.0262
     26 H           0.6942    0.2737    1.0506 H       1  UNL1        0.0262
     27 H           0.6768   -1.0654   -0.0933 H       1  UNL1        0.0262
     28 H           2.9348    0.9464    0.3000 H       1  UNL1        0.0694
     29 H           2.9580   -0.3653   -0.9158 H       1  UNL1        0.0694
     30 H           4.3507   -3.1919    1.5100 H       1  UNL1        0.0654
     31 H           6.7219   -3.3956    2.1811 H       1  UNL1        0.0626
     32 H           9.1816    0.5820    1.8459 H       1  UNL1        0.1731
     33 H          11.2698   -1.4220    2.4036 H       1  UNL1        0.1728
     34 H          13.5780   -0.2203    1.5835 H       1  UNL1        0.0374
     35 H          13.3804    0.0459    3.3262 H       1  UNL1        0.0374
     36 H          13.5628    2.4964    3.0047 H       1  UNL1        0.0466
     37 H          13.6920    2.2878    1.2534 H       1  UNL1        0.0466
     38 H          15.7941    0.7992    2.5510 H       1  UNL1        0.1461
     39 H          17.7612    1.8371    1.1545 H       1  UNL1        0.0636
     40 H          19.3878    3.6830    1.3526 H       1  UNL1        0.0618
     41 H          18.7426    5.7960    2.4824 H       1  UNL1        0.0618
     42 H          16.5207    5.9703    3.5738 H       1  UNL1        0.0618
     43 H          14.9488    4.0948    3.5027 H       1  UNL1        0.0636
     44 H           7.1881    0.8671    1.6379 H       1  UNL1        0.0626
     45 H           4.8436    1.0601    1.1224 H       1  UNL1        0.0654
@<TRIPOS>BOND
     1     1     2    1
     2     2     3    1
     3     3     4    1
     4     4     5   ar
     5     5     6   ar
     6     6     7   ar
     7     7     8    1
     8     8     9    2
     9     8    10   am
    10    10    11    1
    11    11    12   am
    12    12    13    2
    13    12    14    1
    14    14    15    1
    15    15    16    1
    16    16    17    1
    17    17    18   ar
    18    18    19   ar
    19    19    20   ar
    20    20    21   ar
    21    21    22   ar
    22    17    22   ar
    23     7    23   ar
    24    23    24   ar
    25     4    24   ar
    26     1    25    1
    27     1    26    1
    28     1    27    1
    29     2    28    1
    30     2    29    1
    31     5    30    1
    32     6    31    1
    33    10    32    1
    34    11    33    1
    35    14    34    1
    36    14    35    1
    37    15    36    1
    38    15    37    1
    39    16    38    1
    40    18    39    1
    41    19    40    1
    42    20    41    1
    43    21    42    1
    44    22    43    1
    45    23    44    1
    46    24    45    1
