@<TRIPOS>MOLECULE
*****
 40 41 0 0 0
SMALL
GASTEIGER

@<TRIPOS>ATOM
      1 C           4.8952    0.4732   -5.4592 C.3     1  UNL1       -0.0134
      2 S           4.5763    1.6537   -6.7910 S.3     1  UNL1       -0.1268
      3 C           4.8475    3.2403   -5.9703 C.ar    1  UNL1        0.0288
      4 C           5.6545    4.0729   -6.7612 C.ar    1  UNL1       -0.0465
      5 C           6.3116    5.1654   -6.2132 C.ar    1  UNL1       -0.0606
      6 C           6.0744    5.5147   -4.8909 C.ar    1  UNL1       -0.0599
      7 C           5.1454    4.7921   -4.1302 C.ar    1  UNL1       -0.0394
      8 C           4.4922    3.6613   -4.6626 C.ar    1  UNL1        0.0469
      9 N           3.5305    3.0240   -3.8155 N.am    1  UNL1       -0.2830
     10 C           2.5011    2.2310   -4.2936 C.2     1  UNL1        0.2373
     11 O           2.1702    2.2623   -5.4792 O.2     1  UNL1       -0.2734
     12 C           1.7356    1.2993   -3.3077 C.3     1  UNL1        0.0972
     13 C           2.2955    1.3249   -1.8826 C.3     1  UNL1       -0.0381
     14 N           1.6984   -0.0978   -3.8192 N.am    1  UNL1       -0.3003
     15 C           1.0951   -0.4527   -5.0207 C.2     1  UNL1        0.2447
     16 O           0.5125    0.3083   -5.7809 O.2     1  UNL1       -0.2702
     17 C           1.0925   -1.8912   -5.3842 C.ar    1  UNL1        0.0367
     18 C           1.4337   -2.3020   -6.6838 C.ar    1  UNL1       -0.0496
     19 C           1.1866   -3.6201   -7.0865 C.ar    1  UNL1       -0.0610
     20 C           0.6360   -4.5314   -6.1846 C.ar    1  UNL1       -0.0617
     21 C           0.3128   -4.1242   -4.8892 C.ar    1  UNL1       -0.0610
     22 C           0.5338   -2.8051   -4.4898 C.ar    1  UNL1       -0.0496
     23 H           4.3466   -0.4466   -5.6792 H       1  UNL1        0.0344
     24 H           4.5957    0.8033   -4.4652 H       1  UNL1        0.0344
     25 H           5.9625    0.2527   -5.4272 H       1  UNL1        0.0344
     26 H           5.8197    3.8296   -7.8093 H       1  UNL1        0.0629
     27 H           7.0356    5.7046   -6.8171 H       1  UNL1        0.0618
     28 H           6.6054    6.3612   -4.4624 H       1  UNL1        0.0618
     29 H           4.9563    5.1299   -3.1135 H       1  UNL1        0.0636
     30 H           3.4210    3.4156   -2.8889 H       1  UNL1        0.1549
     31 H           0.7053    1.6754   -3.2892 H       1  UNL1        0.0592
     32 H           3.3034    0.8954   -1.8428 H       1  UNL1        0.0252
     33 H           1.6633    0.7516   -1.1954 H       1  UNL1        0.0252
     34 H           2.3516    2.3450   -1.4872 H       1  UNL1        0.0252
     35 H           2.0150   -0.8435   -3.2143 H       1  UNL1        0.1498
     36 H           1.8529   -1.5932   -7.3968 H       1  UNL1        0.0625
     37 H           1.3857   -3.9290   -8.1114 H       1  UNL1        0.0618
     38 H           0.4356   -5.5541   -6.4972 H       1  UNL1        0.0618
     39 H          -0.1564   -4.8231   -4.2024 H       1  UNL1        0.0618
     40 H           0.2018   -2.4758   -3.5110 H       1  UNL1        0.0625
@<TRIPOS>BOND
     1     1     2    1
     2     2     3    1
     3     3     4   ar
     4     4     5   ar
     5     5     6   ar
     6     6     7   ar
     7     7     8   ar
     8     3     8   ar
     9     8     9    1
    10     9    10   am
    11    10    11    2
    12    12    14    1
    13    14    15   am
    14    15    16    2
    15    15    17    1
    16    17    18   ar
    17    18    19   ar
    18    19    20   ar
    19    20    21   ar
    20    21    22   ar
    21    17    22   ar
    22    12    13    1
    23    12    10    1
    24     1    23    1
    25     1    24    1
    26     1    25    1
    27     4    26    1
    28     5    27    1
    29     6    28    1
    30     7    29    1
    31     9    30    1
    32    12    31    1
    33    13    32    1
    34    13    33    1
    35    13    34    1
    36    14    35    1
    37    18    36    1
    38    19    37    1
    39    20    38    1
    40    21    39    1
    41    22    40    1
