REMARK  7 active torsions:
REMARK  status: ('A' for Active; 'I' for Inactive)
REMARK    1  A    between atoms: C_6  and  N_7 
REMARK       I    between atoms: N_7  and  C_8 
REMARK    2  A    between atoms: C_8  and  C_10 
REMARK    3  A    between atoms: C_10  and  S_11 
REMARK    4  A    between atoms: S_11  and  C_12 
REMARK    5  A    between atoms: C_14  and  N_15 
REMARK    6  A    between atoms: C_16  and  N_17 
REMARK       I    between atoms: N_17  and  C_18 
REMARK    7  A    between atoms: C_18  and  C_20 
ROOT
ATOM      1  C   UNL d   1      -3.806  -7.123   0.054  0.00  0.00     0.171 C 
ATOM      2  N   UNL d   1      -3.439  -8.350   0.031  0.00  0.00    -0.205 NA
ATOM      3  C   UNL d   1      -4.366  -9.341  -0.042  0.00  0.00     0.156 C 
ATOM      4  C   UNL d   1      -5.705  -9.113   0.031  0.00  0.00     0.150 C 
ATOM      5  C   UNL d   1      -6.098  -7.645   0.011  0.00  0.00     0.278 C 
ATOM      6  O   UNL d   1      -7.274  -7.284  -0.029  0.00  0.00    -0.265 OA
ATOM      7  N   UNL d   1      -5.089  -6.725   0.025  0.00  0.00    -0.300 N 
ATOM      8  H   UNL d   1      -5.325  -5.749   0.020  0.00  0.00     0.171 HD
ENDROOT
BRANCH   1   9
ATOM      9  S   UNL d   1      -2.547  -5.974   0.185  0.00  0.00    -0.083 SA
BRANCH   9  10
ATOM     10  C   UNL d   1      -3.211  -4.286   0.018  0.00  0.00     0.185 C 
BRANCH  10  11
ATOM     11  C   UNL d   1      -2.002  -3.386  -0.282  0.00  0.00     0.231 C 
ATOM     12  N   UNL d   1      -2.096  -2.019  -0.001  0.00  0.00    -0.326 N 
ATOM     13  H   UNL d   1      -3.030  -1.644   0.076  0.00  0.00     0.169 HD
ATOM     14  O   UNL d   1      -1.042  -3.914  -0.845  0.00  0.00    -0.272 OA
BRANCH  12  15
ATOM     15  C   UNL d   1      -1.024  -1.029  -0.032  0.00  0.00     0.046 A 
ATOM     16  C   UNL d   1      -1.339   0.361  -0.013  0.00  0.00    -0.034 A 
ATOM     17  C   UNL d   1      -0.296   1.341   0.004  0.00  0.00     0.015 A 
ATOM     18  C   UNL d   1      -2.765   0.857   0.002  0.00  0.00     0.050 C 
ATOM     19  C   UNL d   1       1.052   0.972  -0.021  0.00  0.00    -0.061 A 
ATOM     20  C   UNL d   1       2.219   1.911   0.034  0.00  0.00     0.048 C 
ATOM     21  C   UNL d   1       1.355  -0.377  -0.042  0.00  0.00     0.015 A 
ATOM     22  C   UNL d   1       0.354  -1.357   0.006  0.00  0.00    -0.034 A 
ATOM     23  C   UNL d   1       0.895  -2.733   0.197  0.00  0.00     0.050 C 
ENDBRANCH  12  15
ENDBRANCH  10  11
ENDBRANCH   9  10
ENDBRANCH   1   9
BRANCH   3  24
ATOM     24  N   UNL d   1      -3.788 -10.561  -0.243  0.00  0.00    -0.382 N 
ATOM     25  H   UNL d   1      -2.825 -10.638   0.052  0.00  0.00     0.157 HD
ATOM     26  H   UNL d   1      -4.356 -11.386  -0.063  0.00  0.00     0.157 HD
ENDBRANCH   3  24
BRANCH   4  27
ATOM     27  N   UNL d   1      -6.738 -10.070   0.057  0.00  0.00    -0.314 N 
ATOM     28  C   UNL d   1      -6.617 -11.447   0.203  0.00  0.00     0.280 C 
ATOM     29  O   UNL d   1      -5.538 -12.050   0.359  0.00  0.00    -0.265 OA
ATOM     30  H   UNL d   1      -7.679  -9.677   0.064  0.00  0.00     0.169 HD
BRANCH  28  31
ATOM     31  C   UNL d   1      -7.788 -12.264   0.180  0.00  0.00     0.142 A 
ATOM     32  C   UNL d   1      -8.900 -12.297  -0.634  0.00  0.00     0.045 A 
ATOM     33  C   UNL d   1      -9.604 -13.481  -0.290  0.00  0.00     0.027 A 
ATOM     34  C   UNL d   1      -8.873 -14.106   0.692  0.00  0.00     0.143 A 
ATOM     35  O   UNL d   1      -7.773 -13.377   0.980  0.00  0.00    -0.317 OA
ENDBRANCH  28  31
ENDBRANCH   4  27
TORSDOF 7
