REMARK  7 active torsions:
REMARK  status: ('A' for Active; 'I' for Inactive)
REMARK    1  A    between atoms: N_7  and  C_8 
REMARK    2  A    between atoms: C_8  and  C_9 
REMARK    3  A    between atoms: C_10  and  C_11 
REMARK       I    between atoms: C_11  and  N_13 
REMARK    4  A    between atoms: N_13  and  N_14 
REMARK    5  A    between atoms: C_15  and  C_16 
REMARK    6  A    between atoms: N_23  and  C_24 
REMARK    7  A    between atoms: C_28  and  N_29 
ROOT
ATOM      1  C   UNL d   1       3.347  -3.160  -2.451  0.00  0.00     0.096 C 
ATOM      2  C   UNL d   1       4.376  -4.035  -2.014  0.00  0.00     0.170 C 
ATOM      3  N   UNL d   1       4.489  -4.999  -2.999  0.00  0.00    -0.152 NA
ATOM      4  N   UNL d   1       3.506  -4.884  -3.879  0.00  0.00     0.012 NA
ATOM      5  N   UNL d   1       2.780  -3.784  -3.604  0.00  0.00    -0.215 N 
ENDROOT
BRANCH   2   6
ATOM      6  C   UNL d   1       5.389  -4.062  -0.851  0.00  0.00     0.293 C 
ATOM      7  O   UNL d   1       6.450  -4.722  -0.978  0.00  0.00    -0.264 OA
ATOM      8  N   UNL d   1       5.150  -3.304   0.323  0.00  0.00    -0.242 N 
ATOM      9  H   UNL d   1       4.288  -2.838   0.446  0.00  0.00     0.192 HD
BRANCH   8  10
ATOM     10  N   UNL d   1       6.128  -2.915   1.234  0.00  0.00    -0.183 NA
ATOM     11  C   UNL d   1       5.936  -2.044   2.203  0.00  0.00     0.150 C 
BRANCH  11  12
ATOM     12  C   UNL d   1       4.737  -1.284   2.641  0.00  0.00    -0.010 C 
ATOM     13  C   UNL d   1       3.320  -1.659   2.630  0.00  0.00     0.020 C 
ATOM     14  C   UNL d   1       2.462  -0.638   3.080  0.00  0.00     0.050 C 
ATOM     15  S   UNL d   1       3.388   0.671   3.772  0.00  0.00    -0.113 SA
ATOM     16  C   UNL d   1       4.854   0.049   3.066  0.00  0.00     0.062 C 
ENDBRANCH  11  12
ENDBRANCH   8  10
ENDBRANCH   2   6
BRANCH   1  17
ATOM     17  C   UNL d   1       2.748  -1.873  -2.026  0.00  0.00     0.296 C 
BRANCH  17  18
ATOM     18  N   UNL d   1       3.403  -1.140  -0.913  0.00  0.00    -0.062 N 
ATOM     19  C   UNL d   1       4.913  -0.947  -1.094  0.00  0.00     0.235 C 
ATOM     20  C   UNL d   1       5.280   0.280  -1.887  0.00  0.00     0.028 C 
ATOM     21  C   UNL d   1       4.686   1.536  -1.308  0.00  0.00     0.004 C 
ATOM     22  C   UNL d   1       3.142   1.365  -1.385  0.00  0.00     0.033 C 
ATOM     23  C   UNL d   1       2.694   0.180  -0.576  0.00  0.00     0.184 C 
ATOM     24  C   UNL d   1       3.224   0.703   0.695  0.00  0.00     0.040 C 
ATOM     25  H   UNL d   1       3.150  -1.754  -0.135  0.00  0.00     0.280 HD
ENDBRANCH  17  18
ENDBRANCH   1  17
BRANCH   5  26
ATOM     26  C   UNL d   1       1.702  -3.327  -4.443  0.00  0.00     0.225 A 
ATOM     27  N   UNL d   1       0.690  -4.142  -4.756  0.00  0.00    -0.081 NA
ATOM     28  O   UNL d   1      -0.201  -3.326  -5.473  0.00  0.00    -0.103 OA
ATOM     29  N   UNL d   1       0.289  -2.027  -5.590  0.00  0.00    -0.083 NA
ATOM     30  C   UNL d   1       1.468  -2.043  -4.976  0.00  0.00     0.201 A 
BRANCH  30  31
ATOM     31  N   UNL d   1       2.295  -0.976  -4.896  0.00  0.00    -0.379 N 
ATOM     32  H   UNL d   1       2.079  -0.198  -5.520  0.00  0.00     0.158 HD
ATOM     33  H   UNL d   1       3.300  -1.122  -4.840  0.00  0.00     0.158 HD
ENDBRANCH  30  31
ENDBRANCH   5  26
TORSDOF 7
