REMARK  12 active torsions:
REMARK  status: ('A' for Active; 'I' for Inactive)
REMARK    1  A    between atoms: C_2  and  O_3 
REMARK    2  A    between atoms: O_3  and  C_4 
REMARK    3  A    between atoms: C_4  and  C_6 
REMARK    4  A    between atoms: C_6  and  C_7 
REMARK    5  A    between atoms: C_7  and  N_8 
REMARK       I    between atoms: N_8  and  C_9 
REMARK    6  A    between atoms: N_8  and  C_32 
REMARK    7  A    between atoms: C_9  and  C_11 
REMARK    8  A    between atoms: C_18  and  C_19 
REMARK    9  A    between atoms: C_19  and  N_20 
REMARK   10  A    between atoms: N_20  and  C_21 
REMARK   11  A    between atoms: C_24  and  C_25 
REMARK   12  A    between atoms: C_25  and  N_26 
ROOT
ATOM      1  C   UNL d   1       4.530   0.270   5.466  0.00  0.00     0.035 C 
ATOM      2  C   UNL d   1       3.940  -0.826   4.831  0.00  0.00     0.019 C 
ATOM      3  C   UNL d   1       2.636  -0.738   4.325  0.00  0.00     0.033 C 
ATOM      4  C   UNL d   1       1.851   0.310   4.793  0.00  0.00     0.064 C 
ATOM      5  C   UNL d   1       2.334   1.293   5.638  0.00  0.00     0.086 C 
ATOM      6  C   UNL d   1       3.709   1.311   5.953  0.00  0.00     0.051 C 
ATOM      7  N   UNL d   1       1.308   2.125   6.002  0.00  0.00    -0.232 NA
ATOM      8  C   UNL d   1       0.202   1.645   5.443  0.00  0.00     0.120 C 
ATOM      9  N   UNL d   1       0.511   0.588   4.606  0.00  0.00    -0.337 N 
ATOM     10  C   UNL d   1      -0.267  -0.285   3.756  0.00  0.00     0.158 C 
ENDROOT
BRANCH   1  11
ATOM     11  C   UNL d   1       6.025   0.392   5.578  0.00  0.00     0.259 C 
ATOM     12  N   UNL d   1       6.882   0.430   4.429  0.00  0.00    -0.298 N 
ATOM     13  O   UNL d   1       6.407   0.578   6.735  0.00  0.00    -0.267 OA
BRANCH  12  14
ATOM     14  C   UNL d   1       6.521   0.410   2.962  0.00  0.00     0.144 C 
BRANCH  14  15
ATOM     15  C   UNL d   1       5.062   0.498   2.612  0.00  0.00     0.131 C 
BRANCH  15  16
ATOM     16  C   UNL d   1       4.579   0.370   1.218  0.00  0.00     0.260 C 
ATOM     17  O   UNL d   1       5.297   0.209   0.231  0.00  0.00    -0.265 OA
BRANCH  16  18
ATOM     18  O   UNL d   1       3.206   0.307   1.233  0.00  0.00    -0.322 OA
BRANCH  18  19
ATOM     19  C   UNL d   1       2.636   0.098  -0.057  0.00  0.00     0.174 C 
ATOM     20  C   UNL d   1       1.118   0.079   0.002  0.00  0.00     0.034 C 
ENDBRANCH  18  19
ENDBRANCH  16  18
ENDBRANCH  15  16
ENDBRANCH  14  15
ENDBRANCH  12  14
BRANCH  12  21
ATOM     21  C   UNL d   1       8.319   0.429   4.673  0.00  0.00     0.132 A 
ATOM     22  C   UNL d   1       9.181   1.187   3.867  0.00  0.00     0.051 A 
ATOM     23  C   UNL d   1      10.560   1.189   4.103  0.00  0.00     0.005 A 
ATOM     24  C   UNL d   1      11.071   0.417   5.130  0.00  0.00     0.019 A 
ATOM     25  C   UNL d   1      10.171  -0.323   5.875  0.00  0.00     0.119 A 
ATOM     26  N   UNL d   1       8.827  -0.335   5.667  0.00  0.00    -0.243 NA
ENDBRANCH  12  21
ENDBRANCH   1  11
BRANCH   8  27
ATOM     27  C   UNL d   1      -1.163   2.208   5.753  0.00  0.00     0.171 C 
BRANCH  27  28
ATOM     28  N   UNL d   1      -2.275   1.450   5.199  0.00  0.00    -0.286 NA
ATOM     29  H   UNL d   1      -2.070   1.262   4.231  0.00  0.00     0.128 HD
BRANCH  28  30
ATOM     30  C   UNL d   1      -3.573   1.919   5.149  0.00  0.00     0.008 C 
ATOM     31  C   UNL d   1      -4.555   0.938   5.008  0.00  0.00     0.024 C 
ATOM     32  C   UNL d   1      -5.887   1.272   4.814  0.00  0.00     0.017 C 
ATOM     33  C   UNL d   1      -6.288   2.614   4.811  0.00  0.00     0.007 C 
ATOM     34  C   UNL d   1      -5.272   3.593   4.837  0.00  0.00     0.017 C 
ATOM     35  C   UNL d   1      -3.927   3.247   4.981  0.00  0.00     0.024 C 
BRANCH  33  36
ATOM     36  C   UNL d   1      -7.723   2.978   4.850  0.00  0.00     0.102 C 
ATOM     37  N   UNL d   1      -8.085   4.242   4.915  0.00  0.00    -0.385 N 
ATOM     38  H   UNL d   1      -7.400   4.986   4.937  0.00  0.00     0.157 HD
ATOM     39  H   UNL d   1      -9.050   4.529   4.976  0.00  0.00     0.157 HD
BRANCH  36  40
ATOM     40  N   UNL d   1      -8.659   2.050   4.875  0.00  0.00    -0.385 N 
ATOM     41  H   UNL d   1      -8.437   1.063   4.867  0.00  0.00     0.157 HD
ATOM     42  H   UNL d   1      -9.642   2.274   4.941  0.00  0.00     0.157 HD
ENDBRANCH  36  40
ENDBRANCH  33  36
ENDBRANCH  28  30
ENDBRANCH  27  28
ENDBRANCH   8  27
TORSDOF 12
