REMARK  8 active torsions:
REMARK  status: ('A' for Active; 'I' for Inactive)
REMARK    1  A    between atoms: C_2  and  C_3 
REMARK    2  A    between atoms: C_3  and  C_4 
REMARK    3  A    between atoms: C_4  and  N_5 
REMARK    4  A    between atoms: C_11  and  C_12 
REMARK       I    between atoms: C_12  and  N_14 
REMARK    5  A    between atoms: N_14  and  N_15 
REMARK    6  A    between atoms: N_18  and  C_19 
REMARK    7  A    between atoms: C_19  and  C_20 
REMARK       I    between atoms: C_20  and  N_22 
REMARK    8  A    between atoms: N_22  and  C_23 
ROOT
ATOM      1  N   UNL d   1       4.923  -2.932  -0.507  0.00  0.00    -0.265 N 
ATOM      2  C   UNL d   1       4.211  -4.069  -0.072  0.00  0.00     0.265 C 
ATOM      3  O   UNL d   1       3.172  -4.030   0.562  0.00  0.00    -0.267 OA
ATOM      4  C   UNL d   1       4.830  -5.354  -0.430  0.00  0.00     0.074 A 
ATOM      5  C   UNL d   1       4.381  -6.766  -0.233  0.00  0.00    -0.021 A 
ATOM      6  C   UNL d   1       3.062  -7.158   0.425  0.00  0.00     0.051 C 
ATOM      7  C   UNL d   1       5.354  -7.663  -0.743  0.00  0.00     0.083 A 
ATOM      8  S   UNL d   1       6.680  -6.802  -1.411  0.00  0.00    -0.065 SA
ATOM      9  C   UNL d   1       6.042  -5.303  -1.061  0.00  0.00     0.098 A 
ATOM     10  N   UNL d   1       6.775  -4.168  -1.399  0.00  0.00    -0.283 N 
ATOM     11  C   UNL d   1       6.212  -2.963  -1.010  0.00  0.00     0.333 C 
ATOM     12  O   UNL d   1       6.802  -1.880  -1.029  0.00  0.00    -0.246 OA
ENDROOT
BRANCH  10  13
ATOM     13  C   UNL d   1       8.126  -4.252  -2.061  0.00  0.00     0.237 C 
BRANCH  13  14
ATOM     14  C   UNL d   1       8.891  -2.977  -2.475  0.00  0.00     0.240 C 
ATOM     15  O   UNL d   1       8.361  -1.872  -2.557  0.00  0.00    -0.271 OA
ATOM     16  N   UNL d   1      10.197  -3.080  -2.929  0.00  0.00    -0.326 N 
ATOM     17  H   UNL d   1      10.441  -3.901  -3.469  0.00  0.00     0.169 HD
BRANCH  16  18
ATOM     18  C   UNL d   1      10.812  -1.838  -3.283  0.00  0.00     0.034 A 
ATOM     19  C   UNL d   1      11.340  -1.648  -4.556  0.00  0.00     0.031 A 
ATOM     20  C   UNL d   1      11.876  -0.400  -4.902  0.00  0.00     0.021 A 
ATOM     21  C   UNL d   1      11.886   0.651  -3.981  0.00  0.00     0.011 A 
ATOM     22 BR   UNL d   1      12.681   2.303  -4.442  0.00  0.00    -0.051 Br
ATOM     23  C   UNL d   1      11.327   0.487  -2.721  0.00  0.00     0.021 A 
ATOM     24  C   UNL d   1      10.789  -0.753  -2.380  0.00  0.00     0.031 A 
ENDBRANCH  16  18
ENDBRANCH  13  14
ENDBRANCH  10  13
BRANCH   1  25
ATOM     25  C   UNL d   1       4.490  -1.541  -0.227  0.00  0.00     0.137 C 
BRANCH  25  26
ATOM     26  C   UNL d   1       3.005  -1.344  -0.262  0.00  0.00     0.020 C 
BRANCH  26  27
ATOM     27  C   UNL d   1       2.575   0.093  -0.041  0.00  0.00    -0.003 C 
ATOM     28  C   UNL d   1       1.058   0.096  -0.031  0.00  0.00     0.005 C 
ENDBRANCH  26  27
ENDBRANCH  25  26
ENDBRANCH   1  25
BRANCH   7  29
ATOM     29  C   UNL d   1       5.472  -9.144  -0.823  0.00  0.00     0.273 C 
ATOM     30  O   UNL d   1       4.617  -9.932  -0.419  0.00  0.00    -0.266 OA
ATOM     31  N   UNL d   1       6.681  -9.628  -1.400  0.00  0.00    -0.289 N 
ATOM     32  H   UNL d   1       7.338  -8.957  -1.800  0.00  0.00     0.183 HD
BRANCH  31  33
ATOM     33  N   UNL d   1       6.920 -11.002  -1.654  0.00  0.00    -0.247 NA
ATOM     34  H   UNL d   1       6.143 -11.535  -1.246  0.00  0.00     0.143 HD
ATOM     35  H   UNL d   1       7.752 -11.301  -1.136  0.00  0.00     0.143 HD
ENDBRANCH  31  33
ENDBRANCH   7  29
TORSDOF 8
