REMARK  14 active torsions:
REMARK  status: ('A' for Active; 'I' for Inactive)
REMARK    1  A    between atoms: C_2  and  N_3 
REMARK    2  A    between atoms: N_3  and  C_4 
REMARK    3  A    between atoms: N_3  and  C_6 
REMARK    4  A    between atoms: C_6  and  C_7 
REMARK    5  A    between atoms: C_7  and  N_8 
REMARK       I    between atoms: N_8  and  C_9 
REMARK    6  A    between atoms: C_9  and  C_11 
REMARK    7  A    between atoms: C_14  and  N_15 
REMARK    8  A    between atoms: N_15  and  C_16 
REMARK    9  A    between atoms: C_16  and  N_18 
REMARK       I    between atoms: N_18  and  C_19 
REMARK   10  A    between atoms: C_19  and  C_21 
REMARK   11  A    between atoms: C_25  and  O_26 
REMARK   12  A    between atoms: O_26  and  C_27 
REMARK   13  A    between atoms: C_27  and  C_28 
REMARK   14  A    between atoms: C_28  and  C_29 
ROOT
ATOM      1  C   UNL d   1      13.580   0.257  -3.248  0.00  0.00     0.179 C 
ATOM      2  S   UNL d   1      12.882  -1.101  -2.514  0.00  0.00    -0.040 SA
ENDROOT
BRANCH   1   3
ATOM      3  N   UNL d   1      12.863   1.376  -3.787  0.00  0.00    -0.333 N 
ATOM      4  H   UNL d   1      13.386   2.187  -4.109  0.00  0.00     0.168 HD
BRANCH   3   5
ATOM      5  C   UNL d   1      11.408   1.549  -3.814  0.00  0.00     0.034 A 
ATOM      6  C   UNL d   1      10.769   2.732  -4.225  0.00  0.00     0.030 A 
ATOM      7  C   UNL d   1       9.348   2.872  -4.112  0.00  0.00     0.019 A 
ATOM      8  C   UNL d   1       8.551   1.824  -3.628  0.00  0.00     0.032 A 
ATOM      9  C   UNL d   1       9.159   0.650  -3.274  0.00  0.00     0.019 A 
ATOM     10  C   UNL d   1      10.530   0.537  -3.420  0.00  0.00     0.030 A 
BRANCH   8  11
ATOM     11  C   UNL d   1       7.068   1.830  -3.640  0.00  0.00     0.251 C 
ATOM     12  N   UNL d   1       6.446   1.177  -2.576  0.00  0.00    -0.355 N 
ATOM     13  H   UNL d   1       7.010   0.849  -1.799  0.00  0.00     0.162 HD
ATOM     14  O   UNL d   1       6.452   2.343  -4.552  0.00  0.00    -0.268 OA
BRANCH  12  15
ATOM     15  C   UNL d   1       5.003   1.153  -2.526  0.00  0.00     0.150 C 
BRANCH  15  16
ATOM     16  C   UNL d   1       4.429   0.551  -1.236  0.00  0.00     0.254 C 
BRANCH  16  17
ATOM     17  N   UNL d   1       2.886   0.589  -1.181  0.00  0.00    -0.070 N 
ATOM     18  H   UNL d   1       2.547   0.042  -1.987  0.00  0.00     0.279 HD
BRANCH  17  19
ATOM     19  C   UNL d   1       2.439  -0.123   0.093  0.00  0.00     0.230 C 
ATOM     20  C   UNL d   1       0.941  -0.340   0.180  0.00  0.00     0.034 C 
ENDBRANCH  17  19
BRANCH  17  21
ATOM     21  C   UNL d   1       2.394   2.023  -1.323  0.00  0.00     0.230 C 
ATOM     22  C   UNL d   1       0.898   2.161  -1.486  0.00  0.00     0.034 C 
ENDBRANCH  17  21
ENDBRANCH  16  17
ENDBRANCH  15  16
ENDBRANCH  12  15
ENDBRANCH   8  11
ENDBRANCH   3   5
ENDBRANCH   1   3
BRANCH   1  23
ATOM     23  N   UNL d   1      14.989   0.323  -3.332  0.00  0.00    -0.299 N 
ATOM     24  C   UNL d   1      15.829  -0.752  -2.939  0.00  0.00     0.257 C 
ATOM     25  O   UNL d   1      15.482  -1.845  -2.492  0.00  0.00    -0.267 OA
ATOM     26  H   UNL d   1      15.436   1.154  -3.693  0.00  0.00     0.171 HD
BRANCH  24  27
ATOM     27  C   UNL d   1      17.285  -0.663  -2.987  0.00  0.00     0.035 A 
ATOM     28  C   UNL d   1      18.001  -1.835  -3.296  0.00  0.00     0.017 A 
ATOM     29  C   UNL d   1      19.368  -1.905  -3.059  0.00  0.00     0.004 A 
ATOM     30  C   UNL d   1      20.029  -0.783  -2.568  0.00  0.00     0.037 A 
ATOM     31  C   UNL d   1      19.312   0.374  -2.241  0.00  0.00     0.069 A 
ATOM     32  C   UNL d   1      17.929   0.425  -2.433  0.00  0.00     0.053 A 
BRANCH  31  33
ATOM     33  O   UNL d   1      20.050   1.394  -1.705  0.00  0.00    -0.351 OA
BRANCH  33  34
ATOM     34  C   UNL d   1      19.271   2.513  -1.285  0.00  0.00     0.180 C 
BRANCH  34  35
ATOM     35  C   UNL d   1      20.180   3.571  -0.696  0.00  0.00     0.065 C 
BRANCH  35  36
ATOM     36  C   UNL d   1      19.409   4.790  -0.258  0.00  0.00    -0.056 A 
ATOM     37  C   UNL d   1      19.844   6.062  -0.640  0.00  0.00     0.007 A 
ATOM     38  C   UNL d   1      19.245   7.198  -0.098  0.00  0.00     0.001 A 
ATOM     39  C   UNL d   1      18.146   7.074   0.751  0.00  0.00     0.000 A 
ATOM     40  C   UNL d   1      17.671   5.813   1.097  0.00  0.00     0.001 A 
ATOM     41  C   UNL d   1      18.309   4.676   0.608  0.00  0.00     0.007 A 
ENDBRANCH  35  36
ENDBRANCH  34  35
ENDBRANCH  33  34
ENDBRANCH  31  33
ENDBRANCH  24  27
ENDBRANCH   1  23
TORSDOF 14
