@<TRIPOS>MOLECULE
*****
 49 50 0 0 0
SMALL
GASTEIGER

@<TRIPOS>ATOM
      1 O           1.0443   -0.2154    0.1869 O.2     1  UNL1       -0.2734
      2 C           2.2681   -0.1013    0.0839 C.2     1  UNL1        0.2390
      3 C           2.9487    0.9209   -0.8448 C.3     1  UNL1        0.0716
      4 S           1.6822    1.9093   -1.7419 S.3     1  UNL1       -0.1511
      5 C           2.6843    3.0283   -2.7812 C.3     1  UNL1       -0.0019
      6 C           1.7194    3.8961   -3.6111 C.3     1  UNL1       -0.0186
      7 C           2.4189    4.9202   -4.4752 C.ar    1  UNL1       -0.0466
      8 C           3.4682    4.5748   -5.3373 C.ar    1  UNL1       -0.0585
      9 C           4.1474    5.5636   -6.0520 C.ar    1  UNL1       -0.0615
     10 C           3.7213    6.8889   -5.9898 C.ar    1  UNL1       -0.0617
     11 C           2.6437    7.2353   -5.1794 C.ar    1  UNL1       -0.0615
     12 C           2.0002    6.2576   -4.4227 C.ar    1  UNL1       -0.0585
     13 N           3.0496   -0.9435    0.8486 N.am    1  UNL1       -0.2325
     14 N           4.4549   -1.0012    0.9044 N.am    1  UNL1       -0.2182
     15 C           5.0471   -1.9322    1.7480 C.2     1  UNL1        0.3160
     16 O           4.4096   -2.7116    2.4560 O.2     1  UNL1       -0.2513
     17 N           6.4292   -1.9082    1.7303 N.am    1  UNL1       -0.2982
     18 C           7.2109   -2.8307    2.5542 C.3     1  UNL1        0.0147
     19 C           8.7232   -2.6516    2.3931 C.3     1  UNL1       -0.0191
     20 C           9.5301   -3.6109    3.2771 C.3     1  UNL1        0.0296
     21 N          10.9894   -3.4368    3.1017 N.ar    1  UNL1       -0.2957
     22 C          11.9295   -4.4631    3.0025 C.ar    1  UNL1        0.0732
     23 C          13.1522   -3.8713    2.8428 C.ar    1  UNL1        0.1870
     24 N          12.9296   -2.5165    2.8706 N.ar    1  UNL1       -0.2011
     25 C          11.6326   -2.2572    3.0542 C.ar    1  UNL1        0.2463
     26 H           3.5652    0.3821   -1.5697 H       1  UNL1        0.0471
     27 H           3.5663    1.5905   -0.2398 H       1  UNL1        0.0471
     28 H           3.3329    2.4387   -3.4362 H       1  UNL1        0.0380
     29 H           3.3128    3.6677   -2.1511 H       1  UNL1        0.0380
     30 H           1.0504    4.4298   -2.9209 H       1  UNL1        0.0321
     31 H           1.0787    3.2792   -4.2546 H       1  UNL1        0.0321
     32 H           3.7709    3.5383   -5.4617 H       1  UNL1        0.0620
     33 H           5.0108    5.3020   -6.6582 H       1  UNL1        0.0618
     34 H           4.2213    7.6507   -6.5815 H       1  UNL1        0.0618
     35 H           2.3085    8.2676   -5.1250 H       1  UNL1        0.0618
     36 H           1.1659    6.5475   -3.7868 H       1  UNL1        0.0620
     37 H           2.5404   -1.6006    1.4455 H       1  UNL1        0.1729
     38 H           4.9930   -0.3732    0.3274 H       1  UNL1        0.1744
     39 H           6.8933   -1.2576    1.1146 H       1  UNL1        0.1503
     40 H           6.9219   -3.8544    2.2900 H       1  UNL1        0.0463
     41 H           6.9263   -2.6683    3.6008 H       1  UNL1        0.0463
     42 H           8.9878   -1.6174    2.6406 H       1  UNL1        0.0297
     43 H           9.0129   -2.8028    1.3463 H       1  UNL1        0.0297
     44 H           9.2819   -4.6510    3.0331 H       1  UNL1        0.0494
     45 H           9.3102   -3.4526    4.3393 H       1  UNL1        0.0494
     46 H          11.6088   -5.4905    3.0522 H       1  UNL1        0.0871
     47 H          14.1579   -4.2329    2.7147 H       1  UNL1        0.1392
     48 H          13.6465   -1.7998    2.7766 H       1  UNL1        0.4538
     49 H          11.1903   -1.2716    3.1309 H       1  UNL1        0.1600
@<TRIPOS>UNITY_ATOM_ATTR
24 1
charge 1
@<TRIPOS>BOND
     1     1     2    2
     2     2     3    1
     3     3     4    1
     4     4     5    1
     5     5     6    1
     6     6     7    1
     7     7     8   ar
     8     8     9   ar
     9     9    10   ar
    10    10    11   ar
    11    11    12   ar
    12     7    12   ar
    13     2    13   am
    14    13    14    1
    15    14    15   am
    16    15    16    2
    17    15    17   am
    18    17    18    1
    19    18    19    1
    20    19    20    1
    21    20    21    1
    22    21    22   ar
    23    22    23   ar
    24    23    24   ar
    25    24    25   ar
    26    21    25   ar
    27     3    26    1
    28     3    27    1
    29     5    28    1
    30     5    29    1
    31     6    30    1
    32     6    31    1
    33     8    32    1
    34     9    33    1
    35    10    34    1
    36    11    35    1
    37    12    36    1
    38    13    37    1
    39    14    38    1
    40    17    39    1
    41    18    40    1
    42    18    41    1
    43    19    42    1
    44    19    43    1
    45    20    44    1
    46    20    45    1
    47    22    46    1
    48    23    47    1
    49    24    48    1
    50    25    49    1
