@<TRIPOS>MOLECULE
*****
 48 49 0 0 0
SMALL
GASTEIGER

@<TRIPOS>ATOM
      1 C           2.1880    0.0932    0.0004 C.3     1  UNL1       -0.0036
      2 C           0.7275   -0.1101   -0.0024 C.ar    1  UNL1        0.1361
      3 C          -0.0307   -1.2445   -0.0052 C.ar    1  UNL1        0.0221
      4 C          -1.3784   -0.8156    0.0073 C.ar    1  UNL1        0.1679
      5 N          -2.5251   -1.6176    0.0212 N.am    1  UNL1       -0.2670
      6 C          -2.4378   -3.0000    0.0320 C.2     1  UNL1        0.2282
      7 O          -1.3445   -3.5776    0.0269 O.2     1  UNL1       -0.2745
      8 C          -3.7554   -3.8222    0.0520 C.3     1  UNL1        0.0710
      9 S          -3.2476   -5.6165    0.0592 S.3     1  UNL1       -0.1421
     10 C          -4.7671   -6.6362    0.0819 C.3     1  UNL1        0.0721
     11 C          -4.3476   -8.1465    0.0906 C.2     1  UNL1        0.2389
     12 O          -3.1792   -8.5538    0.0792 O.2     1  UNL1       -0.2734
     13 N          -5.3846   -9.0586    0.1181 N.am    1  UNL1       -0.2345
     14 N          -5.1222  -10.4821    0.1334 N.am    1  UNL1       -0.2458
     15 C          -6.1898  -11.3666   -0.0098 C.2     1  UNL1        0.1470
     16 S          -7.7393  -10.7497   -0.2891 S.2     1  UNL1       -0.0174
     17 N          -5.8660  -12.7225    0.1572 N.am    1  UNL1       -0.3226
     18 C          -6.8611  -13.8430    0.2036 C.3     1  UNL1        0.0222
     19 C          -6.2688  -15.2764    0.3532 C.3     1  UNL1       -0.0345
     20 C          -7.3778  -16.3504    0.4916 C.3     1  UNL1       -0.0514
     21 C          -8.3564  -16.0393    1.6221 C.3     1  UNL1       -0.0529
     22 C          -8.9409  -14.6565    1.4371 C.3     1  UNL1       -0.0514
     23 C          -7.8355  -13.6229    1.3736 C.3     1  UNL1       -0.0345
     24 N          -1.4315    0.5253    0.0067 N.ar    1  UNL1       -0.0628
     25 O          -0.1029    0.9666    0.0018 O.2     1  UNL1       -0.3581
     26 H           2.7026   -0.8772   -0.0020 H       1  UNL1        0.0309
     27 H           2.5116    0.6308    0.8953 H       1  UNL1        0.0309
     28 H           2.5153    0.6383   -0.8884 H       1  UNL1        0.0309
     29 H           0.3695   -2.2448   -0.0093 H       1  UNL1        0.0687
     30 H          -3.4014   -1.1132    0.0300 H       1  UNL1        0.1563
     31 H          -4.3369   -3.5953   -0.8457 H       1  UNL1        0.0471
     32 H          -4.3173   -3.5826    0.9589 H       1  UNL1        0.0471
     33 H          -5.3656   -6.4264   -0.8101 H       1  UNL1        0.0471
     34 H          -5.3470   -6.4126    0.9828 H       1  UNL1        0.0471
     35 H          -6.3698   -8.8003    0.1041 H       1  UNL1        0.1728
     36 H          -4.1373  -10.7472    0.1271 H       1  UNL1        0.1718
     37 H          -4.8872  -12.9854    0.1399 H       1  UNL1        0.1480
     38 H          -7.3932  -13.8158   -0.7563 H       1  UNL1        0.0498
     39 H          -5.6245  -15.3302    1.2402 H       1  UNL1        0.0283
     40 H          -5.6392  -15.5368   -0.5064 H       1  UNL1        0.0283
     41 H          -6.9384  -17.3395    0.6683 H       1  UNL1        0.0266
     42 H          -7.9383  -16.4192   -0.4500 H       1  UNL1        0.0266
     43 H          -7.8402  -16.0920    2.5884 H       1  UNL1        0.0265
     44 H          -9.1683  -16.7748    1.6498 H       1  UNL1        0.0265
     45 H          -9.6108  -14.4076    2.2667 H       1  UNL1        0.0266
     46 H          -9.5378  -14.6160    0.5169 H       1  UNL1        0.0266
     47 H          -7.2692  -13.5977    2.3125 H       1  UNL1        0.0283
     48 H          -8.3458  -12.6690    1.3113 H       1  UNL1        0.0283
@<TRIPOS>BOND
     1     1     2    1
     2     2     3   ar
     3     3     4   ar
     4     4     5    1
     5     5     6   am
     6     6     7    2
     7     6     8    1
     8     8     9    1
     9     9    10    1
    10    10    11    1
    11    11    12    2
    12    11    13   am
    13    13    14    1
    14    14    15    1
    15    15    16    2
    16    15    17    1
    17    17    18    1
    18    18    19    1
    19    19    20    1
    20    20    21    1
    21    21    22    1
    22    22    23    1
    23    18    23    1
    24     4    24   ar
    25    24    25   ar
    26     2    25   ar
    27     1    26    1
    28     1    27    1
    29     1    28    1
    30     3    29    1
    31     5    30    1
    32     8    31    1
    33     8    32    1
    34    10    33    1
    35    10    34    1
    36    13    35    1
    37    14    36    1
    38    17    37    1
    39    18    38    1
    40    19    39    1
    41    19    40    1
    42    20    41    1
    43    20    42    1
    44    21    43    1
    45    21    44    1
    46    22    45    1
    47    22    46    1
    48    23    47    1
    49    23    48    1
