REMARK  8 active torsions:
REMARK  status: ('A' for Active; 'I' for Inactive)
REMARK    1  A    between atoms: C_2  and  C_3 
REMARK       I    between atoms: C_2  and  N_17 
REMARK    2  A    between atoms: C_3  and  S_4 
REMARK    3  A    between atoms: S_4  and  C_5 
REMARK    4  A    between atoms: C_8  and  C_9 
REMARK    5  A    between atoms: N_17  and  CA_18 
REMARK    6  A    between atoms: CA_18  and  CB_19 
REMARK    7  A    between atoms: CA_18  and  C_29 
REMARK    8  A    between atoms: CB_19  and  CG_20 
ROOT
ATOM      1  O   UNK d   0       0.792   0.759  -0.481  0.00  0.00    -0.273 OA
ATOM      2  C   UNK d   0       2.002   0.693  -0.454  0.00  0.00     0.227 C 
ATOM      3  N   TRP d   1       2.955   1.642  -0.521  0.00  0.00    -0.346 N 
ATOM      4  H   TRP d   1       2.603   2.586  -0.590  0.00  0.00     0.163 HD
ENDROOT
BRANCH   2   5
ATOM      5  C   UNK d   0       2.743  -0.490  -0.299  0.00  0.00     0.180 C 
BRANCH   5   6
ATOM      6  S   UNK d   0       1.711  -1.902  -0.089  0.00  0.00    -0.112 SA
BRANCH   6   7
ATOM      7  C   UNK d   0       2.946  -3.713   1.434  0.00  0.00     0.275 C 
ATOM      8  N   UNK d   0       3.274  -5.389   0.604  0.00  0.00    -0.222 NA
ATOM      9  N   UNK d   0       2.748  -6.392   1.496  0.00  0.00    -0.226 NA
ATOM     10  H   UNK d   0       2.844  -5.475  -0.339  0.00  0.00     0.144 HD
ATOM     11  C   UNK d   0       3.098  -5.748   2.749  0.00  0.00     0.245 C 
ATOM     12  H   UNK d   0       3.245  -7.271   1.321  0.00  0.00     0.143 HD
ATOM     13  O   UNK d   0       2.533  -4.309   2.745  0.00  0.00    -0.336 OA
BRANCH  11  14
ATOM     14  C   UNK d   0       2.701  -6.541   3.985  0.00  0.00    -0.013 A 
ATOM     15  C   UNK d   0       2.999  -7.907   4.213  0.00  0.00     0.011 A 
ATOM     16  C   UNK d   0       2.708  -8.503   5.452  0.00  0.00     0.002 A 
ATOM     17  C   UNK d   0       2.112  -7.749   6.463  0.00  0.00     0.024 A 
ATOM     18  C   UNK d   0       1.806  -6.412   6.236  0.00  0.00     0.034 A 
ATOM     19 CL   UNK d   0       1.058  -5.469   7.460  0.00  0.00    -0.084 Cl
ATOM     20  C   UNK d   0       2.110  -5.818   5.022  0.00  0.00     0.035 A 
ENDBRANCH  11  14
ENDBRANCH   6   7
ENDBRANCH   5   6
ENDBRANCH   2   5
BRANCH   3  21
ATOM     21  CA  TRP d   1       4.493   1.460  -0.369  0.00  0.00     0.190 C 
BRANCH  21  22
ATOM     22  CB  TRP d   1       5.146   0.226  -1.145  0.00  0.00     0.076 C 
BRANCH  22  23
ATOM     23  CG  TRP d   1       4.979  -1.427  -0.505  0.00  0.00    -0.032 C 
ATOM     24  CD1 TRP d   1       5.233  -2.522  -1.328  0.00  0.00     0.096 C 
ATOM     25  NE1 TRP d   1       4.495  -3.671  -0.990  0.00  0.00    -0.368 N 
ATOM     26  CE2 TRP d   1       3.229  -3.393  -0.447  0.00  0.00     0.021 C 
ATOM     27  HE1 TRP d   1       4.868  -4.603  -1.065  0.00  0.00     0.165 HD
ATOM     28  CZ2 TRP d   1       1.496  -4.020   0.184  0.00  0.00     0.051 C 
ATOM     29  CD2 TRP d   1       3.970  -2.081   0.600  0.00  0.00    -0.022 C 
ATOM     30  CH2 TRP d   1       0.744  -3.127   1.593  0.00  0.00     0.006 C 
ATOM     31  CZ3 TRP d   1       1.321  -1.815   2.297  0.00  0.00     0.005 C 
ATOM     32  CE3 TRP d   1       2.878  -1.380   1.924  0.00  0.00     0.035 C 
ENDBRANCH  22  23
ENDBRANCH  21  22
BRANCH  21  33
ATOM     33  C   TRP d   1       5.099   2.826  -0.730  0.00  0.00     0.197 C 
ATOM     34  O   TRP d   1       4.225   3.727  -0.936  0.00  0.00    -0.646 OA
ATOM     35  OXT TRP d   1       6.353   2.893  -0.736  0.00  0.00    -0.646 OA
ENDBRANCH  21  33
ENDBRANCH   3  21
TORSDOF 8
