REMARK  10 active torsions:
REMARK  status: ('A' for Active; 'I' for Inactive)
REMARK    1  A    between atoms: O_2  and  C_3 
REMARK    2  A    between atoms: C_3  and  C_4 
REMARK    3  A    between atoms: C_4  and  O_5 
REMARK    4  A    between atoms: O_5  and  C_6 
REMARK       I    between atoms: C_6  and  N_8 
REMARK    5  A    between atoms: N_8  and  C_9 
REMARK    6  A    between atoms: C_13  and  N_14 
REMARK       I    between atoms: N_14  and  C_15 
REMARK    7  A    between atoms: C_15  and  C_17 
REMARK    8  A    between atoms: C_17  and  C_18 
REMARK    9  A    between atoms: C_18  and  N_19 
REMARK   10  A    between atoms: N_19  and  C_20 
ROOT
ATOM      1  N   UNL d   1      11.162   3.812   0.839  0.00  0.00    -0.327 N 
ATOM      2  C   UNL d   1      10.624   3.659  -0.438  0.00  0.00     0.223 C 
ATOM      3  O   UNL d   1       9.442   3.427  -0.686  0.00  0.00    -0.273 OA
ATOM      4  H   UNL d   1      12.136   4.071   0.937  0.00  0.00     0.169 HD
ENDROOT
BRANCH   1   5
ATOM      5  C   UNL d   1      10.390   3.688   2.035  0.00  0.00     0.036 A 
ATOM      6  C   UNL d   1      10.939   3.938   3.293  0.00  0.00     0.029 A 
ATOM      7  C   UNL d   1      10.113   3.889   4.436  0.00  0.00     0.004 A 
ATOM      8  C   UNL d   1       8.749   3.545   4.340  0.00  0.00     0.030 A 
ATOM      9  C   UNL d   1       8.203   3.258   3.097  0.00  0.00     0.039 A 
ATOM     10  C   UNL d   1       9.036   3.338   1.987  0.00  0.00     0.059 A 
BRANCH   9  11
ATOM     11  N   UNL d   1       6.830   2.955   2.896  0.00  0.00    -0.303 N 
ATOM     12  C   UNL d   1       6.382   2.057   1.937  0.00  0.00     0.365 C 
ATOM     13  O   UNL d   1       7.103   1.320   1.264  0.00  0.00    -0.238 OA
ATOM     14  H   UNL d   1       6.142   3.393   3.490  0.00  0.00     0.171 HD
BRANCH  12  15
ATOM     15  O   UNL d   1       5.017   2.011   1.857  0.00  0.00    -0.302 OA
BRANCH  15  16
ATOM     16  C   UNL d   1       4.534   1.015   0.916  0.00  0.00     0.207 C 
BRANCH  16  17
ATOM     17  C   UNL d   1       3.003   0.988   0.893  0.00  0.00     0.193 C 
BRANCH  17  18
ATOM     18  O   UNL d   1       2.518   0.001  -0.025  0.00  0.00    -0.394 OA
ATOM     19  C   UNL d   1       1.093  -0.025  -0.051  0.00  0.00     0.201 C 
ENDBRANCH  17  18
ENDBRANCH  16  17
ENDBRANCH  15  16
ENDBRANCH  12  15
ENDBRANCH   9  11
ENDBRANCH   1   5
BRANCH   2  20
ATOM     20  C   UNL d   1      11.558   3.825  -1.613  0.00  0.00     0.122 C 
BRANCH  20  21
ATOM     21  C   UNL d   1      10.716   3.563  -2.877  0.00  0.00     0.129 C 
BRANCH  21  22
ATOM     22  N   UNL d   1      11.514   3.583  -4.084  0.00  0.00    -0.389 N 
ATOM     23  H   UNL d   1      12.473   3.904  -4.049  0.00  0.00     0.159 HD
BRANCH  22  24
ATOM     24  C   UNL d   1      10.921   3.503  -5.336  0.00  0.00     0.028 A 
ATOM     25  C   UNL d   1      11.600   2.830  -6.356  0.00  0.00     0.036 A 
ATOM     26  C   UNL d   1      11.099   2.791  -7.664  0.00  0.00    -0.059 A 
ATOM     27  C   UNL d   1      11.939   2.303  -8.803  0.00  0.00     0.048 C 
ATOM     28  C   UNL d   1       9.839   3.326  -7.935  0.00  0.00     0.013 A 
ATOM     29  C   UNL d   1       9.132   3.990  -6.935  0.00  0.00    -0.059 A 
ATOM     30  C   UNL d   1       7.847   4.693  -7.251  0.00  0.00     0.048 C 
ATOM     31  C   UNL d   1       9.675   4.065  -5.642  0.00  0.00     0.036 A 
ENDBRANCH  22  24
ENDBRANCH  21  22
ENDBRANCH  20  21
ENDBRANCH   2  20
TORSDOF 10
