REMARK  8 active torsions:
REMARK  status: ('A' for Active; 'I' for Inactive)
REMARK    1  A    between atoms: C_2  and  C_3 
REMARK       I    between atoms: C_2  and  N_17 
REMARK    2  A    between atoms: C_3  and  S_4 
REMARK    3  A    between atoms: S_4  and  C_5 
REMARK    4  A    between atoms: C_8  and  C_9 
REMARK    5  A    between atoms: CA_18  and  N_17 
REMARK    6  A    between atoms: CA_18  and  C_29 
REMARK    7  A    between atoms: CA_18  and  CB_19 
REMARK    8  A    between atoms: CB_19  and  CG_20 
ROOT
ATOM      1  O   UNK d   0       6.396   0.304  -0.719  0.00  0.00    -0.273 OA
ATOM      2  C   UNK d   0       6.135   0.797   0.386  0.00  0.00     0.227 C 
ATOM      3  N   TRP d   1       5.192   0.230   1.220  0.00  0.00    -0.346 N 
ATOM      4  H   TRP d   1       4.849   0.685   2.054  0.00  0.00     0.163 HD
ENDROOT
BRANCH   2   5
ATOM      5  C   UNK d   0       6.736   2.138   0.855  0.00  0.00     0.180 C 
BRANCH   5   6
ATOM      6  S   UNK d   0       7.933   2.718  -0.432  0.00  0.00    -0.112 SA
BRANCH   6   7
ATOM      7  C   UNK d   0       8.633   4.232   0.215  0.00  0.00     0.275 C 
ATOM      8  N   UNK d   0       8.085   4.726   1.473  0.00  0.00    -0.222 NA
ATOM      9  N   UNK d   0       8.121   6.183   1.360  0.00  0.00    -0.226 NA
ATOM     10  H   UNK d   0       8.657   4.361   2.237  0.00  0.00     0.144 HD
ATOM     11  C   UNK d   0       8.708   6.466   0.042  0.00  0.00     0.245 C 
ATOM     12  H   UNK d   0       8.684   6.633   2.080  0.00  0.00     0.143 HD
ATOM     13  O   UNK d   0       8.552   5.294  -0.744  0.00  0.00    -0.336 OA
BRANCH  11  14
ATOM     14  C   UNK d   0       8.151   7.739  -0.583  0.00  0.00    -0.013 A 
ATOM     15  C   UNK d   0       8.265   8.952   0.128  0.00  0.00     0.011 A 
ATOM     16  C   UNK d   0       7.826  10.163  -0.412  0.00  0.00     0.002 A 
ATOM     17  C   UNK d   0       7.257  10.187  -1.681  0.00  0.00     0.024 A 
ATOM     18  C   UNK d   0       7.132   8.999  -2.401  0.00  0.00     0.034 A 
ATOM     19 CL   UNK d   0       6.421   9.048  -3.970  0.00  0.00    -0.084 Cl
ATOM     20  C   UNK d   0       7.581   7.783  -1.867  0.00  0.00     0.035 A 
ENDBRANCH  11  14
ENDBRANCH   6   7
ENDBRANCH   5   6
ENDBRANCH   2   5
BRANCH   3  21
ATOM     21  CA  TRP d   1       4.513  -1.044   0.841  0.00  0.00     0.190 C 
BRANCH  21  22
ATOM     22  C   TRP d   1       4.986  -2.239   1.738  0.00  0.00     0.197 C 
ATOM     23  O   TRP d   1       4.081  -2.938   2.278  0.00  0.00    -0.646 OA
ATOM     24  OXT TRP d   1       6.243  -2.349   1.867  0.00  0.00    -0.646 OA
ENDBRANCH  21  22
BRANCH  21  25
ATOM     25  CB  TRP d   1       2.973  -0.935   0.788  0.00  0.00     0.077 C 
BRANCH  25  26
ATOM     26  CG  TRP d   1       2.373   0.389   0.364  0.00  0.00    -0.028 A 
ATOM     27  CD1 TRP d   1       2.997   1.580   0.056  0.00  0.00     0.096 A 
ATOM     28  NE1 TRP d   1       2.072   2.562  -0.102  0.00  0.00    -0.365 N 
ATOM     29  CE2 TRP d   1       0.820   2.032   0.021  0.00  0.00     0.042 A 
ATOM     30  HE1 TRP d   1       2.297   3.532  -0.269  0.00  0.00     0.165 HD
ATOM     31  CZ2 TRP d   1      -0.419   2.664  -0.053  0.00  0.00     0.030 A 
ATOM     32  CD2 TRP d   1       0.971   0.666   0.268  0.00  0.00    -0.002 A 
ATOM     33  CH2 TRP d   1      -1.548   1.865   0.125  0.00  0.00     0.002 A 
ATOM     34  CZ3 TRP d   1      -1.437   0.492   0.343  0.00  0.00     0.001 A 
ATOM     35  CE3 TRP d   1      -0.184  -0.123   0.413  0.00  0.00     0.014 A 
ENDBRANCH  25  26
ENDBRANCH  21  25
ENDBRANCH   3  21
TORSDOF 8
