REMARK  6 active torsions:
REMARK  status: ('A' for Active; 'I' for Inactive)
REMARK       I    between atoms: C_2  and  N_3 
REMARK    1  A    between atoms: C_2  and  C_15 
REMARK    2  A    between atoms: N_3  and  C_4 
REMARK    3  A    between atoms: C_4  and  C_5 
REMARK    4  A    between atoms: C_5  and  C_6 
REMARK       I    between atoms: C_15  and  N_17 
REMARK    5  A    between atoms: N_17  and  C_18 
REMARK    6  A    between atoms: C_23  and  N_24 
ROOT
ATOM      1  O   UNL d   1       1.119  -0.053   0.052  0.00  0.00    -0.262 OA
ATOM      2  C   UNL d   1       2.350  -0.051   0.043  0.00  0.00     0.309 C 
ATOM      3  N   UNL d   1       3.067   0.503  -1.005  0.00  0.00    -0.353 N 
ATOM      4  H   UNL d   1       4.072   0.482  -1.031  0.00  0.00     0.162 HD
ENDROOT
BRANCH   2   5
ATOM      5  C   UNL d   1       3.108  -0.699   1.233  0.00  0.00     0.313 C 
ATOM      6  O   UNL d   1       2.426  -1.172   2.143  0.00  0.00    -0.262 OA
ATOM      7  N   UNL d   1       4.515  -0.669   1.261  0.00  0.00    -0.319 N 
ATOM      8  H   UNL d   1       5.008  -0.042   0.646  0.00  0.00     0.169 HD
BRANCH   7   9
ATOM      9  C   UNL d   1       5.223  -1.232   2.363  0.00  0.00     0.037 A 
ATOM     10  C   UNL d   1       4.829  -2.468   2.881  0.00  0.00     0.031 A 
ATOM     11  C   UNL d   1       5.443  -3.008   4.013  0.00  0.00     0.029 A 
ATOM     12  C   UNL d   1       6.470  -2.326   4.670  0.00  0.00     0.067 A 
ATOM     13 CL   UNL d   1       7.056  -3.112   6.095  0.00  0.00    -0.082 Cl
ATOM     14  C   UNL d   1       6.914  -1.105   4.141  0.00  0.00     0.126 A 
ATOM     15  C   UNL d   1       6.303  -0.570   2.966  0.00  0.00     0.067 A 
BRANCH  14  16
ATOM     16  N   UNL d   1       7.997  -0.326   4.774  0.00  0.00    -0.114 N 
ATOM     17  O   UNL d   1       8.311   0.745   4.234  0.00  0.00    -0.532 OA
ATOM     18  O   UNL d   1       8.550  -0.758   5.791  0.00  0.00    -0.532 OA
ENDBRANCH  14  16
ENDBRANCH   7   9
ENDBRANCH   2   5
BRANCH   3  19
ATOM     19  C   UNL d   1       2.345   1.082  -2.141  0.00  0.00     0.128 C 
BRANCH  19  20
ATOM     20  C   UNL d   1       3.287   1.617  -3.214  0.00  0.00     0.060 C 
BRANCH  20  21
ATOM     21  C   UNL d   1       2.579   2.237  -4.375  0.00  0.00    -0.029 A 
ATOM     22  C   UNL d   1       1.866   1.591  -5.367  0.00  0.00     0.096 A 
ATOM     23  N   UNL d   1       1.414   2.533  -6.256  0.00  0.00    -0.365 N 
ATOM     24  C   UNL d   1       1.858   3.783  -5.891  0.00  0.00     0.042 A 
ATOM     25  H   UNL d   1       0.865   2.337  -7.082  0.00  0.00     0.165 HD
ATOM     26  C   UNL d   1       1.705   5.027  -6.517  0.00  0.00     0.030 A 
ATOM     27  C   UNL d   1       2.566   3.628  -4.699  0.00  0.00    -0.002 A 
ATOM     28  C   UNL d   1       2.308   6.136  -5.910  0.00  0.00     0.002 A 
ATOM     29  C   UNL d   1       3.005   6.011  -4.711  0.00  0.00     0.001 A 
ATOM     30  C   UNL d   1       3.128   4.768  -4.091  0.00  0.00     0.014 A 
ENDBRANCH  20  21
ENDBRANCH  19  20
ENDBRANCH   3  19
TORSDOF 6
