@<TRIPOS>MOLECULE
*****
 31 32 0 0 0
SMALL
GASTEIGER

@<TRIPOS>ATOM
      1 C           2.4890    1.1833   -0.0007 C.3     1  UNL1       -0.0396
      2 C           1.2469    0.3382    0.0044 C.ar    1  UNL1       -0.0470
      3 C           1.2983   -1.0579    0.0187 C.ar    1  UNL1       -0.0579
      4 C           0.1177   -1.8249    0.0010 C.ar    1  UNL1       -0.0458
      5 C          -1.1475   -1.2158   -0.0201 C.ar    1  UNL1        0.0795
      6 C          -2.4271   -2.0196   -0.0617 C.2     1  UNL1        0.2637
      7 O          -3.5080   -1.4258   -0.0780 O.2     1  UNL1       -0.2685
      8 N          -2.3483   -3.4096   -0.0866 N.am    1  UNL1       -0.2300
      9 N          -3.5322   -4.1978   -0.1842 N.am    1  UNL1       -0.2301
     10 C          -3.4283   -5.5832   -0.1279 C.2     1  UNL1        0.2607
     11 O          -2.3359   -6.1500   -0.0255 O.2     1  UNL1       -0.2686
     12 C          -4.6903   -6.3324   -0.1819 C.ar    1  UNL1        0.0451
     13 C          -5.8212   -6.0718   -1.0333 C.ar    1  UNL1       -0.0426
     14 C          -6.8412   -6.9882   -0.8779 C.ar    1  UNL1       -0.0236
     15 S          -6.4646   -8.1693    0.2957 S.2     1  UNL1       -0.1043
     16 C          -4.9211   -7.4765    0.5687 C.ar    1  UNL1       -0.0122
     17 C          -1.1830    0.1941   -0.0116 C.ar    1  UNL1        0.1292
     18 O          -2.3390    0.9326   -0.0051 O.3     1  UNL1       -0.5060
     19 C          -0.0058    0.9562   -0.0067 C.ar    1  UNL1       -0.0165
     20 H           3.3999    0.5758    0.0031 H       1  UNL1        0.0278
     21 H           2.5109    1.8283    0.8844 H       1  UNL1        0.0278
     22 H           2.5116    1.8137   -0.8966 H       1  UNL1        0.0278
     23 H           2.2600   -1.5688    0.0406 H       1  UNL1        0.0620
     24 H           0.2340   -2.9024    0.0036 H       1  UNL1        0.0626
     25 H          -1.4830   -3.9433   -0.0739 H       1  UNL1        0.1731
     26 H          -4.4213   -3.7052   -0.1385 H       1  UNL1        0.1731
     27 H          -5.8695   -5.2719   -1.7610 H       1  UNL1        0.0630
     28 H          -7.7867   -7.0299   -1.4041 H       1  UNL1        0.0693
     29 H          -4.2605   -7.9490    1.2842 H       1  UNL1        0.0701
     30 H          -3.1004    0.3146   -0.0002 H       1  UNL1        0.2922
     31 H          -0.0708    2.0434   -0.0121 H       1  UNL1        0.0657
@<TRIPOS>BOND
     1     1     2    1
     2     2     3   ar
     3     3     4   ar
     4     4     5   ar
     5     5     6    1
     6     6     7    2
     7     6     8   am
     8     8     9    1
     9     9    10   am
    10    10    11    2
    11    10    12    1
    12    12    13   ar
    13    13    14   ar
    14    14    15   ar
    15    15    16   ar
    16    12    16   ar
    17     5    17   ar
    18    17    18    1
    19    17    19   ar
    20     2    19   ar
    21     1    20    1
    22     1    21    1
    23     1    22    1
    24     3    23    1
    25     4    24    1
    26     8    25    1
    27     9    26    1
    28    13    27    1
    29    14    28    1
    30    16    29    1
    31    18    30    1
    32    19    31    1
