REMARK  7 active torsions:
REMARK  status: ('A' for Active; 'I' for Inactive)
REMARK    1  A    between atoms: O_2  and  C_3 
REMARK    2  A    between atoms: C_12  and  C_13 
REMARK    3  A    between atoms: C_13  and  C_14 
REMARK       I    between atoms: C_14  and  N_16 
REMARK    4  A    between atoms: N_16  and  C_17 
REMARK    5  A    between atoms: C_17  and  C_18 
REMARK    6  A    between atoms: C_21  and  S_22 
REMARK    7  A    between atoms: S_22  and  N_23 
ROOT
ATOM      1  C   UNL d   1       7.455   3.323   3.315  0.00  0.00     0.222 C 
ATOM      2  O   UNL d   1       7.963   2.626   4.181  0.00  0.00    -0.273 OA
ATOM      3  N   UNL d   1       7.960   4.593   3.245  0.00  0.00    -0.357 N 
ATOM      4  H   UNL d   1       7.672   5.283   2.565  0.00  0.00     0.162 HD
ENDROOT
BRANCH   1   5
ATOM      5  C   UNL d   1       6.340   2.889   2.350  0.00  0.00     0.148 C 
BRANCH   5   6
ATOM      6  C   UNL d   1       5.745   1.470   2.429  0.00  0.00     0.033 A 
ATOM      7  C   UNL d   1       6.248   0.473   3.445  0.00  0.00     0.295 A 
ATOM      8  O   UNL d   1       5.698  -0.774   3.462  0.00  0.00    -0.274 OA
ATOM      9  O   UNL d   1       7.113   0.626   4.291  0.00  0.00    -0.259 OA
ATOM     10  C   UNL d   1       4.684  -1.143   2.609  0.00  0.00     0.093 A 
ATOM     11  C   UNL d   1       4.268  -2.452   2.819  0.00  0.00     0.045 A 
ATOM     12  C   UNL d   1       4.159  -0.278   1.659  0.00  0.00     0.038 A 
ATOM     13  C   UNL d   1       3.271  -2.966   2.021  0.00  0.00    -0.057 A 
ATOM     14  C   UNL d   1       2.707  -2.143   1.047  0.00  0.00     0.044 A 
ATOM     15  C   UNL d   1       2.817  -4.372   2.209  0.00  0.00     0.048 C 
ATOM     16  C   UNL d   1       3.113  -0.807   0.885  0.00  0.00     0.082 A 
ATOM     17  C   UNL d   1       4.747   1.089   1.579  0.00  0.00    -0.034 A 
ATOM     18  C   UNL d   1       4.163   1.988   0.510  0.00  0.00     0.050 C 
BRANCH  16  19
ATOM     19  O   UNL d   1       2.530  -0.062  -0.108  0.00  0.00    -0.355 OA
ATOM     20  C   UNL d   1       1.105  -0.027  -0.037  0.00  0.00     0.210 C 
ENDBRANCH  16  19
ENDBRANCH   5   6
ENDBRANCH   1   5
BRANCH   3  21
ATOM     21  C   UNL d   1       9.010   4.866   4.218  0.00  0.00     0.161 C 
BRANCH  21  22
ATOM     22  C   UNL d   1       9.523   6.256   4.100  0.00  0.00    -0.040 C 
ATOM     23  C   UNL d   1       8.834   7.306   4.717  0.00  0.00     0.010 C 
ATOM     24  C   UNL d   1       9.169   8.619   4.413  0.00  0.00     0.026 C 
ATOM     25  C   UNL d   1      10.271   8.870   3.591  0.00  0.00     0.079 C 
ATOM     26  C   UNL d   1      11.063   7.825   3.111  0.00  0.00     0.026 C 
ATOM     27  C   UNL d   1      10.653   6.514   3.318  0.00  0.00     0.010 C 
BRANCH  25  28
ATOM     28  S   UNL d   1      10.647  10.539   3.131  0.00  0.00     0.256 S 
ATOM     29  O   UNL d   1      10.672  11.333   4.335  0.00  0.00    -0.201 OA
ATOM     30  O   UNL d   1      11.728  10.514   2.174  0.00  0.00    -0.201 OA
BRANCH  28  31
ATOM     31  N   UNL d   1       9.274  10.963   2.278  0.00  0.00    -0.324 N 
ATOM     32  H   UNL d   1       8.454  11.199   2.826  0.00  0.00     0.169 HD
ATOM     33  H   UNL d   1       9.181  10.569   1.347  0.00  0.00     0.169 HD
ENDBRANCH  28  31
ENDBRANCH  25  28
ENDBRANCH  21  22
ENDBRANCH   3  21
TORSDOF 7
