@<TRIPOS>MOLECULE
*****
 72 76 0 0 0
SMALL
GASTEIGER

@<TRIPOS>ATOM
      1 C           1.0075    0.0824    0.0764 C.3     1  UNL1       -0.0653
      2 C           2.5372    0.0944    0.0873 C.3     1  UNL1       -0.0558
      3 C           3.1410    1.2313    0.9571 C.3     1  UNL1       -0.0502
      4 C           4.7331    1.1804    0.9757 C.3     1  UNL1       -0.0185
      5 C           5.5081    2.2200    1.8915 C.3     1  UNL1        0.0928
      6 O           7.1727    2.0193    2.2827 O.3     1  UNL1       -0.4610
      7 C           7.7188    3.1573    3.0970 C.2     1  UNL1        0.3447
      8 O           6.8323    3.9860    2.8378 O.2     1  UNL1       -0.2448
      9 C           9.3033    3.7456    3.7754 C.ar    1  UNL1        0.1272
     10 C           9.3084    4.9019    3.0233 C.ar    1  UNL1        0.1362
     11 N           8.5961    5.9658    3.7988 N.pl3   1  UNL1       -0.2000
     12 S           6.9423    5.7748    4.1825 S.O2    1  UNL1        0.0735
     13 O           6.1626    6.1338    3.0064 O.2     1  UNL1       -0.1499
     14 O           6.7371    4.5889    5.0187 O.2     1  UNL1       -0.1499
     15 C           6.4390    6.9630    5.2683 C.ar    1  UNL1        0.1086
     16 C           5.4435    6.6675    6.2131 C.ar    1  UNL1       -0.0348
     17 C           4.9029    7.7363    6.8677 C.ar    1  UNL1       -0.0570
     18 C           5.4560    9.0019    6.6293 C.ar    1  UNL1       -0.0503
     19 C           4.8761   10.1981    7.2876 C.3     1  UNL1       -0.0397
     20 C           6.5292    9.2097    5.7452 C.ar    1  UNL1       -0.0570
     21 C           6.9634    8.1890    4.9751 C.ar    1  UNL1       -0.0348
     22 N          10.6764    4.6045    2.6064 N.ar    1  UNL1       -0.3103
     23 C          11.4302    3.3737    2.2392 C.3     1  UNL1        0.0304
     24 C          10.5428    2.3389    1.6582 C.3     1  UNL1       -0.0095
     25 C          11.3110    1.3012    0.9394 C.ar    1  UNL1       -0.0457
     26 C          12.1729    1.6540   -0.1004 C.ar    1  UNL1       -0.0585
     27 C          12.5937    0.6743   -0.9775 C.ar    1  UNL1       -0.0615
     28 C          12.2902   -0.6595   -0.7153 C.ar    1  UNL1       -0.0617
     29 C          11.6016   -1.0199    0.4416 C.ar    1  UNL1       -0.0615
     30 C          11.0588   -0.0351    1.2429 C.ar    1  UNL1       -0.0585
     31 C          11.4126    5.1860    3.5459 C.ar    1  UNL1        0.1621
     32 N          12.4517    5.9269    3.1950 N.ar    1  UNL1       -0.2258
     33 C          12.9106    6.8001    4.0214 C.ar    1  UNL1        0.0915
     34 C          14.0063    7.5588    3.4480 C.ar    1  UNL1       -0.0342
     35 C          14.8169    8.4481    4.1297 C.ar    1  UNL1       -0.0596
     36 C          14.4605    8.6130    5.4359 C.ar    1  UNL1       -0.0596
     37 C          13.1997    7.9924    5.9184 C.ar    1  UNL1       -0.0342
     38 C          12.2776    6.9191    5.2626 C.ar    1  UNL1        0.0900
     39 N          10.8957    6.0063    5.5529 N.ar    1  UNL1       -0.2411
     40 C          10.5958    4.8329    4.6260 C.ar    1  UNL1        0.1242
     41 H           0.6306   -0.7411   -0.5445 H       1  UNL1        0.0230
     42 H           0.6058    1.0148   -0.3323 H       1  UNL1        0.0230
     43 H           0.6053   -0.0543    1.0852 H       1  UNL1        0.0230
     44 H           2.8868    0.1891   -0.9477 H       1  UNL1        0.0263
     45 H           2.8839   -0.8768    0.4591 H       1  UNL1        0.0263
     46 H           2.7352    1.1260    1.9717 H       1  UNL1        0.0266
     47 H           2.7599    2.1866    0.5662 H       1  UNL1        0.0266
     48 H           5.0418    1.3052   -0.0702 H       1  UNL1        0.0298
     49 H           5.0142    0.1815    1.3001 H       1  UNL1        0.0298
     50 H           5.0190    2.1969    2.8725 H       1  UNL1        0.0697
     51 H           5.2958    3.2232    1.4518 H       1  UNL1        0.0697
     52 H           9.0922    6.3960    4.5833 H       1  UNL1        0.1752
     53 H           5.0607    5.6575    6.3887 H       1  UNL1        0.0637
     54 H           4.0648    7.5907    7.5440 H       1  UNL1        0.0621
     55 H           4.0248    9.9202    7.9101 H       1  UNL1        0.0278
     56 H           4.5338   10.8873    6.5106 H       1  UNL1        0.0278
     57 H           5.6480   10.6625    7.9020 H       1  UNL1        0.0278
     58 H           7.0068   10.1683    5.6105 H       1  UNL1        0.0621
     59 H           7.6437    8.3141    4.1381 H       1  UNL1        0.0637
     60 H          11.9686    2.9461    3.1231 H       1  UNL1        0.0496
     61 H          12.2315    3.7372    1.5883 H       1  UNL1        0.0496
     62 H           9.8419    2.8297    0.9819 H       1  UNL1        0.0330
     63 H           9.9690    1.8515    2.4545 H       1  UNL1        0.0330
     64 H          12.4729    2.6854   -0.2713 H       1  UNL1        0.0620
     65 H          13.1393    0.9551   -1.8721 H       1  UNL1        0.0618
     66 H          12.5957   -1.4248   -1.4189 H       1  UNL1        0.0618
     67 H          11.4487   -2.0622    0.6972 H       1  UNL1        0.0618
     68 H          10.4138   -0.3051    2.0773 H       1  UNL1        0.0620
     69 H          14.2429    7.4276    2.3866 H       1  UNL1        0.0639
     70 H          15.6634    8.9600    3.6550 H       1  UNL1        0.0618
     71 H          15.1339    9.2199    6.0600 H       1  UNL1        0.0618
     72 H          12.9253    8.4352    6.8824 H       1  UNL1        0.0639
@<TRIPOS>BOND
     1     1     2    1
     2     2     3    1
     3     3     4    1
     4     4     5    1
     5     5     6    1
     6     6     7    1
     7     7     8    2
     8     7     9    1
     9     9    10   ar
    10    10    11    1
    11    11    12    1
    12    12    13    2
    13    12    14    2
    14    12    15    1
    15    15    16   ar
    16    16    17   ar
    17    17    18   ar
    18    18    19    1
    19    18    20   ar
    20    20    21   ar
    21    15    21   ar
    22    10    22   ar
    23    22    23    1
    24    23    24    1
    25    24    25    1
    26    25    26   ar
    27    26    27   ar
    28    27    28   ar
    29    28    29   ar
    30    29    30   ar
    31    25    30   ar
    32    22    31   ar
    33    31    32   ar
    34    32    33   ar
    35    33    34   ar
    36    34    35   ar
    37    35    36   ar
    38    36    37   ar
    39    37    38   ar
    40    33    38   ar
    41    38    39   ar
    42    39    40   ar
    43     9    40   ar
    44    31    40   ar
    45     1    41    1
    46     1    42    1
    47     1    43    1
    48     2    44    1
    49     2    45    1
    50     3    46    1
    51     3    47    1
    52     4    48    1
    53     4    49    1
    54     5    50    1
    55     5    51    1
    56    11    52    1
    57    16    53    1
    58    17    54    1
    59    19    55    1
    60    19    56    1
    61    19    57    1
    62    20    58    1
    63    21    59    1
    64    23    60    1
    65    23    61    1
    66    24    62    1
    67    24    63    1
    68    26    64    1
    69    27    65    1
    70    28    66    1
    71    29    67    1
    72    30    68    1
    73    34    69    1
    74    35    70    1
    75    36    71    1
    76    37    72    1
