@<TRIPOS>MOLECULE
*****
 43 44 0 0 0
SMALL
GASTEIGER

@<TRIPOS>ATOM
      1 O           1.0897    0.0332   -0.0780 O.2     1  UNL1       -0.2705
      2 C           2.3168   -0.0498   -0.0015 C.2     1  UNL1        0.2667
      3 C           3.0141   -0.9923    0.9914 C.3     1  UNL1        0.1667
      4 O           2.0831   -1.7550    1.7712 O.3     1  UNL1       -0.4812
      5 C           2.6525   -2.6349    2.6613 C.ar    1  UNL1        0.1408
      6 C           3.6436   -2.2262    3.5587 C.ar    1  UNL1       -0.0001
      7 C           4.2060   -3.1429    4.4503 C.ar    1  UNL1        0.0445
      8 CL          5.4485   -2.6255    5.5226 Cl      1  UNL1       -0.0834
      9 C           3.7806   -4.4685    4.4734 C.ar    1  UNL1       -0.0418
     10 C           2.7551   -4.8737    3.6181 C.ar    1  UNL1       -0.0385
     11 C           2.1780   -3.9559    2.7294 C.ar    1  UNL1        0.0826
     12 CL          0.8935   -4.5089    1.7185 Cl      1  UNL1       -0.0798
     13 N           3.0942    0.7439   -0.8276 N.am    1  UNL1       -0.2304
     14 N           4.5070    0.8065   -0.8825 N.am    1  UNL1       -0.2181
     15 C           5.1021    1.6748   -1.7912 C.2     1  UNL1        0.3160
     16 O           4.4657    2.4015   -2.5522 O.2     1  UNL1       -0.2513
     17 N           6.4856    1.6570   -1.7672 N.am    1  UNL1       -0.2982
     18 C           7.2691    2.5152   -2.6591 C.3     1  UNL1        0.0147
     19 C           8.7807    2.3498   -2.4837 C.3     1  UNL1       -0.0191
     20 C           9.5947    3.2404   -3.4325 C.3     1  UNL1        0.0296
     21 N          11.0524    3.0557   -3.2500 N.ar    1  UNL1       -0.2957
     22 C          11.7269    1.8375   -3.1957 C.ar    1  UNL1        0.0732
     23 C          13.0505    2.1170   -3.0136 C.ar    1  UNL1        0.1870
     24 N          13.1533    3.4860   -2.9967 N.ar    1  UNL1       -0.2011
     25 C          11.9514    4.0527   -3.1509 C.ar    1  UNL1        0.2463
     26 H           3.6267   -0.3585    1.6395 H       1  UNL1        0.0795
     27 H           3.6450   -1.6798    0.4171 H       1  UNL1        0.0795
     28 H           3.9664   -1.1919    3.5963 H       1  UNL1        0.0669
     29 H           4.2304   -5.1835    5.1588 H       1  UNL1        0.0633
     30 H           2.4115   -5.9061    3.6485 H       1  UNL1        0.0634
     31 H           2.5877    1.3609   -1.4675 H       1  UNL1        0.1729
     32 H           5.0494    0.2133   -0.2731 H       1  UNL1        0.1744
     33 H           6.9547    1.0386   -1.1226 H       1  UNL1        0.1503
     34 H           6.9809    3.5557   -2.4715 H       1  UNL1        0.0463
     35 H           6.9865    2.2756   -3.6912 H       1  UNL1        0.0463
     36 H           9.0411    1.2994   -2.6557 H       1  UNL1        0.0297
     37 H           9.0709    2.5740   -1.4503 H       1  UNL1        0.0297
     38 H           9.3637    4.2985   -3.2586 H       1  UNL1        0.0494
     39 H           9.3688    3.0167   -4.4818 H       1  UNL1        0.0494
     40 H          11.1750    0.9174   -3.2784 H       1  UNL1        0.0871
     41 H          13.9352    1.5154   -2.8973 H       1  UNL1        0.1392
     42 H          14.0222    4.0057   -2.8885 H       1  UNL1        0.4538
     43 H          11.7511    5.1181   -3.1830 H       1  UNL1        0.1600
@<TRIPOS>UNITY_ATOM_ATTR
24 1
charge 1
@<TRIPOS>BOND
     1     1     2    2
     2     2     3    1
     3     3     4    1
     4     4     5    1
     5     5     6   ar
     6     6     7   ar
     7     7     8    1
     8     7     9   ar
     9     9    10   ar
    10    10    11   ar
    11     5    11   ar
    12    11    12    1
    13     2    13   am
    14    13    14    1
    15    14    15   am
    16    15    16    2
    17    15    17   am
    18    17    18    1
    19    18    19    1
    20    19    20    1
    21    20    21    1
    22    21    22   ar
    23    22    23   ar
    24    23    24   ar
    25    24    25   ar
    26    21    25   ar
    27     3    26    1
    28     3    27    1
    29     6    28    1
    30     9    29    1
    31    10    30    1
    32    13    31    1
    33    14    32    1
    34    17    33    1
    35    18    34    1
    36    18    35    1
    37    19    36    1
    38    19    37    1
    39    20    38    1
    40    20    39    1
    41    22    40    1
    42    23    41    1
    43    24    42    1
    44    25    43    1
