@<TRIPOS>MOLECULE
*****
 54 55 0 0 0
SMALL
GASTEIGER

@<TRIPOS>ATOM
      1 C          10.5630    4.6600    6.3871 C.3     1  UNL1       -0.0307
      2 C           9.9382    4.6067    5.0044 C.3     1  UNL1        0.0868
      3 O          10.2626    3.3441    4.4239 O.3     1  UNL1       -0.4922
      4 C           9.8631    3.1725    3.1278 C.ar    1  UNL1        0.1205
      5 C           9.4554    1.8849    2.7875 C.ar    1  UNL1       -0.0196
      6 C           9.1304    1.5764    1.4679 C.ar    1  UNL1       -0.0527
      7 C           9.1432    2.5691    0.4766 C.ar    1  UNL1       -0.0189
      8 C           8.6810    2.2747   -0.9319 C.3     1  UNL1        0.0806
      9 O           7.2700    2.0525   -0.9054 O.3     1  UNL1       -0.3872
     10 C           9.3564    1.0550   -1.5527 C.3     1  UNL1       -0.0144
     11 C          10.8698    1.2110   -1.6974 C.3     1  UNL1        0.0282
     12 C          11.4609   -0.0427   -2.3236 C.2     1  UNL1        0.2323
     13 O          10.7896   -1.0565   -2.5257 O.2     1  UNL1       -0.2741
     14 N          12.8087    0.0834   -2.6107 N.am    1  UNL1       -0.2070
     15 N          13.5221   -1.0042   -3.0374 N.2     1  UNL1       -0.1877
     16 C          14.8223   -0.9496   -3.0701 C.2     1  UNL1        0.0540
     17 C          15.7081    0.1577   -2.6501 C.ar    1  UNL1        0.0122
     18 C          16.7298    0.5738   -3.5338 C.ar    1  UNL1       -0.0066
     19 C          17.6197    1.6112   -3.1734 C.ar    1  UNL1        0.1623
     20 O          18.6687    1.7969   -4.0469 O.3     1  UNL1       -0.4886
     21 C          19.7022    2.6829   -3.6200 C.3     1  UNL1        0.0870
     22 C          20.9092    2.6722   -4.5287 C.3     1  UNL1       -0.0307
     23 C          17.3752    2.2930   -1.9735 C.ar    1  UNL1        0.1595
     24 O          18.0275    3.3795   -1.4679 O.3     1  UNL1       -0.5033
     25 C          16.3835    1.8622   -1.1010 C.ar    1  UNL1       -0.0019
     26 C          15.5900    0.7676   -1.3992 C.ar    1  UNL1        0.0302
     27 BR         14.4428    0.2062    0.0073 Br      1  UNL1       -0.0495
     28 C           9.5736    3.8560    0.8229 C.ar    1  UNL1       -0.0527
     29 C           9.9396    4.1529    2.1392 C.ar    1  UNL1       -0.0196
     30 H          10.2991    5.5918    6.8947 H       1  UNL1        0.0262
     31 H          11.6547    4.5977    6.3162 H       1  UNL1        0.0262
     32 H          10.2335    3.8137    6.9978 H       1  UNL1        0.0262
     33 H          10.3366    5.4436    4.4239 H       1  UNL1        0.0694
     34 H           8.8494    4.6981    5.0852 H       1  UNL1        0.0694
     35 H           9.3798    1.1145    3.5503 H       1  UNL1        0.0654
     36 H           8.8724    0.5485    1.2246 H       1  UNL1        0.0622
     37 H           8.8428    3.1443   -1.5794 H       1  UNL1        0.0643
     38 H           7.0987    1.3281   -0.2795 H       1  UNL1        0.2102
     39 H           8.9091    0.8640   -2.5368 H       1  UNL1        0.0298
     40 H           9.1274    0.1546   -0.9676 H       1  UNL1        0.0298
     41 H          11.3371    1.3698   -0.7175 H       1  UNL1        0.0360
     42 H          11.0990    2.0815   -2.3233 H       1  UNL1        0.0360
     43 H          13.3059    0.8746   -2.2224 H       1  UNL1        0.1772
     44 H          15.3375   -1.8392   -3.4776 H       1  UNL1        0.0852
     45 H          16.8396    0.0897   -4.5061 H       1  UNL1        0.0662
     46 H          20.0375    2.4382   -2.6038 H       1  UNL1        0.0694
     47 H          19.3153    3.7016   -3.6929 H       1  UNL1        0.0694
     48 H          21.3923    1.6935   -4.5448 H       1  UNL1        0.0262
     49 H          21.6303    3.4196   -4.1755 H       1  UNL1        0.0262
     50 H          20.6115    2.9315   -5.5474 H       1  UNL1        0.0262
     51 H          18.4640    3.8938   -2.1541 H       1  UNL1        0.2923
     52 H          16.2616    2.3898   -0.1588 H       1  UNL1        0.0666
     53 H           9.6401    4.6376    0.0685 H       1  UNL1        0.0622
     54 H          10.2980    5.1523    2.3568 H       1  UNL1        0.0654
@<TRIPOS>BOND
     1     1     2    1
     2     2     3    1
     3     3     4    1
     4     4     5   ar
     5     5     6   ar
     6     6     7   ar
     7     8    10    1
     8    10    11    1
     9    11    12    1
    10    12    13    2
    11    12    14   am
    12    14    15    1
    13    15    16    2
    14    16    17    1
    15    17    18   ar
    16    18    19   ar
    17    19    20    1
    18    20    21    1
    19    21    22    1
    20    19    23   ar
    21    23    24    1
    22    23    25   ar
    23    25    26   ar
    24    17    26   ar
    25    26    27    1
    26     7    28   ar
    27    28    29   ar
    28     4    29   ar
    29     8     9    1
    30     8     7    1
    31     1    30    1
    32     1    31    1
    33     1    32    1
    34     2    33    1
    35     2    34    1
    36     5    35    1
    37     6    36    1
    38     8    37    1
    39     9    38    1
    40    10    39    1
    41    10    40    1
    42    11    41    1
    43    11    42    1
    44    14    43    1
    45    16    44    1
    46    18    45    1
    47    21    46    1
    48    21    47    1
    49    22    48    1
    50    22    49    1
    51    22    50    1
    52    24    51    1
    53    25    52    1
    54    28    53    1
    55    29    54    1
