REMARK  13 active torsions:
REMARK  status: ('A' for Active; 'I' for Inactive)
REMARK    1  A    between atoms: C_2  and  C_12 
REMARK    2  A    between atoms: C_2  and  O_3 
REMARK    3  A    between atoms: O_3  and  C_4 
REMARK       I    between atoms: C_12  and  N_14 
REMARK    4  A    between atoms: N_14  and  N_15 
REMARK       I    between atoms: N_15  and  C_16 
REMARK    5  A    between atoms: C_16  and  C_18 
REMARK    6  A    between atoms: C_18  and  C_19 
REMARK    7  A    between atoms: C_19  and  C_20 
REMARK    8  A    between atoms: C_20  and  C_21 
REMARK    9  A    between atoms: C_21  and  O_23 
REMARK   10  A    between atoms: O_23  and  C_24 
REMARK   11  A    between atoms: C_24  and  C_25 
REMARK   12  A    between atoms: C_25  and  C_26 
REMARK   13  A    between atoms: C_26  and  C_27 
ROOT
ATOM      1  N   UNL d   1       4.947  -1.423  -2.684  0.00  0.00    -0.267 N 
ATOM      2  C   UNL d   1       6.325  -1.510  -2.816  0.00  0.00     0.236 C 
ATOM      3  O   UNL d   1       7.079  -1.027  -1.971  0.00  0.00    -0.272 OA
ATOM      4  H   UNL d   1       4.272  -1.805  -3.344  0.00  0.00     0.190 HD
ENDROOT
BRANCH   1   5
ATOM      5  N   UNL d   1       4.414  -0.720  -1.575  0.00  0.00    -0.265 N 
ATOM      6  C   UNL d   1       3.032  -0.668  -1.387  0.00  0.00     0.265 C 
ATOM      7  O   UNL d   1       2.264  -1.143  -2.224  0.00  0.00    -0.269 OA
ATOM      8  H   UNL d   1       5.106  -0.370  -0.911  0.00  0.00     0.190 HD
BRANCH   6   9
ATOM      9  C   UNL d   1       2.552   0.028  -0.074  0.00  0.00     0.218 C 
ATOM     10  C   UNL d   1       3.359  -0.550   1.070  0.00  0.00     0.050 C 
BRANCH   9  11
ATOM     11  O   UNL d   1       1.108  -0.048   0.059  0.00  0.00    -0.335 OA
BRANCH  11  12
ATOM     12  C   UNL d   1       0.376  -0.378   1.173  0.00  0.00     0.091 A 
ATOM     13  C   UNL d   1       0.885  -0.796   2.403  0.00  0.00     0.040 A 
ATOM     14  C   UNL d   1       0.108  -1.088   3.516  0.00  0.00     0.026 A 
ATOM     15  C   UNL d   1      -1.258  -1.030   3.416  0.00  0.00     0.035 A 
ATOM     16 CL   UNL d   1      -2.188  -1.438   4.797  0.00  0.00    -0.084 Cl
ATOM     17  C   UNL d   1      -1.839  -0.673   2.204  0.00  0.00     0.050 A 
ATOM     18  C   UNL d   1      -1.030  -0.338   1.093  0.00  0.00     0.069 A 
ATOM     19 CL   UNL d   1      -1.847   0.087  -0.374  0.00  0.00    -0.081 Cl
ENDBRANCH  11  12
ENDBRANCH   9  11
ENDBRANCH   6   9
ENDBRANCH   1   5
BRANCH   2  20
ATOM     20  C   UNL d   1       6.825  -2.236  -4.074  0.00  0.00     0.105 C 
BRANCH  20  21
ATOM     21  C   UNL d   1       8.363  -2.271  -4.136  0.00  0.00     0.019 C 
BRANCH  21  22
ATOM     22  C   UNL d   1       8.951  -2.979  -5.371  0.00  0.00     0.111 C 
BRANCH  22  23
ATOM     23  C   UNL d   1      10.477  -2.950  -5.322  0.00  0.00     0.258 C 
ATOM     24  O   UNL d   1      11.129  -2.441  -4.430  0.00  0.00    -0.265 OA
BRANCH  23  25
ATOM     25  O   UNL d   1      11.027  -3.571  -6.412  0.00  0.00    -0.321 OA
BRANCH  25  26
ATOM     26  C   UNL d   1      12.470  -3.561  -6.404  0.00  0.00     0.179 C 
BRANCH  26  27
ATOM     27  C   UNL d   1      12.993  -4.270  -7.646  0.00  0.00     0.031 C 
BRANCH  27  28
ATOM     28  C   UNL d   1      14.524  -4.297  -7.684  0.00  0.00     0.041 C 
BRANCH  28  29
ATOM     29  C   UNL d   1      15.028  -5.022  -8.908  0.00  0.00    -0.058 A 
ATOM     30  C   UNL d   1      14.744  -6.384  -9.079  0.00  0.00     0.007 A 
ATOM     31  C   UNL d   1      15.228  -7.076 -10.187  0.00  0.00     0.001 A 
ATOM     32  C   UNL d   1      15.947  -6.398 -11.168  0.00  0.00     0.000 A 
ATOM     33  C   UNL d   1      16.231  -5.042 -11.012  0.00  0.00     0.001 A 
ATOM     34  C   UNL d   1      15.785  -4.358  -9.880  0.00  0.00     0.007 A 
ENDBRANCH  28  29
ENDBRANCH  27  28
ENDBRANCH  26  27
ENDBRANCH  25  26
ENDBRANCH  23  25
ENDBRANCH  22  23
ENDBRANCH  21  22
ENDBRANCH  20  21
ENDBRANCH   2  20
TORSDOF 13
