REMARK  5 active torsions:
REMARK  status: ('A' for Active; 'I' for Inactive)
REMARK       I    between atoms: C_2  and  N_3 
REMARK    1  A    between atoms: C_2  and  C_15 
REMARK    2  A    between atoms: N_3  and  N_4 
REMARK    3  A    between atoms: N_4  and  C_5 
REMARK    4  A    between atoms: C_10  and  C_11 
REMARK    5  A    between atoms: C_20  and  O_21 
ROOT
ATOM      1  O   UNL d   1       1.062   0.073  -0.120  0.00  0.00    -0.266 OA
ATOM      2  C   UNL d   1       2.296   0.119  -0.119  0.00  0.00     0.272 C 
ATOM      3  N   UNL d   1       3.057  -0.431  -1.159  0.00  0.00    -0.265 N 
ATOM      4  H   UNL d   1       4.024  -0.652  -0.940  0.00  0.00     0.190 HD
ENDROOT
BRANCH   3   5
ATOM      5  N   UNL d   1       2.384  -1.386  -1.955  0.00  0.00    -0.297 N 
ATOM      6  H   UNL d   1       1.373  -1.253  -2.033  0.00  0.00     0.187 HD
BRANCH   5   7
ATOM      7  C   UNL d   1       3.092  -2.097  -2.934  0.00  0.00     0.063 A 
ATOM      8  C   UNL d   1       2.689  -2.008  -4.283  0.00  0.00     0.032 A 
ATOM      9  C   UNL d   1       3.306  -2.763  -5.293  0.00  0.00     0.002 A 
ATOM     10  C   UNL d   1       4.390  -3.574  -4.990  0.00  0.00     0.001 A 
ATOM     11  C   UNL d   1       4.819  -3.661  -3.670  0.00  0.00     0.018 A 
ATOM     12  C   UNL d   1       4.183  -2.933  -2.633  0.00  0.00     0.075 A 
BRANCH  12  13
ATOM     13  C   UNL d   1       4.715  -3.150  -1.240  0.00  0.00     0.419 C 
ATOM     14  F   UNL d   1       4.721  -4.463  -0.877  0.00  0.00    -0.166 F 
ATOM     15  F   UNL d   1       6.014  -2.736  -1.151  0.00  0.00    -0.166 F 
ATOM     16  F   UNL d   1       4.083  -2.500  -0.228  0.00  0.00    -0.166 F 
ENDBRANCH  12  13
ENDBRANCH   5   7
ENDBRANCH   3   5
BRANCH   2  17
ATOM     17  C   UNL d   1       3.072   0.736   1.012  0.00  0.00     0.066 A 
ATOM     18  C   UNL d   1       4.286   1.401   0.764  0.00  0.00     0.020 A 
ATOM     19  C   UNL d   1       5.078   1.861   1.825  0.00  0.00     0.001 A 
ATOM     20  C   UNL d   1       4.631   1.739   3.139  0.00  0.00     0.003 A 
ATOM     21  C   UNL d   1       3.400   1.137   3.398  0.00  0.00     0.037 A 
ATOM     22  C   UNL d   1       2.628   0.636   2.341  0.00  0.00     0.081 A 
BRANCH  22  23
ATOM     23  O   UNL d   1       1.444   0.016   2.630  0.00  0.00    -0.360 OA
ATOM     24  H   UNL d   1       1.227   0.120   3.569  0.00  0.00     0.217 HD
ENDBRANCH  22  23
ENDBRANCH   2  17
TORSDOF 5
