@<TRIPOS>MOLECULE
*****
 76 77 0 0 0
SMALL
GASTEIGER

@<TRIPOS>ATOM
      1 C           8.6414    1.4605   -5.9713 C.3     1  UNL1        0.0790
      2 O           8.3651    2.1255   -4.7548 O.3     1  UNL1       -0.4914
      3 C           7.8891    1.3187   -3.7629 C.ar    1  UNL1        0.1616
      4 C           7.5013    2.0153   -2.6446 C.ar    1  UNL1       -0.0109
      5 C           7.3005    1.3446   -1.4455 C.ar    1  UNL1       -0.0145
      6 C           6.8771    2.0774   -0.2270 C.3     1  UNL1        0.1283
      7 C           5.3921    1.7874   -0.3967 C.2     1  UNL1        0.2385
      8 O           4.8179    0.7311   -0.5480 O.2     1  UNL1       -0.2734
      9 N           4.8913    2.9947   -0.3338 N.am    1  UNL1       -0.3085
     10 C           3.5744    3.3514   -0.0490 C.3     1  UNL1        0.0295
     11 C           2.8674    2.7475   -1.6192 C.3     1  UNL1       -0.0440
     12 C           2.8708    1.7809    0.8869 C.3     1  UNL1       -0.0440
     13 C           2.8459    5.3176    0.7863 C.3     1  UNL1       -0.0272
     14 C           0.8687    5.3495    0.9615 C.3     1  UNL1       -0.0358
     15 C           0.0125    5.1130   -0.5834 C.3     1  UNL1       -0.0600
     16 C           0.2386    4.1702    1.9777 C.3     1  UNL1       -0.0600
     17 C           0.5290    6.6710    1.4546 C.3     1  UNL1       -0.0600
     18 N           7.3371    3.6541   -0.1204 N.am    1  UNL1       -0.2767
     19 C           6.5546    4.9556   -0.0077 C.2     1  UNL1        0.2550
     20 O           6.9757    6.0955   -0.2048 O.2     1  UNL1       -0.2697
     21 C           5.1217    5.1182    0.4018 C.ar    1  UNL1        0.1195
     22 C           4.4718    4.2224    1.7698 C.ar    1  UNL1        0.1325
     23 O           5.2381    3.1458    2.3088 O.3     1  UNL1       -0.5059
     24 C           2.7872    3.7020    1.7643 C.ar    1  UNL1       -0.0192
     25 C           1.8531    3.8757    0.1189 C.ar    1  UNL1       -0.0548
     26 C           2.6293    4.9902   -1.1690 C.ar    1  UNL1       -0.0192
     27 C           4.2203    5.5014   -0.9875 C.ar    1  UNL1        0.1325
     28 O           4.7703    6.2942   -1.9740 O.3     1  UNL1       -0.5059
     29 C           8.8433    3.8102   -0.1307 C.3     1  UNL1        0.0304
     30 C           9.4365    3.1467    1.1157 C.3     1  UNL1       -0.0440
     31 C           9.5815    3.1853   -1.3260 C.3     1  UNL1       -0.0440
     32 C           9.2589    5.2705   -0.1607 C.3     1  UNL1       -0.0440
     33 C           7.1717   -0.0447   -1.4325 C.ar    1  UNL1       -0.0527
     34 C           7.3451   -0.7440   -2.6014 C.ar    1  UNL1       -0.0162
     35 C           7.7699   -0.0715   -3.7443 C.ar    1  UNL1        0.1585
     36 O           8.0439   -0.7933   -4.8673 O.3     1  UNL1       -0.5033
     37 H           8.9747    2.1970   -6.7005 H       1  UNL1        0.0660
     38 H           7.7249    1.0012   -6.3560 H       1  UNL1        0.0660
     39 H           9.4537    0.7360   -5.8448 H       1  UNL1        0.0660
     40 H           7.4729    3.1027   -2.6646 H       1  UNL1        0.0659
     41 H           7.1963    1.6264    0.7210 H       1  UNL1        0.0648
     42 H           5.5193    3.3081    0.3524 H       1  UNL1        0.1493
     43 H           3.1594    1.7245   -1.7716 H       1  UNL1        0.0250
     44 H           3.1743    3.3904   -2.4528 H       1  UNL1        0.0250
     45 H           1.7682    2.6829   -1.6356 H       1  UNL1        0.0250
     46 H           3.3369    0.8341    0.7266 H       1  UNL1        0.0250
     47 H           1.7617    1.7133    0.8739 H       1  UNL1        0.0250
     48 H           3.0545    1.7491    1.9877 H       1  UNL1        0.0250
     49 H           3.0869    6.3459    0.4161 H       1  UNL1        0.0291
     50 H           3.0597    5.6263    1.8788 H       1  UNL1        0.0291
     51 H           0.1839    4.1821   -1.1938 H       1  UNL1        0.0235
     52 H           0.3500    5.8632   -1.2906 H       1  UNL1        0.0235
     53 H          -1.0521    4.9947   -0.4416 H       1  UNL1        0.0235
     54 H           0.4236    3.1162    1.6845 H       1  UNL1        0.0235
     55 H          -0.8413    4.1479    1.9535 H       1  UNL1        0.0235
     56 H           0.6564    4.2281    2.9875 H       1  UNL1        0.0235
     57 H           0.9731    7.3351    0.7181 H       1  UNL1        0.0235
     58 H           0.9784    6.7512    2.4418 H       1  UNL1        0.0235
     59 H          -0.5574    6.6663    1.4498 H       1  UNL1        0.0235
     60 H           6.1509    3.1056    1.9762 H       1  UNL1        0.2922
     61 H           2.3415    3.2933    2.6490 H       1  UNL1        0.0654
     62 H           0.9801    3.2763   -0.0163 H       1  UNL1        0.0620
     63 H           2.1239    5.5289   -1.9778 H       1  UNL1        0.0654
     64 H           4.0677    6.7263   -2.4897 H       1  UNL1        0.2922
     65 H           9.2464    2.0674    1.1369 H       1  UNL1        0.0250
     66 H           9.0224    3.5848    2.0257 H       1  UNL1        0.0250
     67 H          10.5240    3.2720    1.1199 H       1  UNL1        0.0250
     68 H           9.4716    2.1001   -1.3390 H       1  UNL1        0.0250
     69 H          10.6612    3.3146   -1.3086 H       1  UNL1        0.0250
     70 H           9.2671    3.6598   -2.2597 H       1  UNL1        0.0250
     71 H           8.8821    5.7743    0.7363 H       1  UNL1        0.0250
     72 H           8.8656    5.7324   -1.0790 H       1  UNL1        0.0250
     73 H          10.3334    5.4060   -0.1859 H       1  UNL1        0.0250
     74 H           6.7608   -0.5374   -0.5458 H       1  UNL1        0.0622
     75 H           7.1363   -1.8022   -2.5884 H       1  UNL1        0.0655
     76 H           7.8487   -1.7295   -4.7353 H       1  UNL1        0.2923
@<TRIPOS>BOND
     1     1     2    1
     2     2     3    1
     3     3     4   ar
     4     4     5   ar
     5     7     8    2
     6     7     9   am
     7     9    10    1
     8    10    11    1
     9    10    12    1
    10    10    13    1
    11    13    14    1
    12    14    15    1
    13    14    16    1
    14    14    17    1
    15     6    18    1
    16    18    19   am
    17    19    20    2
    18    19    21    1
    19    21    22   ar
    20    22    23    1
    21    22    24   ar
    22    24    25   ar
    23    25    26   ar
    24    26    27   ar
    25    21    27   ar
    26    27    28    1
    27    18    29    1
    28    29    30    1
    29    29    31    1
    30    29    32    1
    31     5    33   ar
    32    33    34   ar
    33    34    35   ar
    34     3    35   ar
    35    35    36    1
    36     6     7    1
    37     6     5    1
    38     1    37    1
    39     1    38    1
    40     1    39    1
    41     4    40    1
    42     6    41    1
    43     9    42    1
    44    11    43    1
    45    11    44    1
    46    11    45    1
    47    12    46    1
    48    12    47    1
    49    12    48    1
    50    13    49    1
    51    13    50    1
    52    15    51    1
    53    15    52    1
    54    15    53    1
    55    16    54    1
    56    16    55    1
    57    16    56    1
    58    17    57    1
    59    17    58    1
    60    17    59    1
    61    23    60    1
    62    24    61    1
    63    25    62    1
    64    26    63    1
    65    28    64    1
    66    30    65    1
    67    30    66    1
    68    30    67    1
    69    31    68    1
    70    31    69    1
    71    31    70    1
    72    32    71    1
    73    32    72    1
    74    32    73    1
    75    33    74    1
    76    34    75    1
    77    36    76    1
