@<TRIPOS>MOLECULE
*****
 59 60 0 0 0
SMALL
GASTEIGER

@<TRIPOS>ATOM
      1 C           1.0235   -0.2709   -0.2557 C.3     1  UNL1       -0.0245
      2 C           2.5214   -0.0857   -0.1147 C.3     1  UNL1       -0.0348
      3 N           2.9691    1.3737   -0.1586 N.4     1  UNL1        0.2359
      4 C           2.4769    2.2322    0.9985 C.3     1  UNL1       -0.0348
      5 C           0.9811    2.4438    1.0327 C.3     1  UNL1       -0.0245
      6 C           4.5120    1.4013   -0.2190 C.3     1  UNL1       -0.0160
      7 C           5.0856    2.8180   -0.3664 C.3     1  UNL1        0.0520
      8 N           6.5295    2.8721   -0.3720 N.am    1  UNL1       -0.3063
      9 C           7.1520    4.1200   -0.3590 C.2     1  UNL1        0.2442
     10 O           6.5369    5.1669   -0.3889 O.2     1  UNL1       -0.2702
     11 C           8.6350    4.1059   -0.3587 C.ar    1  UNL1        0.0368
     12 C           9.4316    5.0598    0.2919 C.ar    1  UNL1       -0.0479
     13 C          10.8531    5.0847    0.1129 C.ar    1  UNL1       -0.0398
     14 C          11.4922    4.1245   -0.6900 C.ar    1  UNL1        0.0326
     15 N          12.9489    4.0134   -0.8239 N.am    1  UNL1       -0.2966
     16 C          13.6686    2.9779   -1.5065 C.2     1  UNL1        0.1411
     17 S          12.9790    1.6525   -2.3015 S.2     1  UNL1       -0.0182
     18 N          15.0801    3.0871   -1.4866 N.am    1  UNL1       -0.2636
     19 C          15.9274    2.2013   -2.1991 C.2     1  UNL1        0.2499
     20 O          15.5950    1.2520   -2.9061 O.2     1  UNL1       -0.2698
     21 C          17.3879    2.2903   -2.1442 C.ar    1  UNL1        0.0499
     22 C          18.0990    1.9359   -3.3171 C.ar    1  UNL1        0.0281
     23 C          19.4682    1.6689   -3.2488 C.ar    1  UNL1        0.2803
     24 N          20.1708    1.0807   -4.4016 N.pl3   1  UNL1        0.0798
     25 O          19.5167    0.8633   -5.4292 O.2     1  UNL1        0.0414
     26 O          21.3712    0.8135   -4.2577 O.co2   1  UNL1       -0.5760
     27 C          20.1535    1.8474   -2.0446 C.ar    1  UNL1        0.0926
     28 C          19.4240    2.1666   -0.8875 C.ar    1  UNL1        0.2803
     29 N          20.1094    2.2192    0.4062 N.pl3   1  UNL1        0.0798
     30 O          21.3339    2.0523    0.4143 O.2     1  UNL1        0.0414
     31 O          19.4122    2.4353    1.4068 O.co2   1  UNL1       -0.5760
     32 C          18.0368    2.3681   -0.9215 C.ar    1  UNL1        0.0281
     33 C          10.6160    3.2648   -1.3553 C.ar    1  UNL1       -0.0398
     34 C           9.2447    3.1987   -1.1833 C.ar    1  UNL1       -0.0479
     35 H           0.7751   -1.3220   -0.4206 H       1  UNL1        0.0281
     36 H           0.6096    0.3287   -1.0719 H       1  UNL1        0.0281
     37 H           0.4992   -0.0448    0.6683 H       1  UNL1        0.0281
     38 H           3.0116   -0.5881   -0.9562 H       1  UNL1        0.0812
     39 H           2.8907   -0.5087    0.8244 H       1  UNL1        0.0812
     40 H           2.6299    1.7836   -1.0421 H       1  UNL1        0.2034
     41 H           2.9036    3.2260    0.8641 H       1  UNL1        0.0812
     42 H           2.8612    1.7868    1.9200 H       1  UNL1        0.0812
     43 H           0.5838    2.6937    0.0446 H       1  UNL1        0.0281
     44 H           0.7350    3.2496    1.7287 H       1  UNL1        0.0281
     45 H           0.4542    1.5909    1.4472 H       1  UNL1        0.0281
     46 H           4.8162    0.7830   -1.0724 H       1  UNL1        0.0830
     47 H           4.8748    0.9279    0.7011 H       1  UNL1        0.0830
     48 H           4.7861    3.4515    0.4708 H       1  UNL1        0.0515
     49 H           4.7150    3.2837   -1.2867 H       1  UNL1        0.0515
     50 H           7.0923    2.0370   -0.2527 H       1  UNL1        0.1492
     51 H           8.9461    5.7894    0.9389 H       1  UNL1        0.0626
     52 H          11.4034    5.8924    0.5930 H       1  UNL1        0.0636
     53 H          13.4669    4.7066   -0.2897 H       1  UNL1        0.1538
     54 H          15.5128    3.8242   -0.9482 H       1  UNL1        0.1568
     55 H          17.5522    1.7885   -4.2531 H       1  UNL1        0.0693
     56 H          21.2312    1.6964   -2.0003 H       1  UNL1        0.0754
     57 H          17.4629    2.4961   -0.0074 H       1  UNL1        0.0693
     58 H          10.9107    2.5932   -2.1309 H       1  UNL1        0.0636
     59 H           8.7053    2.4659   -1.7758 H       1  UNL1        0.0626
@<TRIPOS>UNITY_ATOM_ATTR
3 1
charge 1
24 1
charge 1
26 1
charge -1
29 1
charge 1
31 1
charge -1
@<TRIPOS>BOND
     1     1     2    1
     2     2     3    1
     3     3     4    1
     4     4     5    1
     5     3     6    1
     6     6     7    1
     7     7     8    1
     8     8     9   am
     9     9    10    2
    10     9    11    1
    11    11    12   ar
    12    12    13   ar
    13    13    14   ar
    14    14    15    1
    15    15    16    1
    16    16    17    2
    17    16    18    1
    18    18    19   am
    19    19    20    2
    20    19    21    1
    21    21    22   ar
    22    22    23   ar
    23    23    24    1
    24    24    25    2
    25    24    26    1
    26    23    27   ar
    27    27    28   ar
    28    28    29    1
    29    29    30    2
    30    29    31    1
    31    28    32   ar
    32    21    32   ar
    33    14    33   ar
    34    33    34   ar
    35    11    34   ar
    36     1    35    1
    37     1    36    1
    38     1    37    1
    39     2    38    1
    40     2    39    1
    41     3    40    1
    42     4    41    1
    43     4    42    1
    44     5    43    1
    45     5    44    1
    46     5    45    1
    47     6    46    1
    48     6    47    1
    49     7    48    1
    50     7    49    1
    51     8    50    1
    52    12    51    1
    53    13    52    1
    54    15    53    1
    55    18    54    1
    56    22    55    1
    57    27    56    1
    58    32    57    1
    59    33    58    1
    60    34    59    1
