REMARK  7 active torsions:
REMARK  status: ('A' for Active; 'I' for Inactive)
REMARK    1  A    between atoms: C_2  and  C_3 
REMARK    2  A    between atoms: C_3  and  N_4 
REMARK       I    between atoms: N_4  and  C_5 
REMARK       I    between atoms: C_5  and  N_7 
REMARK    3  A    between atoms: N_7  and  N_8 
REMARK       I    between atoms: N_8  and  C_9 
REMARK    4  A    between atoms: C_9  and  C_11 
REMARK    5  A    between atoms: C_11  and  C_12 
REMARK    6  A    between atoms: C_12  and  O_13 
REMARK    7  A    between atoms: O_13  and  C_14 
ROOT
ATOM      1  N   UNL d   1       7.401   3.495  -1.671  0.00  0.00    -0.266 N 
ATOM      2  C   UNL d   1       8.791   3.433  -1.634  0.00  0.00     0.238 C 
ATOM      3  O   UNL d   1       9.375   2.466  -1.141  0.00  0.00    -0.272 OA
ATOM      4  H   UNL d   1       6.869   4.269  -2.068  0.00  0.00     0.190 HD
ENDROOT
BRANCH   2   5
ATOM      5  C   UNL d   1       9.551   4.630  -2.235  0.00  0.00     0.131 C 
BRANCH   5   6
ATOM      6  C   UNL d   1      11.082   4.444  -2.144  0.00  0.00     0.185 C 
BRANCH   6   7
ATOM      7  O   UNL d   1      11.778   5.592  -2.680  0.00  0.00    -0.348 OA
BRANCH   7   8
ATOM      8  C   UNL d   1      13.155   5.495  -2.683  0.00  0.00     0.107 A 
ATOM      9  C   UNL d   1      13.872   6.649  -2.336  0.00  0.00     0.040 A 
ATOM     10  C   UNL d   1      15.277   6.650  -2.329  0.00  0.00     0.003 A 
ATOM     11  C   UNL d   1      15.982   5.504  -2.695  0.00  0.00     0.003 A 
ATOM     12  C   UNL d   1      15.280   4.365  -3.081  0.00  0.00     0.045 A 
ATOM     13  C   UNL d   1      13.883   4.368  -3.079  0.00  0.00     0.149 A 
ATOM     14  F   UNL d   1      13.269   3.258  -3.512  0.00  0.00    -0.203 F 
ENDBRANCH   7   8
ENDBRANCH   6   7
ENDBRANCH   5   6
ENDBRANCH   2   5
BRANCH   1  15
ATOM     15  N   UNL d   1       6.618   2.414  -1.124  0.00  0.00    -0.249 N 
ATOM     16  C   UNL d   1       5.232   2.478  -1.157  0.00  0.00     0.334 C 
ATOM     17  N   UNL d   1       4.578   1.390  -0.604  0.00  0.00    -0.342 N 
ATOM     18  O   UNL d   1       4.634   3.440  -1.645  0.00  0.00    -0.246 OA
ATOM     19  H   UNL d   1       5.112   0.625  -0.218  0.00  0.00     0.164 HD
ATOM     20  H   UNL d   1       7.142   1.637  -0.733  0.00  0.00     0.192 HD
BRANCH  17  21
ATOM     21  C   UNL d   1       3.111   1.316  -0.567  0.00  0.00     0.124 C 
BRANCH  21  22
ATOM     22  C   UNL d   1       2.551   0.040   0.080  0.00  0.00     0.015 C 
ATOM     23  C   UNL d   1       1.021   0.022   0.089  0.00  0.00     0.006 C 
ENDBRANCH  21  22
ENDBRANCH  17  21
ENDBRANCH   1  15
TORSDOF 7
