REMARK  4 active torsions:
REMARK  status: ('A' for Active; 'I' for Inactive)
REMARK       I    between atoms: C_2  and  N_3 
REMARK    1  A    between atoms: C_2  and  C_15 
REMARK    2  A    between atoms: N_3  and  C_4 
REMARK    3  A    between atoms: C_4  and  N_6 
REMARK    4  A    between atoms: N_6  and  C_7 
ROOT
ATOM      1  C   UNL d   1       2.046   2.487   0.273  0.00  0.00     0.179 C 
ATOM      2  S   UNL d   1       0.365   2.538   0.054  0.00  0.00    -0.040 SA
ENDROOT
BRANCH   1   3
ATOM      3  N   UNL d   1       2.775   1.272   0.257  0.00  0.00    -0.299 N 
ATOM      4  C   UNL d   1       2.200  -0.009   0.112  0.00  0.00     0.257 C 
ATOM      5  O   UNL d   1       0.990  -0.262   0.109  0.00  0.00    -0.267 OA
ATOM      6  H   UNL d   1       3.785   1.321   0.224  0.00  0.00     0.171 HD
BRANCH   4   7
ATOM      7  C   UNL d   1       3.043  -1.208  -0.074  0.00  0.00     0.032 A 
ATOM      8  C   UNL d   1       4.158  -1.483   0.715  0.00  0.00     0.017 A 
ATOM      9  C   UNL d   1       4.893  -2.652   0.476  0.00  0.00     0.001 A 
ATOM     10  C   UNL d   1       4.470  -3.583  -0.480  0.00  0.00     0.000 A 
ATOM     11  C   UNL d   1       3.314  -3.347  -1.216  0.00  0.00     0.001 A 
ATOM     12  C   UNL d   1       2.603  -2.166  -1.011  0.00  0.00     0.017 A 
ENDBRANCH   4   7
ENDBRANCH   1   3
BRANCH   1  13
ATOM     13  N   UNL d   1       2.831   3.657   0.465  0.00  0.00    -0.331 N 
ATOM     14  H   UNL d   1       3.793   3.660   0.139  0.00  0.00     0.168 HD
BRANCH  13  15
ATOM     15  C   UNL d   1       2.240   4.974   0.603  0.00  0.00     0.073 A 
ATOM     16  C   UNL d   1       1.176   5.174   1.498  0.00  0.00     0.036 A 
ATOM     17  C   UNL d   1       0.488   6.387   1.567  0.00  0.00     0.044 A 
ATOM     18  C   UNL d   1       0.901   7.449   0.780  0.00  0.00     0.119 A 
ATOM     19  F   UNL d   1       0.249   8.617   0.862  0.00  0.00    -0.206 F 
ATOM     20  C   UNL d   1       1.988   7.314  -0.076  0.00  0.00     0.086 A 
ATOM     21  C   UNL d   1       2.660   6.082  -0.152  0.00  0.00     0.145 A 
ATOM     22  F   UNL d   1       3.674   5.965  -1.024  0.00  0.00    -0.204 F 
ENDBRANCH  13  15
ENDBRANCH   1  13
TORSDOF 4
