@<TRIPOS>MOLECULE
*****
 57 58 0 0 0
SMALL
GASTEIGER

@<TRIPOS>ATOM
      1 C           1.1001   -0.7880   -2.6916 C.3     1  UNL1       -0.0369
      2 C           2.5587   -0.3945   -2.4244 C.3     1  UNL1        0.0796
      3 O           2.6625    1.0330   -2.4947 O.3     1  UNL1       -0.3899
      4 C           3.1609   -0.9216   -1.0848 C.3     1  UNL1        0.1508
      5 N           2.6237   -0.0835    0.0967 N.3     1  UNL1       -0.1736
      6 S           3.8179    0.5439    1.1374 S.O2    1  UNL1        0.0593
      7 O           4.4196   -0.5748    1.8239 O.2     1  UNL1       -0.1530
      8 O           4.5369    1.5567    0.3897 O.2     1  UNL1       -0.1530
      9 C           2.9550    1.4636    2.3528 C.ar    1  UNL1        0.1067
     10 C           2.9381    0.9994    3.6672 C.ar    1  UNL1       -0.0339
     11 C           2.4044    1.8109    4.6596 C.ar    1  UNL1       -0.0401
     12 C           1.9090    3.0800    4.3352 C.ar    1  UNL1        0.0594
     13 CL          1.2459    4.0264    5.6149 Cl      1  UNL1       -0.0820
     14 C           1.9652    3.5471    3.0146 C.ar    1  UNL1        0.0611
     15 CL          1.3746    5.0973    2.5408 Cl      1  UNL1       -0.0820
     16 C           2.5101    2.7438    2.0209 C.ar    1  UNL1       -0.0156
     17 C           4.7077   -1.0378   -1.2035 C.2     1  UNL1        0.3289
     18 O           5.5383   -0.5522   -0.4483 O.2     1  UNL1       -0.2489
     19 O           5.1501   -1.8080   -2.2251 O.3     1  UNL1       -0.4540
     20 C           6.5921   -1.8052   -2.2138 C.3     1  UNL1        0.1681
     21 C           7.1166   -2.6567   -3.3374 C.2     1  UNL1        0.2508
     22 O           6.3716   -3.2635   -4.1033 O.2     1  UNL1       -0.2721
     23 N           8.4957   -2.7017   -3.4390 N.am    1  UNL1       -0.3122
     24 C           9.0595   -3.5162   -4.4856 C.3     1  UNL1        0.0154
     25 C          10.5894   -3.5540   -4.5169 C.3     1  UNL1       -0.0161
     26 C          11.0537   -4.4675   -5.6285 C.2     1  UNL1       -0.0720
     27 C          10.6852   -5.7625   -5.6267 C.2     1  UNL1       -0.0847
     28 C          10.9585   -6.7134   -6.7447 C.3     1  UNL1       -0.0345
     29 C          12.0475   -6.2117   -7.6856 C.3     1  UNL1       -0.0493
     30 C          11.8477   -4.7379   -8.0275 C.3     1  UNL1       -0.0491
     31 C          11.8479   -3.8659   -6.7653 C.3     1  UNL1       -0.0317
     32 H           0.7696   -0.3621   -3.6495 H       1  UNL1        0.0255
     33 H           0.4144   -0.3942   -1.9344 H       1  UNL1        0.0255
     34 H           0.9751   -1.8739   -2.7532 H       1  UNL1        0.0255
     35 H           3.1379   -0.7833   -3.2680 H       1  UNL1        0.0612
     36 H           1.9728    1.4477   -1.9552 H       1  UNL1        0.2099
     37 H           2.7936   -1.9432   -0.9064 H       1  UNL1        0.0619
     38 H           2.0161    0.6696   -0.2079 H       1  UNL1        0.1490
     39 H           3.3742    0.0348    3.9263 H       1  UNL1        0.0637
     40 H           2.3899    1.4495    5.6845 H       1  UNL1        0.0633
     41 H           2.6329    3.1244    1.0077 H       1  UNL1        0.0652
     42 H           6.9716   -2.2177   -1.2659 H       1  UNL1        0.0796
     43 H           6.9693   -0.7803   -2.3511 H       1  UNL1        0.0796
     44 H           9.0956   -2.2342   -2.7688 H       1  UNL1        0.1488
     45 H           8.6687   -3.1423   -5.4402 H       1  UNL1        0.0465
     46 H           8.6446   -4.5220   -4.3452 H       1  UNL1        0.0465
     47 H          10.9833   -3.9147   -3.5586 H       1  UNL1        0.0325
     48 H          10.9841   -2.5400   -4.6509 H       1  UNL1        0.0325
     49 H          10.1067   -6.1643   -4.7976 H       1  UNL1        0.0572
     50 H          10.0211   -6.8565   -7.2972 H       1  UNL1        0.0307
     51 H          11.2429   -7.6870   -6.3330 H       1  UNL1        0.0307
     52 H          12.0498   -6.8170   -8.5982 H       1  UNL1        0.0268
     53 H          13.0261   -6.3418   -7.2073 H       1  UNL1        0.0268
     54 H          10.8956   -4.6107   -8.5592 H       1  UNL1        0.0268
     55 H          12.6382   -4.4044   -8.7096 H       1  UNL1        0.0268
     56 H          11.4554   -2.8763   -7.0283 H       1  UNL1        0.0310
     57 H          12.8825   -3.7213   -6.4289 H       1  UNL1        0.0310
@<TRIPOS>BOND
     1     5     6    1
     2     6     7    2
     3     6     8    2
     4     6     9    1
     5     9    10   ar
     6    10    11   ar
     7    11    12   ar
     8    12    13    1
     9    12    14   ar
    10    14    15    1
    11    14    16   ar
    12     9    16   ar
    13     4    17    1
    14    17    18    2
    15    17    19    1
    16    19    20    1
    17    20    21    1
    18    21    22    2
    19    21    23   am
    20    23    24    1
    21    24    25    1
    22    25    26    1
    23    26    27    2
    24    27    28    1
    25    28    29    1
    26    29    30    1
    27    30    31    1
    28    26    31    1
    29     2     3    1
    30     2     1    1
    31     4     5    1
    32     4     2    1
    33     1    32    1
    34     1    33    1
    35     1    34    1
    36     2    35    1
    37     3    36    1
    38     4    37    1
    39     5    38    1
    40    10    39    1
    41    11    40    1
    42    16    41    1
    43    20    42    1
    44    20    43    1
    45    23    44    1
    46    24    45    1
    47    24    46    1
    48    25    47    1
    49    25    48    1
    50    27    49    1
    51    28    50    1
    52    28    51    1
    53    29    52    1
    54    29    53    1
    55    30    54    1
    56    30    55    1
    57    31    56    1
    58    31    57    1
