@<TRIPOS>MOLECULE
*****
 48 49 0 0 0
SMALL
GASTEIGER

@<TRIPOS>ATOM
      1 O           1.0558    0.0038   -0.0457 O.2     1  UNL1       -0.2513
      2 C           2.2876    0.0337   -0.1016 C.2     1  UNL1        0.3159
      3 N           2.9710    1.0273   -0.7569 N.am    1  UNL1       -0.2982
      4 C           2.2781    2.0863   -1.4825 C.3     1  UNL1        0.0152
      5 C           3.2282    3.0680   -2.1695 C.3     1  UNL1       -0.0138
      6 C           2.4562    4.1483   -2.9266 C.3     1  UNL1        0.0492
      7 O           3.3773    5.0435   -3.5547 O.3     1  UNL1       -0.3772
      8 C           2.6835    6.0869   -4.2615 C.3     1  UNL1        0.0738
      9 C           3.6943    7.0405   -4.9123 C.3     1  UNL1        0.0820
     10 C           3.3489    8.5089   -4.7070 C.3     1  UNL1       -0.0224
     11 C           3.9194    9.1625   -5.9390 C.3     1  UNL1       -0.0270
     12 C           3.7115    8.1070   -7.0004 C.3     1  UNL1        0.0482
     13 O           3.7225    6.8343   -6.3419 O.3     1  UNL1       -0.3743
     14 N           3.0388   -0.9871    0.4619 N.am    1  UNL1       -0.2203
     15 N           4.3738   -0.7914    0.8644 N.pl3   1  UNL1       -0.2633
     16 C           5.0955   -1.9201    1.3518 C.ar    1  UNL1        0.0447
     17 C           6.3223   -1.6470    1.9766 C.ar    1  UNL1       -0.0359
     18 C           7.1633   -2.6664    2.4450 C.ar    1  UNL1       -0.0178
     19 C           6.7717   -4.0014    2.3641 C.ar    1  UNL1        0.1301
     20 O           7.6393   -4.8969    2.9258 O.3     1  UNL1       -0.4057
     21 C           7.2399   -6.2592    2.9736 C.3     1  UNL1        0.5752
     22 F           6.0616   -6.4071    3.6173 F       1  UNL1       -0.1328
     23 F           7.1400   -6.7718    1.7284 F       1  UNL1       -0.1328
     24 F           8.1722   -6.9722    3.6456 F       1  UNL1       -0.1328
     25 C           5.5545   -4.2942    1.7463 C.ar    1  UNL1       -0.0178
     26 C           4.7232   -3.2648    1.2436 C.ar    1  UNL1       -0.0359
     27 H           3.9744    1.0241   -0.7465 H       1  UNL1        0.1503
     28 H           1.6292    2.6183   -0.7764 H       1  UNL1        0.0463
     29 H           1.6277    1.6115   -2.2272 H       1  UNL1        0.0463
     30 H           3.8909    2.5381   -2.8652 H       1  UNL1        0.0302
     31 H           3.8906    3.5396   -1.4328 H       1  UNL1        0.0302
     32 H           1.8248    4.7141   -2.2318 H       1  UNL1        0.0560
     33 H           1.8222    3.6926   -3.6955 H       1  UNL1        0.0560
     34 H           2.0579    6.6220   -3.5384 H       1  UNL1        0.0585
     35 H           2.0410    5.6286   -5.0232 H       1  UNL1        0.0585
     36 H           4.7080    6.8406   -4.5459 H       1  UNL1        0.0619
     37 H           3.7771    8.9050   -3.7810 H       1  UNL1        0.0292
     38 H           2.2644    8.6657   -4.6716 H       1  UNL1        0.0292
     39 H           4.9905    9.3478   -5.8011 H       1  UNL1        0.0288
     40 H           3.4410   10.1141   -6.1880 H       1  UNL1        0.0288
     41 H           4.4917    8.1313   -7.7669 H       1  UNL1        0.0560
     42 H           2.7401    8.2214   -7.4931 H       1  UNL1        0.0560
     43 H           2.4897   -1.5776    1.0826 H       1  UNL1        0.1743
     44 H           4.9431   -0.3315    0.1556 H       1  UNL1        0.1700
     45 H           6.6185   -0.6120    2.1317 H       1  UNL1        0.0638
     46 H           8.1236   -2.4002    2.8821 H       1  UNL1        0.0655
     47 H           5.2170   -5.3212    1.6272 H       1  UNL1        0.0655
     48 H           3.7953   -3.5607    0.7616 H       1  UNL1        0.0638
@<TRIPOS>BOND
     1     1     2    2
     2     2     3   am
     3     3     4    1
     4     4     5    1
     5     5     6    1
     6     6     7    1
     7     7     8    1
     8     8     9    1
     9     9    10    1
    10    10    11    1
    11    11    12    1
    12    12    13    1
    13     9    13    1
    14     2    14   am
    15    14    15    1
    16    15    16    1
    17    16    17   ar
    18    17    18   ar
    19    18    19   ar
    20    19    20    1
    21    20    21    1
    22    21    22    1
    23    21    23    1
    24    21    24    1
    25    19    25   ar
    26    25    26   ar
    27    16    26   ar
    28     3    27    1
    29     4    28    1
    30     4    29    1
    31     5    30    1
    32     5    31    1
    33     6    32    1
    34     6    33    1
    35     8    34    1
    36     8    35    1
    37     9    36    1
    38    10    37    1
    39    10    38    1
    40    11    39    1
    41    11    40    1
    42    12    41    1
    43    12    42    1
    44    14    43    1
    45    15    44    1
    46    17    45    1
    47    18    46    1
    48    25    47    1
    49    26    48    1
