REMARK  6 active torsions:
REMARK  status: ('A' for Active; 'I' for Inactive)
REMARK    1  A    between atoms: C_4  and  O_5 
REMARK    2  A    between atoms: C_6  and  C_7 
REMARK    3  A    between atoms: C_12  and  C_13 
REMARK    4  A    between atoms: N_20  and  C_21 
REMARK    5  A    between atoms: C_21  and  C_22 
REMARK    6  A    between atoms: C_22  and  O_23 
ROOT
ATOM      1  C   UNL d   1       6.703   0.110  -0.570  0.00  0.00     0.074 A 
ATOM      2  N   UNL d   1       7.758   0.748   0.047  0.00  0.00    -0.276 N 
ATOM      3  N   UNL d   1       8.968   0.542  -0.558  0.00  0.00    -0.168 NA
ATOM      4  C   UNL d   1       8.639  -0.200  -1.619  0.00  0.00     0.155 A 
ATOM      5  C   UNL d   1       7.277  -0.476  -1.666  0.00  0.00     0.035 A 
ATOM      6  C   UNL d   1       6.962  -1.312  -2.833  0.00  0.00     0.162 C 
ATOM      7  N   UNL d   1       8.318  -1.769  -3.230  0.00  0.00    -0.331 N 
ATOM      8  C   UNL d   1       9.318  -0.924  -2.688  0.00  0.00     0.275 C 
ATOM      9  O   UNL d   1      10.495  -0.849  -3.030  0.00  0.00    -0.266 OA
ATOM     10  H   UNL d   1       7.712   1.311   0.891  0.00  0.00     0.189 HD
ENDROOT
BRANCH   1  11
ATOM     11  C   UNL d   1       5.313   0.153  -0.144  0.00  0.00     0.028 C 
ATOM     12  C   UNL d   1       4.608   1.352  -0.081  0.00  0.00     0.078 C 
ATOM     13  C   UNL d   1       3.225   1.346   0.114  0.00  0.00     0.045 C 
ATOM     14  C   UNL d   1       2.514   0.132   0.118  0.00  0.00    -0.038 C 
ATOM     15  C   UNL d   1       1.014   0.116   0.109  0.00  0.00     0.050 C 
ATOM     16  C   UNL d   1       3.227  -1.066   0.111  0.00  0.00     0.041 C 
ATOM     17  C   UNL d   1       4.616  -1.039   0.073  0.00  0.00     0.041 C 
ATOM     18 CL   UNL d   1       2.424  -2.596   0.123  0.00  0.00    -0.084 Cl
BRANCH  12  19
ATOM     19  O   UNL d   1       5.297   2.523  -0.238  0.00  0.00    -0.360 OA
ATOM     20  H   UNL d   1       4.676   3.266  -0.300  0.00  0.00     0.217 HD
ENDBRANCH  12  19
ENDBRANCH   1  11
BRANCH   6  21
ATOM     21  C   UNL d   1       6.020  -2.374  -2.381  0.00  0.00     0.008 A 
ATOM     22  C   UNL d   1       6.386  -3.335  -1.415  0.00  0.00     0.012 A 
ATOM     23  C   UNL d   1       5.589  -4.459  -1.219  0.00  0.00     0.001 A 
ATOM     24  C   UNL d   1       4.381  -4.584  -1.908  0.00  0.00     0.003 A 
ATOM     25  C   UNL d   1       3.951  -3.575  -2.772  0.00  0.00     0.043 A 
ATOM     26  C   UNL d   1       4.786  -2.499  -3.032  0.00  0.00     0.125 A 
ATOM     27  F   UNL d   1       4.440  -1.623  -3.987  0.00  0.00    -0.205 F 
ENDBRANCH   6  21
BRANCH   7  28
ATOM     28  C   UNL d   1       8.593  -2.983  -4.029  0.00  0.00     0.153 C 
BRANCH  28  29
ATOM     29  C   UNL d   1       7.381  -3.825  -4.475  0.00  0.00     0.184 C 
BRANCH  29  30
ATOM     30  O   UNL d   1       7.715  -5.005  -5.186  0.00  0.00    -0.399 OA
ATOM     31  H   UNL d   1       8.058  -4.748  -6.053  0.00  0.00     0.209 HD
ENDBRANCH  29  30
ENDBRANCH  28  29
ENDBRANCH   7  28
TORSDOF 6
