@<TRIPOS>MOLECULE
*****
 63 68 0 0 0
SMALL
GASTEIGER

@<TRIPOS>ATOM
      1 O           1.1825   -0.1597    0.0305 O.2     1  UNL1       -0.2701
      2 C           2.4046   -0.2721   -0.0738 C.2     1  UNL1        0.2459
      3 N           3.0357   -0.0565   -1.2836 N.am    1  UNL1       -0.3110
      4 C           2.3124    0.2635   -2.5197 C.3     1  UNL1        0.0159
      5 C           3.2461    0.3758   -3.7111 C.3     1  UNL1       -0.0120
      6 C           2.5688    0.7241   -5.0054 C.ar    1  UNL1       -0.0459
      7 C           2.3862    2.0136   -5.5348 C.ar    1  UNL1       -0.0585
      8 C           1.5442    2.2429   -6.6136 C.ar    1  UNL1       -0.0615
      9 C           0.9981    1.1588   -7.2745 C.ar    1  UNL1       -0.0617
     10 C           1.2177   -0.1316   -6.7981 C.ar    1  UNL1       -0.0615
     11 C           1.9961   -0.3454   -5.6719 C.ar    1  UNL1       -0.0585
     12 C           3.2773   -0.6342    1.1469 C.ar    1  UNL1        0.0578
     13 C           2.7169   -1.3613    2.1681 C.ar    1  UNL1       -0.0478
     14 C           3.5124   -1.6555    3.2936 C.ar    1  UNL1       -0.0607
     15 C           4.6513   -0.9005    3.6359 C.ar    1  UNL1       -0.0562
     16 C           5.2177   -0.1123    2.6711 C.ar    1  UNL1       -0.0186
     17 C           4.6406   -0.3029    1.3671 C.ar    1  UNL1        0.0436
     18 N           5.5741   -0.3885    0.3059 N.pl3   1  UNL1       -0.3357
     19 C           6.3999    0.8287    0.3510 C.3     1  UNL1        0.0538
     20 C           5.4101    1.9694   -0.0552 C.ar    1  UNL1        0.0220
     21 C           4.2537    2.3129    0.7749 C.ar    1  UNL1        0.1224
     22 O           3.8826    2.2206    2.0817 O.3     1  UNL1       -0.5064
     23 C           3.0707    2.7337    0.2675 C.ar    1  UNL1       -0.0193
     24 C           3.0696    3.1337   -1.0080 C.ar    1  UNL1       -0.0506
     25 C           4.2264    3.0202   -1.7909 C.ar    1  UNL1       -0.0173
     26 C           4.0718    3.3640   -3.0927 C.ar    1  UNL1       -0.0540
     27 C           4.9954    2.9437   -4.0814 C.ar    1  UNL1       -0.0612
     28 C           6.3376    3.0360   -3.9560 C.ar    1  UNL1       -0.0612
     29 C           6.4714    2.5819   -2.6223 C.ar    1  UNL1       -0.0536
     30 C           5.4528    2.4802   -1.4385 C.ar    1  UNL1       -0.0095
     31 C           7.2156    1.0398    1.6689 C.3     1  UNL1       -0.0047
     32 C           7.8093    2.4674    1.6260 C.3     1  UNL1       -0.0291
     33 C           6.8295    3.2758    2.3897 C.2     1  UNL1       -0.0870
     34 C           6.1307    2.4792    3.2153 C.2     1  UNL1       -0.0801
     35 C           6.3759    0.9346    2.9512 C.3     1  UNL1        0.0090
     36 H           4.0401    0.0854   -1.2367 H       1  UNL1        0.1490
     37 H           1.7270    1.1883   -2.4005 H       1  UNL1        0.0465
     38 H           1.6089   -0.5435   -2.7049 H       1  UNL1        0.0465
     39 H           3.9214   -0.4783   -3.8219 H       1  UNL1        0.0328
     40 H           3.9209    1.1259   -3.4267 H       1  UNL1        0.0328
     41 H           2.8730    2.8961   -5.1584 H       1  UNL1        0.0620
     42 H           1.3110    3.2609   -6.9168 H       1  UNL1        0.0618
     43 H           0.4055    1.3206   -8.1660 H       1  UNL1        0.0618
     44 H           0.7547   -0.9823   -7.2795 H       1  UNL1        0.0618
     45 H           2.1555   -1.3466   -5.2837 H       1  UNL1        0.0620
     46 H           1.7412   -1.8156    2.0187 H       1  UNL1        0.0626
     47 H           3.2760   -2.5363    3.8776 H       1  UNL1        0.0618
     48 H           5.1516   -1.0230    4.5885 H       1  UNL1        0.0621
     49 H           6.0489   -1.2921    0.4314 H       1  UNL1        0.1467
     50 H           7.1526    0.6551   -0.4304 H       1  UNL1        0.0552
     51 H           4.4417    1.6748    2.6052 H       1  UNL1        0.2921
     52 H           2.1719    2.6322    0.8804 H       1  UNL1        0.0654
     53 H           2.1121    3.4756   -1.3697 H       1  UNL1        0.0625
     54 H           3.1005    3.7397   -3.3869 H       1  UNL1        0.0624
     55 H           5.1026    1.8417   -4.3306 H       1  UNL1        0.0618
     56 H           6.1367    3.4430   -4.9835 H       1  UNL1        0.0618
     57 H           7.4206    2.0877   -2.4019 H       1  UNL1        0.0624
     58 H           8.0165    0.2915    1.7442 H       1  UNL1        0.0334
     59 H           7.9340    2.8253    0.5991 H       1  UNL1        0.0311
     60 H           8.7662    2.5419    2.1445 H       1  UNL1        0.0311
     61 H           6.6330    4.3353    2.2108 H       1  UNL1        0.0569
     62 H           5.3155    2.9408    3.7831 H       1  UNL1        0.0575
     63 H           6.9144    0.6100    3.8486 H       1  UNL1        0.0395
@<TRIPOS>BOND
     1     1     2    2
     2     2     3   am
     3     3     4    1
     4     4     5    1
     5     5     6    1
     6     6     7   ar
     7     7     8   ar
     8     8     9   ar
     9     9    10   ar
    10    10    11   ar
    11     6    11   ar
    12    12    13   ar
    13    13    14   ar
    14    14    15   ar
    15    15    16   ar
    16    16    17   ar
    17    12    17   ar
    18    17    18    1
    19    18    19    1
    20    20    21   ar
    21    21    22    1
    22    21    23   ar
    23    23    24   ar
    24    24    25   ar
    25    25    26   ar
    26    26    27   ar
    27    27    28   ar
    28    28    29   ar
    29    29    30   ar
    30    20    30   ar
    31    25    30   ar
    32    19    31    1
    33    31    32    1
    34    32    33    1
    35    33    34    2
    36    34    35    1
    37    16    35    1
    38    31    35    1
    39     2    12    1
    40    19    20    1
    41     3    36    1
    42     4    37    1
    43     4    38    1
    44     5    39    1
    45     5    40    1
    46     7    41    1
    47     8    42    1
    48     9    43    1
    49    10    44    1
    50    11    45    1
    51    13    46    1
    52    14    47    1
    53    15    48    1
    54    18    49    1
    55    19    50    1
    56    22    51    1
    57    23    52    1
    58    24    53    1
    59    26    54    1
    60    27    55    1
    61    28    56    1
    62    29    57    1
    63    31    58    1
    64    32    59    1
    65    32    60    1
    66    33    61    1
    67    34    62    1
    68    35    63    1
