@<TRIPOS>MOLECULE
*****
 56 59 0 0 0
SMALL
GASTEIGER

@<TRIPOS>ATOM
      1 C           1.3749   -0.8510    0.9819 C.3     1  UNL1       -0.0307
      2 C           2.7810   -0.7354    0.4883 C.3     1  UNL1        0.0870
      3 O           3.3597   -1.3218    1.5744 O.3     1  UNL1       -0.4882
      4 C           4.6772   -1.1522    1.5047 C.ar    1  UNL1        0.1651
      5 C           5.2212   -2.4347    1.5726 C.ar    1  UNL1       -0.0159
      6 C           6.5375   -2.5554    1.8716 C.ar    1  UNL1       -0.0580
      7 C           7.2918   -1.3880    1.9348 C.ar    1  UNL1       -0.0577
      8 C           6.7240   -0.1001    1.7243 C.ar    1  UNL1       -0.0130
      9 C           5.3573    0.0806    1.4926 C.ar    1  UNL1        0.1673
     10 N           4.8169    1.3440    1.0720 N.pl3   1  UNL1       -0.1302
     11 C           5.3405    1.9944   -0.0301 C.2     1  UNL1        0.3315
     12 N           6.2330    1.5399   -0.8469 N.2     1  UNL1       -0.0984
     13 C           4.7769    3.3257   -0.3282 C.2     1  UNL1        0.1883
     14 C           4.9534    4.2742   -1.1829 C.2     1  UNL1        0.1084
     15 C           5.9842    4.2937   -2.2588 C.3     1  UNL1       -0.0175
     16 N           4.1523    5.3771   -0.9589 N.2     1  UNL1       -0.0388
     17 N           3.5560    5.2116    0.1395 N.2     1  UNL1        0.0863
     18 C           3.9578    3.9992    0.6604 C.2     1  UNL1        0.4088
     19 N           3.6994    3.5642    1.8345 N.2     1  UNL1       -0.0163
     20 C           3.6505    2.0551    1.7490 C.3     1  UNL1        0.3259
     21 S           1.7110    2.1018    0.8000 S.3     1  UNL1       -0.0541
     22 C           1.5674    1.1425   -1.0520 C.3     1  UNL1        0.0782
     23 C           0.1709    0.4063   -1.2082 C.2     1  UNL1        0.2273
     24 O          -0.6338    0.2793   -0.2769 O.2     1  UNL1       -0.2746
     25 N          -0.0421   -0.3560   -2.3568 N.am    1  UNL1       -0.2848
     26 C          -1.3092   -0.9787   -2.5003 C.ar    1  UNL1        0.0334
     27 C          -1.4824   -2.1294   -3.2539 C.ar    1  UNL1       -0.0402
     28 C          -2.7902   -2.5661   -3.4736 C.ar    1  UNL1       -0.0571
     29 C          -3.8794   -1.9636   -2.8132 C.ar    1  UNL1       -0.0503
     30 C          -5.2737   -2.4470   -2.9758 C.3     1  UNL1       -0.0397
     31 C          -3.6876   -0.8931   -1.9663 C.ar    1  UNL1       -0.0571
     32 C          -2.4241   -0.3861   -1.8728 C.ar    1  UNL1       -0.0402
     33 H           0.8338    0.0347    0.8255 H       1  UNL1        0.0262
     34 H           1.2038   -0.8016    2.0591 H       1  UNL1        0.0262
     35 H           0.8724   -1.6725    0.4942 H       1  UNL1        0.0262
     36 H           3.1439    0.2717    0.3685 H       1  UNL1        0.0694
     37 H           3.1032   -1.1456   -0.4856 H       1  UNL1        0.0694
     38 H           4.5631   -3.2968    1.4371 H       1  UNL1        0.0655
     39 H           6.9273   -3.5430    2.0834 H       1  UNL1        0.0619
     40 H           8.3518   -1.4851    2.1355 H       1  UNL1        0.0619
     41 H           7.3832    0.7627    1.7519 H       1  UNL1        0.0659
     42 H           6.5485    0.6088   -0.5606 H       1  UNL1        0.3633
     43 H           6.5686    3.3714   -2.2705 H       1  UNL1        0.0294
     44 H           6.6947    5.1042   -2.0803 H       1  UNL1        0.0294
     45 H           5.5190    4.3989   -3.2361 H       1  UNL1        0.0294
     46 H           3.6045    1.7295    2.8029 H       1  UNL1        0.1471
     47 H           2.2184    0.3080   -1.2948 H       1  UNL1        0.0474
     48 H           1.8519    1.8871   -1.7760 H       1  UNL1        0.0474
     49 H           0.7252   -0.6819   -2.9318 H       1  UNL1        0.1548
     50 H          -0.6464   -2.7000   -3.6503 H       1  UNL1        0.0636
     51 H          -2.9695   -3.3754   -4.1751 H       1  UNL1        0.0621
     52 H          -5.3045   -3.2703   -3.6873 H       1  UNL1        0.0278
     53 H          -5.8986   -1.6252   -3.3400 H       1  UNL1        0.0278
     54 H          -5.6444   -2.7893   -2.0049 H       1  UNL1        0.0278
     55 H          -4.4813   -0.4081   -1.4040 H       1  UNL1        0.0621
     56 H          -2.3523    0.4973   -1.2479 H       1  UNL1        0.0636
@<TRIPOS>BOND
     1     1     2    1
     2     2     3    1
     3     3     4    1
     4     4     5   ar
     5     5     6   ar
     6     6     7   ar
     7     7     8   ar
     8     8     9   ar
     9     4     9   ar
    10     9    10    1
    11    10    11    1
    12    11    12    2
    13    11    13    1
    14    13    14    2
    15    14    15    1
    16    14    16    1
    17    16    17    2
    18    17    18    1
    19    13    18    1
    20    18    19    2
    21    19    20    1
    22    10    20    1
    23    21    22    1
    24    22    23    1
    25    23    24    2
    26    23    25   am
    27    25    26    1
    28    26    27   ar
    29    27    28   ar
    30    28    29   ar
    31    29    30    1
    32    29    31   ar
    33    31    32   ar
    34    26    32   ar
    35    20    21    1
    36     1    33    1
    37     1    34    1
    38     1    35    1
    39     2    36    1
    40     2    37    1
    41     5    38    1
    42     6    39    1
    43     7    40    1
    44     8    41    1
    45    12    42    1
    46    15    43    1
    47    15    44    1
    48    15    45    1
    49    20    46    1
    50    22    47    1
    51    22    48    1
    52    25    49    1
    53    27    50    1
    54    28    51    1
    55    30    52    1
    56    30    53    1
    57    30    54    1
    58    31    55    1
    59    32    56    1
