REMARK  8 active torsions:
REMARK  status: ('A' for Active; 'I' for Inactive)
REMARK    1  A    between atoms: C_2  and  C_3 
REMARK       I    between atoms: C_3  and  N_5 
REMARK    2  A    between atoms: N_5  and  C_6 
REMARK    3  A    between atoms: C_10  and  N_11 
REMARK    4  A    between atoms: N_11  and  C_12 
REMARK    5  A    between atoms: C_12  and  C_13 
REMARK       I    between atoms: C_13  and  N_15 
REMARK    6  A    between atoms: N_15  and  C_16 
REMARK    7  A    between atoms: C_19  and  N_20 
REMARK       I    between atoms: N_20  and  C_21 
REMARK    8  A    between atoms: C_21  and  C_23 
ROOT
ATOM      1  C   UNL d   1       2.785   2.031   7.585  0.00  0.00     0.239 C 
ATOM      2  O   UNL d   1       3.504   2.667   8.361  0.00  0.00    -0.271 OA
ATOM      3  N   UNL d   1       1.663   1.297   7.975  0.00  0.00    -0.326 N 
ATOM      4  H   UNL d   1       1.228   0.650   7.329  0.00  0.00     0.169 HD
ENDROOT
BRANCH   3   5
ATOM      5  C   UNL d   1       1.160   1.353   9.296  0.00  0.00     0.034 A 
ATOM      6  C   UNL d   1       0.596   0.243   9.933  0.00  0.00     0.032 A 
ATOM      7  C   UNL d   1       0.083   0.357  11.252  0.00  0.00     0.032 A 
ATOM      8  C   UNL d   1       0.152   1.576  11.945  0.00  0.00     0.035 A 
ATOM      9  C   UNL d   1       0.675   2.671  11.262  0.00  0.00     0.032 A 
ATOM     10  C   UNL d   1       1.179   2.563   9.972  0.00  0.00     0.032 A 
BRANCH   8  11
ATOM     11  N   UNL d   1      -0.265   1.679  13.306  0.00  0.00    -0.323 N 
ATOM     12  C   UNL d   1      -0.197   2.844  14.064  0.00  0.00     0.256 C 
ATOM     13  O   UNL d   1       0.191   3.955  13.681  0.00  0.00    -0.267 OA
ATOM     14  H   UNL d   1      -0.613   0.837  13.749  0.00  0.00     0.169 HD
BRANCH  12  15
ATOM     15  C   UNL d   1      -0.608   2.807  15.482  0.00  0.00     0.032 A 
ATOM     16  C   UNL d   1      -1.278   3.930  15.997  0.00  0.00     0.017 A 
ATOM     17  C   UNL d   1      -1.478   4.068  17.368  0.00  0.00     0.002 A 
ATOM     18  C   UNL d   1      -1.060   3.058  18.228  0.00  0.00     0.007 A 
ATOM     19  C   UNL d   1      -0.388   1.933  17.728  0.00  0.00    -0.061 A 
ATOM     20  C   UNL d   1       0.150   0.895  18.666  0.00  0.00     0.048 C 
ATOM     21  C   UNL d   1      -0.158   1.810  16.348  0.00  0.00     0.023 A 
ENDBRANCH  12  15
ENDBRANCH   8  11
ENDBRANCH   3   5
BRANCH   1  22
ATOM     22  C   UNL d   1       3.136   1.964   6.098  0.00  0.00     0.223 C 
BRANCH  22  23
ATOM     23  N   UNL d   1       4.354   2.744   5.835  0.00  0.00    -0.381 N 
ATOM     24  H   UNL d   1       4.801   3.155   6.652  0.00  0.00     0.160 HD
BRANCH  23  25
ATOM     25  C   UNL d   1       4.957   2.800   4.598  0.00  0.00     0.030 A 
ATOM     26  C   UNL d   1       6.159   3.479   4.398  0.00  0.00     0.029 A 
ATOM     27  C   UNL d   1       6.780   3.481   3.139  0.00  0.00     0.004 A 
ATOM     28  C   UNL d   1       6.191   2.819   2.053  0.00  0.00     0.029 A 
ATOM     29  C   UNL d   1       4.992   2.136   2.236  0.00  0.00     0.036 A 
ATOM     30  C   UNL d   1       4.390   2.163   3.495  0.00  0.00     0.058 A 
BRANCH  29  31
ATOM     31  N   UNL d   1       4.422   1.340   1.212  0.00  0.00    -0.327 N 
ATOM     32  C   UNL d   1       3.053   1.134   1.104  0.00  0.00     0.221 C 
ATOM     33  O   UNL d   1       2.209   1.737   1.768  0.00  0.00    -0.273 OA
ATOM     34  H   UNL d   1       5.055   0.931   0.537  0.00  0.00     0.169 HD
BRANCH  32  35
ATOM     35  C   UNL d   1       2.622   0.108   0.071  0.00  0.00     0.098 C 
ATOM     36  C   UNL d   1       1.095   0.048   0.023  0.00  0.00     0.014 C 
ENDBRANCH  32  35
ENDBRANCH  29  31
ENDBRANCH  23  25
ENDBRANCH  22  23
ENDBRANCH   1  22
TORSDOF 8
