@<TRIPOS>MOLECULE
*****
 69 73 0 0 0
SMALL
GASTEIGER

@<TRIPOS>ATOM
      1 C           6.8696    2.4697  -10.3131 C.3     1  UNL1       -0.0306
      2 C           5.4683    3.0272  -10.1527 C.3     1  UNL1        0.0897
      3 O           4.6079    1.9770   -9.7067 O.3     1  UNL1       -0.4647
      4 C           3.3250    2.3834   -9.4557 C.2     1  UNL1        0.3106
      5 O           2.9191    3.4951   -9.6198 O.2     1  UNL1       -0.2505
      6 C           2.5346    1.2998   -8.7169 C.3     1  UNL1        0.0660
      7 C           1.9604    2.0887   -7.4806 C.3     1  UNL1        0.0006
      8 C           3.0614    2.3572   -6.4811 C.3     1  UNL1       -0.0301
      9 N           3.8353    1.0751   -6.1833 N.4     1  UNL1        0.2464
     10 C           3.0615    0.0269   -5.2995 C.3     1  UNL1        0.0726
     11 C           4.1128   -0.9830   -4.7462 C.ar    1  UNL1        0.0725
     12 C           4.5917   -2.0377   -5.4507 C.ar    1  UNL1       -0.0383
     13 C           5.3043   -3.1555   -4.8264 C.ar    1  UNL1        0.0027
     14 C           5.8415   -4.2782   -5.4972 C.ar    1  UNL1       -0.0070
     15 C           6.5690   -5.2136   -4.7332 C.ar    1  UNL1        0.1669
     16 C           7.0381   -4.8122   -3.5163 C.ar    1  UNL1        0.1682
     17 C           6.2345   -3.9811   -2.7835 C.ar    1  UNL1        0.0078
     18 C           5.4010   -3.1206   -3.4430 C.ar    1  UNL1        0.0529
     19 N           4.7989   -2.1285   -2.6895 N.ar    1  UNL1       -0.3216
     20 C           4.3577   -0.9564   -3.2432 C.ar    1  UNL1        0.2582
     21 O           3.9959   -0.0118   -2.5538 O.2     1  UNL1       -0.2674
     22 O           7.6965   -5.7899   -2.8330 O.3     1  UNL1       -0.4525
     23 C           6.6974   -6.7665   -3.0864 C.3     1  UNL1        0.2332
     24 O           6.2123   -6.5851   -4.4794 O.3     1  UNL1       -0.4526
     25 C           1.7498   -0.5930   -5.9838 C.ar    1  UNL1        0.2048
     26 N           1.2809   -0.3120   -7.1891 N.ar    1  UNL1       -0.1071
     27 N           0.2079   -1.0505   -7.5007 N.ar    1  UNL1       -0.0228
     28 N          -0.0875   -1.7977   -6.4785 N.ar    1  UNL1       -0.0432
     29 N           0.8075   -1.4724   -5.5164 N.ar    1  UNL1       -0.2185
     30 C           0.6041   -2.1117   -4.2323 C.3     1  UNL1        0.0617
     31 C          -0.7309   -1.6450   -3.6849 C.3     1  UNL1       -0.0399
     32 C           0.7722   -3.6126   -4.4866 C.3     1  UNL1       -0.0399
     33 C           1.6532   -1.6678   -3.2598 C.3     1  UNL1       -0.0309
     34 C           1.6845   -2.2386   -1.8744 C.3     1  UNL1       -0.0631
     35 C           4.5051    0.4663   -7.3970 C.3     1  UNL1       -0.0301
     36 C           3.4621    0.0717   -8.4178 C.3     1  UNL1        0.0006
     37 H           7.5315    3.2276  -10.7403 H       1  UNL1        0.0262
     38 H           6.8637    1.5905  -10.9647 H       1  UNL1        0.0262
     39 H           7.2839    2.1486   -9.3504 H       1  UNL1        0.0262
     40 H           5.0913    3.3868  -11.1109 H       1  UNL1        0.0694
     41 H           5.4826    3.8408   -9.4170 H       1  UNL1        0.0694
     42 H           1.7196    0.9734   -9.3729 H       1  UNL1        0.0417
     43 H           1.1280    1.6574   -6.9167 H       1  UNL1        0.0325
     44 H           1.4585    3.0048   -7.8120 H       1  UNL1        0.0325
     45 H           2.6699    2.7522   -5.5362 H       1  UNL1        0.0815
     46 H           3.7746    3.0875   -6.8786 H       1  UNL1        0.0815
     47 H           4.6040    1.3943   -5.5762 H       1  UNL1        0.2044
     48 H           2.6932    0.6693   -4.4871 H       1  UNL1        0.0991
     49 H           4.3816   -2.1604   -6.5039 H       1  UNL1        0.0631
     50 H           6.0206   -4.1732   -6.5735 H       1  UNL1        0.0662
     51 H           6.2272   -4.1053   -1.7115 H       1  UNL1        0.0676
     52 H           4.7966   -2.2316   -1.6781 H       1  UNL1        0.1689
     53 H           5.8722   -6.5919   -2.3628 H       1  UNL1        0.1166
     54 H           7.1283   -7.7350   -2.8147 H       1  UNL1        0.1166
     55 H          -1.5601   -1.9137   -4.3399 H       1  UNL1        0.0253
     56 H          -0.7246   -0.5472   -3.5904 H       1  UNL1        0.0253
     57 H          -0.9064   -2.0703   -2.6990 H       1  UNL1        0.0253
     58 H           0.0241   -3.9982   -5.1827 H       1  UNL1        0.0253
     59 H           0.7151   -4.1797   -3.5612 H       1  UNL1        0.0253
     60 H           1.7570   -3.8111   -4.9453 H       1  UNL1        0.0253
     61 H           1.6744   -0.5741   -3.1950 H       1  UNL1        0.0286
     62 H           2.5284   -2.0774   -3.7258 H       1  UNL1        0.0286
     63 H           0.7770   -1.9887   -1.3367 H       1  UNL1        0.0231
     64 H           2.5276   -1.8234   -1.3167 H       1  UNL1        0.0231
     65 H           1.8372   -3.3166   -1.9297 H       1  UNL1        0.0231
     66 H           5.1136   -0.3826   -7.0994 H       1  UNL1        0.0815
     67 H           5.2422    1.1805   -7.7533 H       1  UNL1        0.0815
     68 H           2.9934   -0.8463   -8.0504 H       1  UNL1        0.0325
     69 H           3.8788   -0.3421   -9.3421 H       1  UNL1        0.0325
@<TRIPOS>UNITY_ATOM_ATTR
9 1
charge 1
@<TRIPOS>BOND
     1     1     2    1
     2     2     3    1
     3     3     4    1
     4     4     5    2
     5     4     6    1
     6     6     7    1
     7     7     8    1
     8     8     9    1
     9    11    12   ar
    10    12    13   ar
    11    13    14   ar
    12    14    15   ar
    13    15    16   ar
    14    16    17   ar
    15    17    18   ar
    16    13    18   ar
    17    18    19   ar
    18    19    20   ar
    19    11    20   ar
    20    20    21    2
    21    16    22    1
    22    22    23    1
    23    23    24    1
    24    15    24    1
    25    10    25    1
    26    25    26   ar
    27    26    27   ar
    28    27    28   ar
    29    28    29   ar
    30    25    29   ar
    31    29    30    1
    32    30    31    1
    33    30    32    1
    34    30    33    1
    35    33    34    1
    36     9    35    1
    37    35    36    1
    38     6    36    1
    39    10    11    1
    40    10     9    1
    41     1    37    1
    42     1    38    1
    43     1    39    1
    44     2    40    1
    45     2    41    1
    46     6    42    1
    47     7    43    1
    48     7    44    1
    49     8    45    1
    50     8    46    1
    51     9    47    1
    52    10    48    1
    53    12    49    1
    54    14    50    1
    55    17    51    1
    56    19    52    1
    57    23    53    1
    58    23    54    1
    59    31    55    1
    60    31    56    1
    61    31    57    1
    62    32    58    1
    63    32    59    1
    64    32    60    1
    65    33    61    1
    66    33    62    1
    67    34    63    1
    68    34    64    1
    69    34    65    1
    70    35    66    1
    71    35    67    1
    72    36    68    1
    73    36    69    1
