@<TRIPOS>MOLECULE
*****
 74 77 0 0 0
SMALL
GASTEIGER

@<TRIPOS>ATOM
      1 C           3.4397   -6.2831   -3.4488 C.3     1  UNL1       -0.0643
      2 C           2.6325   -7.3452   -2.7620 C.3     1  UNL1       -0.0407
      3 C           1.8815   -7.0503   -1.4207 C.3     1  UNL1        0.0605
      4 C           0.8943   -5.7801   -1.3772 C.2     1  UNL1        0.2242
      5 O          -0.2219   -5.9414   -0.8757 O.2     1  UNL1       -0.2749
      6 N           1.2911   -4.5069   -1.8622 N.am    1  UNL1       -0.2778
      7 C           2.7160   -4.1584   -1.9127 C.3     1  UNL1        0.0737
      8 C           3.3530   -3.1567   -1.0393 C.ar    1  UNL1        0.1225
      9 C           3.0446   -2.6460    0.1714 C.ar    1  UNL1       -0.0189
     10 C           4.1194   -1.9441    0.6657 C.ar    1  UNL1       -0.0207
     11 C           5.0588   -1.9877   -0.3278 C.ar    1  UNL1        0.1023
     12 C           6.3221   -1.2896   -0.2257 C.3     1  UNL1       -0.0064
     13 O           4.6498   -2.7657   -1.3618 O.2     1  UNL1       -0.4633
     14 C           0.3717   -3.3285   -2.0839 C.3     1  UNL1        0.1346
     15 C           0.3975   -2.4838   -0.7552 C.2     1  UNL1        0.2386
     16 O           0.2095   -3.0737    0.3167 O.2     1  UNL1       -0.2734
     17 N           0.6231   -1.0993   -0.8791 N.am    1  UNL1       -0.3106
     18 C           0.7515   -0.0493    0.1615 C.3     1  UNL1        0.0232
     19 C          -0.0702   -0.3580    1.4002 C.3     1  UNL1       -0.0345
     20 C           0.2286    0.6218    2.5328 C.3     1  UNL1       -0.0514
     21 C           1.7146    0.7042    2.8943 C.3     1  UNL1       -0.0529
     22 C           2.5267    1.1530    1.6814 C.3     1  UNL1       -0.0514
     23 C           2.1925    0.2143    0.5442 C.3     1  UNL1       -0.0345
     24 C          -1.1123   -3.4078   -2.4293 C.ar    1  UNL1        0.0648
     25 C          -1.8364   -2.1902   -2.4109 C.ar    1  UNL1        0.1292
     26 O          -1.2123   -0.9807   -2.6030 O.3     1  UNL1       -0.5062
     27 C          -3.2083   -2.1284   -2.2437 C.ar    1  UNL1        0.0219
     28 C          -3.9047   -3.3210   -2.1914 C.ar    1  UNL1        0.1238
     29 O          -5.2645   -3.3425   -2.1646 O.3     1  UNL1       -0.5065
     30 C          -3.2507   -4.5350   -2.3098 C.ar    1  UNL1        0.0219
     31 C          -1.8800   -4.5555   -2.5304 C.ar    1  UNL1        0.1292
     32 O          -1.3619   -5.7456   -2.9424 O.3     1  UNL1       -0.5062
     33 C           1.1944   -8.4123   -0.9893 C.ar    1  UNL1       -0.0355
     34 C           0.3463   -8.5125    0.1273 C.ar    1  UNL1       -0.0578
     35 C          -0.1707   -9.7504    0.5472 C.ar    1  UNL1       -0.0615
     36 C           0.1295  -10.9200   -0.1448 C.ar    1  UNL1       -0.0617
     37 C           0.9638  -10.8599   -1.2460 C.ar    1  UNL1       -0.0615
     38 C           1.4811   -9.6305   -1.6554 C.ar    1  UNL1       -0.0578
     39 H           3.9710   -6.6125   -4.3380 H       1  UNL1        0.0230
     40 H           4.2214   -5.9093   -2.7797 H       1  UNL1        0.0230
     41 H           2.7310   -5.5423   -3.8107 H       1  UNL1        0.0230
     42 H           3.3675   -8.1406   -2.5783 H       1  UNL1        0.0273
     43 H           1.9056   -7.6983   -3.5029 H       1  UNL1        0.0273
     44 H           2.6159   -6.8641   -0.6243 H       1  UNL1        0.0443
     45 H           2.9476   -3.8788   -2.9425 H       1  UNL1        0.0545
     46 H           3.2287   -5.0251   -1.5230 H       1  UNL1        0.0545
     47 H           2.1245   -2.6712    0.7197 H       1  UNL1        0.0652
     48 H           4.1865   -1.3436    1.5475 H       1  UNL1        0.0652
     49 H           6.1741   -0.4957    0.5260 H       1  UNL1        0.0308
     50 H           6.6232   -0.8068   -1.1495 H       1  UNL1        0.0308
     51 H           7.0612   -1.9753    0.1890 H       1  UNL1        0.0308
     52 H           0.8353   -2.7940   -2.9283 H       1  UNL1        0.0650
     53 H           0.0684   -0.6973   -1.6134 H       1  UNL1        0.1490
     54 H           0.3890    0.8729   -0.3086 H       1  UNL1        0.0498
     55 H           0.1577   -1.3645    1.7640 H       1  UNL1        0.0283
     56 H          -1.1311   -0.3514    1.1314 H       1  UNL1        0.0283
     57 H          -0.3426    0.3160    3.4118 H       1  UNL1        0.0266
     58 H          -0.1046    1.6168    2.2257 H       1  UNL1        0.0266
     59 H           2.0661   -0.2842    3.2328 H       1  UNL1        0.0265
     60 H           1.8831    1.3923    3.7261 H       1  UNL1        0.0265
     61 H           3.5981    1.0524    1.9164 H       1  UNL1        0.0266
     62 H           2.3446    2.1941    1.4109 H       1  UNL1        0.0266
     63 H           2.3964   -0.6978    1.0556 H       1  UNL1        0.0283
     64 H           2.8587    0.3419   -0.3149 H       1  UNL1        0.0283
     65 H          -0.4524   -1.1517   -3.1903 H       1  UNL1        0.2922
     66 H          -3.6953   -1.1616   -2.1924 H       1  UNL1        0.0691
     67 H          -5.5724   -2.4328   -2.3019 H       1  UNL1        0.2921
     68 H          -3.8047   -5.4662   -2.2903 H       1  UNL1        0.0691
     69 H          -1.3671   -6.2877   -2.1195 H       1  UNL1        0.2922
     70 H           0.0452   -7.6324    0.6918 H       1  UNL1        0.0620
     71 H          -0.8085   -9.7983    1.4264 H       1  UNL1        0.0618
     72 H          -0.2850  -11.8731    0.1684 H       1  UNL1        0.0618
     73 H           1.2300  -11.7595   -1.7948 H       1  UNL1        0.0618
     74 H           2.1221   -9.6833   -2.5293 H       1  UNL1        0.0620
@<TRIPOS>BOND
     1     1     2    1
     2     2     3    1
     3     3     4    1
     4     4     5    2
     5     4     6   am
     6     6     7    1
     7     7     8    1
     8     8     9   ar
     9     9    10   ar
    10    10    11   ar
    11    11    12    1
    12    11    13   ar
    13     8    13   ar
    14    15    16    2
    15    15    17   am
    16    17    18    1
    17    18    19    1
    18    19    20    1
    19    20    21    1
    20    21    22    1
    21    22    23    1
    22    18    23    1
    23    14    24    1
    24    24    25   ar
    25    25    26    1
    26    25    27   ar
    27    27    28   ar
    28    28    29    1
    29    28    30   ar
    30    30    31   ar
    31    24    31   ar
    32    31    32    1
    33     3    33    1
    34    33    34   ar
    35    34    35   ar
    36    35    36   ar
    37    36    37   ar
    38    37    38   ar
    39    33    38   ar
    40    14    15    1
    41    14     6    1
    42     1    39    1
    43     1    40    1
    44     1    41    1
    45     2    42    1
    46     2    43    1
    47     3    44    1
    48     7    45    1
    49     7    46    1
    50     9    47    1
    51    10    48    1
    52    12    49    1
    53    12    50    1
    54    12    51    1
    55    14    52    1
    56    17    53    1
    57    18    54    1
    58    19    55    1
    59    19    56    1
    60    20    57    1
    61    20    58    1
    62    21    59    1
    63    21    60    1
    64    22    61    1
    65    22    62    1
    66    23    63    1
    67    23    64    1
    68    26    65    1
    69    27    66    1
    70    29    67    1
    71    30    68    1
    72    32    69    1
    73    34    70    1
    74    35    71    1
    75    36    72    1
    76    37    73    1
    77    38    74    1
