@<TRIPOS>MOLECULE
*****
 72 74 0 0 0
SMALL
GASTEIGER

@<TRIPOS>ATOM
      1 C           7.6875  -10.8364    1.0812 C.3     1  UNL1       -0.0652
      2 C           6.7223   -9.6871    1.2532 C.3     1  UNL1       -0.0545
      3 C           7.4424   -8.4174    1.6638 C.3     1  UNL1       -0.0376
      4 C           6.3926   -7.3194    1.7929 C.3     1  UNL1        0.0116
      5 N           6.9846   -6.0712    2.0921 N.am    1  UNL1       -0.3138
      6 C           6.2924   -5.0138    2.6107 C.2     1  UNL1        0.2345
      7 O           5.0580   -5.0310    2.6432 O.2     1  UNL1       -0.2737
      8 C           7.0849   -3.7232    2.9833 C.3     1  UNL1        0.1137
      9 C           6.3525   -2.7605    2.1419 C.3     1  UNL1        0.0363
     10 C           5.9876   -3.2687    0.7067 C.ar    1  UNL1       -0.0377
     11 C           6.8844   -4.1018   -0.0171 C.ar    1  UNL1       -0.0579
     12 C           6.7774   -4.2409   -1.3800 C.ar    1  UNL1       -0.0615
     13 C           5.6099   -3.8152   -1.9810 C.ar    1  UNL1       -0.0617
     14 C           4.6675   -3.0581   -1.2750 C.ar    1  UNL1       -0.0615
     15 C           4.8712   -2.7426    0.0603 C.ar    1  UNL1       -0.0579
     16 C           7.4658   -1.7820    2.1920 C.ar    1  UNL1       -0.0377
     17 C           8.1915   -0.4599    3.3361 C.ar    1  UNL1       -0.0579
     18 C           8.9450    1.0632    2.6781 C.ar    1  UNL1       -0.0615
     19 C           9.3186    1.3092    1.1869 C.ar    1  UNL1       -0.0617
     20 C           8.7760    0.2672    0.1551 C.ar    1  UNL1       -0.0615
     21 C           7.6986   -1.3969    0.4283 C.ar    1  UNL1       -0.0579
     22 N           8.7244   -3.5776    2.8917 N.am    1  UNL1       -0.2799
     23 C           9.6183   -2.4558    2.2169 C.2     1  UNL1        0.2548
     24 O          10.8344   -2.5744    2.0140 O.2     1  UNL1       -0.2697
     25 C           9.1502   -1.0680    1.4286 C.ar    1  UNL1        0.1195
     26 C           9.5873   -1.5360   -0.3491 C.ar    1  UNL1        0.1325
     27 O          10.2145   -2.6719   -0.8106 O.3     1  UNL1       -0.5059
     28 C           8.3954   -0.8410   -1.5657 C.ar    1  UNL1       -0.0192
     29 C           6.9461    0.1343   -1.0647 C.ar    1  UNL1       -0.0548
     30 C           6.4600    0.4985    0.4567 C.ar    1  UNL1       -0.0192
     31 C           7.4500    0.0263    1.5626 C.ar    1  UNL1        0.1325
     32 O           6.1284   -0.3791    2.6385 O.3     1  UNL1       -0.5059
     33 C           9.4101   -4.4210    3.8739 C.3     1  UNL1        0.0301
     34 C           8.9398   -4.1493    5.3009 C.3     1  UNL1       -0.0440
     35 C           9.1455   -5.8727    3.5944 C.3     1  UNL1       -0.0440
     36 C          10.8982   -4.2809    3.7464 C.3     1  UNL1       -0.0440
     37 H           7.1435  -11.7355    0.7808 H       1  UNL1        0.0230
     38 H           8.2120  -11.0428    2.0189 H       1  UNL1        0.0230
     39 H           8.4291  -10.6043    0.3110 H       1  UNL1        0.0230
     40 H           5.9750   -9.9409    2.0137 H       1  UNL1        0.0263
     41 H           6.1902   -9.5083    0.3118 H       1  UNL1        0.0263
     42 H           8.2065   -8.1536    0.9184 H       1  UNL1        0.0280
     43 H           7.9829   -8.5736    2.6091 H       1  UNL1        0.0280
     44 H           5.6983   -7.5400    2.6058 H       1  UNL1        0.0462
     45 H           5.8703   -7.1644    0.8489 H       1  UNL1        0.0462
     46 H           7.9494   -6.0073    1.8483 H       1  UNL1        0.1487
     47 H           6.7977   -3.4140    4.0026 H       1  UNL1        0.0606
     48 H           5.4104   -2.3528    2.5214 H       1  UNL1        0.0420
     49 H           7.8167   -4.4195    0.4488 H       1  UNL1        0.0620
     50 H           7.6194   -4.6228   -1.9489 H       1  UNL1        0.0618
     51 H           5.4352   -4.0940   -3.0097 H       1  UNL1        0.0618
     52 H           3.7808   -2.6906   -1.7751 H       1  UNL1        0.0618
     53 H           4.1854   -2.0907    0.5931 H       1  UNL1        0.0620
     54 H           7.4456    0.1989    3.9192 H       1  UNL1        0.0620
     55 H           8.1254    1.9389    2.6422 H       1  UNL1        0.0618
     56 H          10.0284    2.0232    0.7896 H       1  UNL1        0.0618
     57 H           9.8172    0.3018   -0.4179 H       1  UNL1        0.0618
     58 H           8.0056   -2.4316    0.0550 H       1  UNL1        0.0620
     59 H          10.4155   -3.2090   -0.0258 H       1  UNL1        0.2922
     60 H           8.9004   -0.1965   -2.3164 H       1  UNL1        0.0654
     61 H           6.6103    0.9907   -1.6461 H       1  UNL1        0.0620
     62 H           5.6103    1.0053    0.8926 H       1  UNL1        0.0654
     63 H           5.4240    0.0207    3.1506 H       1  UNL1        0.2922
     64 H           7.8635   -4.3219    5.4381 H       1  UNL1        0.0250
     65 H           9.1546   -3.1216    5.5956 H       1  UNL1        0.0250
     66 H           9.4455   -4.8475    5.9720 H       1  UNL1        0.0250
     67 H           8.1061   -6.0726    3.8525 H       1  UNL1        0.0250
     68 H           9.6722   -6.6034    4.1907 H       1  UNL1        0.0250
     69 H           9.4592   -6.0451    2.5565 H       1  UNL1        0.0250
     70 H          11.1815   -3.2651    4.0385 H       1  UNL1        0.0250
     71 H          11.1680   -4.5021    2.7007 H       1  UNL1        0.0250
     72 H          11.4335   -4.9901    4.3573 H       1  UNL1        0.0250
@<TRIPOS>BOND
     1     1     2    1
     2     2     3    1
     3     3     4    1
     4     4     5    1
     5     5     6   am
     6     6     7    2
     7     9    10    1
     8    10    11   ar
     9    11    12   ar
    10    12    13   ar
    11    13    14   ar
    12    14    15   ar
    13    10    15   ar
    14     9    16    1
    15    16    17   ar
    16    17    18   ar
    17    18    19   ar
    18    19    20   ar
    19    20    21   ar
    20    16    21   ar
    21     8    22    1
    22    22    23   am
    23    23    24    2
    24    23    25    1
    25    25    26   ar
    26    26    27    1
    27    26    28   ar
    28    28    29   ar
    29    29    30   ar
    30    30    31   ar
    31    25    31   ar
    32    31    32    1
    33    22    33    1
    34    33    34    1
    35    33    35    1
    36    33    36    1
    37     8     9    1
    38     8     6    1
    39     1    37    1
    40     1    38    1
    41     1    39    1
    42     2    40    1
    43     2    41    1
    44     3    42    1
    45     3    43    1
    46     4    44    1
    47     4    45    1
    48     5    46    1
    49     8    47    1
    50     9    48    1
    51    11    49    1
    52    12    50    1
    53    13    51    1
    54    14    52    1
    55    15    53    1
    56    17    54    1
    57    18    55    1
    58    19    56    1
    59    20    57    1
    60    21    58    1
    61    27    59    1
    62    28    60    1
    63    29    61    1
    64    30    62    1
    65    32    63    1
    66    34    64    1
    67    34    65    1
    68    34    66    1
    69    35    67    1
    70    35    68    1
    71    35    69    1
    72    36    70    1
    73    36    71    1
    74    36    72    1
