@<TRIPOS>MOLECULE
*****
 38 39 0 0 0
SMALL
GASTEIGER

@<TRIPOS>ATOM
      1 O           1.1603   -0.0187    0.0172 O.2     1  UNL1       -0.2693
      2 C           2.3897   -0.0558   -0.0063 C.2     1  UNL1        0.2530
      3 C           3.1071   -1.1947   -0.6501 C.2     1  UNL1        0.0022
      4 C           2.4511   -2.2127   -1.2371 C.2     1  UNL1       -0.0496
      5 C           3.1400   -3.3491   -1.8781 C.ar    1  UNL1       -0.0245
      6 C           2.6806   -3.8358   -3.1113 C.ar    1  UNL1       -0.0482
      7 C           3.2702   -4.9604   -3.7064 C.ar    1  UNL1        0.0161
      8 C           4.3772   -5.5636   -3.0988 C.ar    1  UNL1        0.2732
      9 N           5.0955   -6.6423   -3.7933 N.pl3   1  UNL1        0.0796
     10 O           4.6683   -7.0012   -4.8998 O.2     1  UNL1        0.0414
     11 O           6.1050   -7.1083   -3.2451 O.co2   1  UNL1       -0.5760
     12 C           4.8401   -5.1014   -1.8618 C.ar    1  UNL1        0.0161
     13 C           4.2120   -4.0065   -1.2535 C.ar    1  UNL1       -0.0482
     14 N           3.1370    0.9542    0.5618 N.am    1  UNL1       -0.2297
     15 N           4.5417    1.0528    0.6175 N.am    1  UNL1       -0.2180
     16 C           5.1232    2.1583    1.2188 C.2     1  UNL1        0.3160
     17 O           4.4740    3.0684    1.7307 O.2     1  UNL1       -0.2513
     18 N           6.4968    2.1289    1.1773 N.am    1  UNL1       -0.2980
     19 C           7.3116    3.1761    1.7668 C.3     1  UNL1        0.0159
     20 C           8.7959    2.9386    1.6527 C.3     1  UNL1       -0.0254
     21 C           9.4369    1.7865    0.9065 C.3     1  UNL1       -0.0485
     22 C           9.5068    3.1739    0.3368 C.3     1  UNL1       -0.0485
     23 H           4.1827   -1.1846   -0.6505 H       1  UNL1        0.0670
     24 H           1.3616   -2.2367   -1.2672 H       1  UNL1        0.0625
     25 H           1.8687   -3.3322   -3.6344 H       1  UNL1        0.0626
     26 H           2.8626   -5.3441   -4.6400 H       1  UNL1        0.0685
     27 H           5.6796   -5.5786   -1.3597 H       1  UNL1        0.0685
     28 H           4.5715   -3.6739   -0.2822 H       1  UNL1        0.0626
     29 H           2.6231    1.7269    0.9899 H       1  UNL1        0.1731
     30 H           5.1130    0.3368    0.2002 H       1  UNL1        0.1744
     31 H           6.9516    1.3219    0.7920 H       1  UNL1        0.1503
     32 H           7.0421    3.2544    2.8270 H       1  UNL1        0.0465
     33 H           7.0481    4.1314    1.2983 H       1  UNL1        0.0465
     34 H           9.3103    3.3112    2.5367 H       1  UNL1        0.0316
     35 H           8.8447    1.0638    0.3643 H       1  UNL1        0.0269
     36 H          10.3364    1.3517    1.3309 H       1  UNL1        0.0269
     37 H           8.9085    3.4058   -0.5375 H       1  UNL1        0.0269
     38 H          10.4707    3.6742    0.3426 H       1  UNL1        0.0269
@<TRIPOS>UNITY_ATOM_ATTR
9 1
charge 1
11 1
charge -1
@<TRIPOS>BOND
     1     1     2    2
     2     2     3    1
     3     3     4    2
     4     4     5    1
     5     5     6   ar
     6     6     7   ar
     7     7     8   ar
     8     8     9    1
     9     9    10    2
    10     9    11    1
    11     8    12   ar
    12    12    13   ar
    13     5    13   ar
    14     2    14   am
    15    14    15    1
    16    15    16   am
    17    16    17    2
    18    16    18   am
    19    18    19    1
    20    19    20    1
    21    20    21    1
    22    21    22    1
    23    20    22    1
    24     3    23    1
    25     4    24    1
    26     6    25    1
    27     7    26    1
    28    12    27    1
    29    13    28    1
    30    14    29    1
    31    15    30    1
    32    18    31    1
    33    19    32    1
    34    19    33    1
    35    20    34    1
    36    21    35    1
    37    21    36    1
    38    22    37    1
    39    22    38    1
