@<TRIPOS>MOLECULE
*****
 60 62 0 0 0
SMALL
GASTEIGER

@<TRIPOS>ATOM
      1 C           1.1598   -0.0625    0.0076 C.3     1  UNL1       -0.0306
      2 C           2.6856   -0.0861    0.0251 C.3     1  UNL1        0.0900
      3 O           3.1954   -1.3402    0.5472 O.3     1  UNL1       -0.4614
      4 C           4.5560   -1.4065    0.6516 C.2     1  UNL1        0.3392
      5 O           5.3343   -0.5103    0.3250 O.2     1  UNL1       -0.2450
      6 C           5.0776   -2.7170    1.1677 C.ar    1  UNL1        0.0609
      7 C           6.2201   -2.8461    1.9227 C.ar    1  UNL1       -0.0459
      8 C           6.7652   -4.1343    2.1538 C.ar    1  UNL1       -0.0381
      9 C           6.1804   -5.3508    1.6726 C.ar    1  UNL1        0.0516
     10 N           6.7539   -6.5641    2.0546 N.pl3   1  UNL1       -0.3183
     11 C           7.2269   -7.5776    1.1133 C.3     1  UNL1        0.0525
     12 C           6.5522   -8.9279    1.4790 C.3     1  UNL1       -0.0158
     13 N           6.7929   -9.3308    2.9585 N.4     1  UNL1        0.2373
     14 C           5.9937  -10.5814    3.3174 C.3     1  UNL1       -0.0347
     15 C           6.3546  -11.1172    4.6940 C.3     1  UNL1       -0.0245
     16 C           6.5096   -8.1383    3.9201 C.3     1  UNL1       -0.0158
     17 C           7.1988   -6.8314    3.4393 C.3     1  UNL1        0.0525
     18 C           5.0054   -5.2070    0.8670 C.ar    1  UNL1        0.0547
     19 N           4.2987   -6.3246    0.2226 N.am    1  UNL1       -0.2951
     20 C           3.1558   -6.2707   -0.6408 C.2     1  UNL1        0.1411
     21 S           2.3006   -4.8947   -1.1098 S.2     1  UNL1       -0.0182
     22 N           2.7159   -7.5182   -1.1330 N.am    1  UNL1       -0.2636
     23 C           1.6112   -7.6504   -2.0092 C.2     1  UNL1        0.2496
     24 O           0.8643   -6.7704   -2.4276 O.2     1  UNL1       -0.2698
     25 C           1.1902   -8.9599   -2.4851 C.ar    1  UNL1        0.0381
     26 C           0.6893   -9.0503   -3.7991 C.ar    1  UNL1       -0.0496
     27 C           0.0276  -10.2004   -4.2089 C.ar    1  UNL1       -0.0600
     28 C          -0.0829  -11.2718   -3.3242 C.ar    1  UNL1       -0.0477
     29 C           0.3914  -11.1537   -2.0139 C.ar    1  UNL1        0.0186
     30 BR          0.1477  -12.5639   -0.7833 Br      1  UNL1       -0.0503
     31 C           1.0123   -9.9907   -1.5763 C.ar    1  UNL1       -0.0356
     32 C           4.5122   -3.8916    0.7067 C.ar    1  UNL1       -0.0247
     33 H           0.7874    0.9028   -0.3598 H       1  UNL1        0.0262
     34 H           0.7513   -0.2234    1.0099 H       1  UNL1        0.0262
     35 H           0.7562   -0.8478   -0.6393 H       1  UNL1        0.0262
     36 H           3.0370    0.7347    0.6603 H       1  UNL1        0.0695
     37 H           3.0505    0.0685   -0.9978 H       1  UNL1        0.0695
     38 H           6.6904   -1.9497    2.3181 H       1  UNL1        0.0626
     39 H           7.7186   -4.1586    2.6811 H       1  UNL1        0.0637
     40 H           8.3168   -7.6916    1.2147 H       1  UNL1        0.0516
     41 H           7.0398   -7.2948    0.0738 H       1  UNL1        0.0516
     42 H           6.9289   -9.7367    0.8455 H       1  UNL1        0.0830
     43 H           5.4664   -8.8539    1.3686 H       1  UNL1        0.0830
     44 H           7.7893   -9.5709    3.0467 H       1  UNL1        0.2034
     45 H           6.2212  -11.3402    2.5591 H       1  UNL1        0.0812
     46 H           4.9307  -10.3252    3.2581 H       1  UNL1        0.0812
     47 H           7.4041  -11.4234    4.7430 H       1  UNL1        0.0281
     48 H           5.7415  -11.9955    4.9288 H       1  UNL1        0.0281
     49 H           6.1682  -10.3852    5.4837 H       1  UNL1        0.0281
     50 H           6.8803   -8.4209    4.9096 H       1  UNL1        0.0830
     51 H           5.4222   -8.0112    3.9455 H       1  UNL1        0.0830
     52 H           8.2890   -6.9797    3.4683 H       1  UNL1        0.0516
     53 H           6.9687   -6.0169    4.1346 H       1  UNL1        0.0516
     54 H           4.7330   -7.2142    0.3862 H       1  UNL1        0.1539
     55 H           3.2248   -8.3595   -0.9163 H       1  UNL1        0.1568
     56 H           0.7581   -8.1978   -4.4792 H       1  UNL1        0.0625
     57 H          -0.4256  -10.2476   -5.1974 H       1  UNL1        0.0618
     58 H          -0.5640  -12.1858   -3.6606 H       1  UNL1        0.0629
     59 H           1.2734   -9.8543   -0.5335 H       1  UNL1        0.0636
     60 H           3.6234   -3.6583    0.1780 H       1  UNL1        0.0645
@<TRIPOS>UNITY_ATOM_ATTR
13 1
charge 1
@<TRIPOS>BOND
     1     1     2    1
     2     2     3    1
     3     3     4    1
     4     4     5    2
     5     4     6    1
     6     6     7   ar
     7     7     8   ar
     8     8     9   ar
     9     9    10    1
    10    10    11    1
    11    11    12    1
    12    12    13    1
    13    13    14    1
    14    14    15    1
    15    13    16    1
    16    16    17    1
    17    10    17    1
    18     9    18   ar
    19    18    19    1
    20    19    20    1
    21    20    21    2
    22    20    22    1
    23    22    23   am
    24    23    24    2
    25    23    25    1
    26    25    26   ar
    27    26    27   ar
    28    27    28   ar
    29    28    29   ar
    30    29    30    1
    31    29    31   ar
    32    25    31   ar
    33    18    32   ar
    34     6    32   ar
    35     1    33    1
    36     1    34    1
    37     1    35    1
    38     2    36    1
    39     2    37    1
    40     7    38    1
    41     8    39    1
    42    11    40    1
    43    11    41    1
    44    12    42    1
    45    12    43    1
    46    13    44    1
    47    14    45    1
    48    14    46    1
    49    15    47    1
    50    15    48    1
    51    15    49    1
    52    16    50    1
    53    16    51    1
    54    17    52    1
    55    17    53    1
    56    19    54    1
    57    22    55    1
    58    26    56    1
    59    27    57    1
    60    28    58    1
    61    31    59    1
    62    32    60    1
