@<TRIPOS>MOLECULE
*****
 48 51 0 0 0
SMALL
GASTEIGER

@<TRIPOS>ATOM
      1 N          -3.0954    0.0283    0.0361 N.1     1  UNL1       -0.1909
      2 C          -1.9166    0.0571   -0.0203 C.1     1  UNL1        0.0992
      3 C          -0.4961    0.0557   -0.0502 C.ar    1  UNL1        0.0535
      4 C           0.2419    1.2328   -0.0395 C.ar    1  UNL1       -0.0442
      5 C           1.6370    1.1677    0.0151 C.ar    1  UNL1       -0.0588
      6 C           2.2995   -0.0756    0.0600 C.ar    1  UNL1       -0.0404
      7 C           1.5642   -1.2686    0.0154 C.ar    1  UNL1        0.0349
      8 N           2.2165   -2.5367    0.0430 N.am    1  UNL1       -0.2815
      9 C           1.5494   -3.7592   -0.0440 C.2     1  UNL1        0.2483
     10 O           0.3384   -3.9347   -0.1392 O.2     1  UNL1       -0.2699
     11 C           2.3371   -5.0077    0.0067 C.ar    1  UNL1        0.0389
     12 C           1.9078   -6.0871   -0.7893 C.ar    1  UNL1       -0.0495
     13 C           2.4407   -7.3595   -0.5951 C.ar    1  UNL1       -0.0592
     14 C           3.4603   -7.5400    0.3363 C.ar    1  UNL1       -0.0353
     15 C           3.8841   -6.4624    1.1305 C.ar    1  UNL1        0.1060
     16 S           5.0881   -6.8084    2.3834 S.O2    1  UNL1        0.0587
     17 O           4.4838   -7.7247    3.3229 O.2     1  UNL1       -0.1530
     18 O           6.3345   -7.0928    1.7112 O.2     1  UNL1       -0.1530
     19 N           5.2986   -5.3742    3.2379 N.3     1  UNL1       -0.1856
     20 C           6.3386   -5.5107    4.3121 C.3     1  UNL1        0.0426
     21 C           6.4918   -4.1844    4.9916 C.ar    1  UNL1       -0.0282
     22 C           6.3450   -3.9141    6.3459 C.ar    1  UNL1       -0.0536
     23 C           6.4350   -2.5590    6.7670 C.ar    1  UNL1       -0.0158
     24 C           6.4722   -1.5335    5.7782 C.ar    1  UNL1        0.1662
     25 C           6.0681   -1.8894    4.5318 C.ar    1  UNL1        0.1665
     26 C           6.5532   -3.1120    4.1265 C.ar    1  UNL1       -0.0117
     27 O           6.0785   -0.8342    3.6555 O.3     1  UNL1       -0.4526
     28 C           7.4358   -0.5297    3.9085 C.3     1  UNL1        0.2332
     29 O           7.6622   -0.7317    5.3777 O.3     1  UNL1       -0.4526
     30 C           3.3235   -5.1918    0.9757 C.ar    1  UNL1       -0.0232
     31 C           0.1713   -1.1691   -0.0482 C.ar    1  UNL1       -0.0231
     32 H          -0.2673    2.1935   -0.0596 H       1  UNL1        0.0630
     33 H           2.2038    2.0973    0.0340 H       1  UNL1        0.0619
     34 H           3.3854   -0.0737    0.1292 H       1  UNL1        0.0636
     35 H           3.2290   -2.5344    0.0873 H       1  UNL1        0.1551
     36 H           1.1304   -5.9421   -1.5408 H       1  UNL1        0.0625
     37 H           2.0430   -8.2101   -1.1455 H       1  UNL1        0.0618
     38 H           3.9133   -8.5244    0.4470 H       1  UNL1        0.0637
     39 H           4.4238   -5.0391    3.6473 H       1  UNL1        0.1484
     40 H           7.2965   -5.7916    3.8631 H       1  UNL1        0.0490
     41 H           6.0079   -6.2599    5.0319 H       1  UNL1        0.0490
     42 H           6.0923   -4.7244    7.0338 H       1  UNL1        0.0622
     43 H           5.9362   -2.3954    7.7404 H       1  UNL1        0.0655
     44 H           6.9620   -3.2499    3.1313 H       1  UNL1        0.0658
     45 H           7.7039    0.4512    3.4874 H       1  UNL1        0.1166
     46 H           7.9928   -1.2397    3.2583 H       1  UNL1        0.1166
     47 H           3.5993   -4.3691    1.6229 H       1  UNL1        0.0644
     48 H          -0.4614   -2.0455   -0.0847 H       1  UNL1        0.0649
@<TRIPOS>BOND
     1     1     2    3
     2     2     3    1
     3     3     4   ar
     4     4     5   ar
     5     5     6   ar
     6     6     7   ar
     7     7     8    1
     8     8     9   am
     9     9    10    2
    10     9    11    1
    11    11    12   ar
    12    12    13   ar
    13    13    14   ar
    14    14    15   ar
    15    15    16    1
    16    16    17    2
    17    16    18    2
    18    16    19    1
    19    19    20    1
    20    20    21    1
    21    21    22   ar
    22    22    23   ar
    23    23    24   ar
    24    24    25   ar
    25    25    26   ar
    26    21    26   ar
    27    25    27    1
    28    27    28    1
    29    28    29    1
    30    24    29    1
    31    15    30   ar
    32    11    30   ar
    33     7    31   ar
    34     3    31   ar
    35     4    32    1
    36     5    33    1
    37     6    34    1
    38     8    35    1
    39    12    36    1
    40    13    37    1
    41    14    38    1
    42    19    39    1
    43    20    40    1
    44    20    41    1
    45    22    42    1
    46    23    43    1
    47    26    44    1
    48    28    45    1
    49    28    46    1
    50    30    47    1
    51    31    48    1
