@<TRIPOS>MOLECULE
*****
 44 46 0 0 0
SMALL
GASTEIGER

@<TRIPOS>ATOM
      1 O           1.0061   -0.1267    0.0195 O.2     1  UNL1       -0.2652
      2 C           2.2338   -0.0483   -0.0363 C.2     1  UNL1        0.2994
      3 N           2.9592   -0.8115   -0.9265 N.am    1  UNL1       -0.3048
      4 C           2.2409   -1.6043   -1.9195 C.3     1  UNL1        0.0423
      5 C           3.2084   -2.3454   -2.8508 C.3     1  UNL1        0.0982
      6 O           4.0788   -3.1367   -2.0214 O.3     1  UNL1       -0.3855
      7 C           2.5108   -3.1927   -3.8865 C.ar    1  UNL1        0.0175
      8 C           2.7064   -4.5795   -3.9623 C.ar    1  UNL1       -0.0533
      9 C           2.0901   -5.3357   -4.9580 C.ar    1  UNL1       -0.0612
     10 C           1.2739   -4.7177   -5.9019 C.ar    1  UNL1       -0.0590
     11 C           1.0655   -3.3419   -5.8441 C.ar    1  UNL1       -0.0261
     12 C           1.6797   -2.5943   -4.8431 C.ar    1  UNL1        0.1291
     13 F           1.4732   -1.2696   -4.8176 F       1  UNL1       -0.2051
     14 C           2.9760    0.9390    0.8877 C.2     1  UNL1        0.3031
     15 O           2.2868    1.7905    1.4496 O.2     1  UNL1       -0.2648
     16 N           4.3654    0.8522    1.0088 N.am    1  UNL1       -0.2772
     17 C           5.0920    1.4812    2.0710 C.ar    1  UNL1        0.0420
     18 C           6.3317    2.0708    1.7760 C.ar    1  UNL1       -0.0399
     19 C           7.1468    2.5751    2.8004 C.ar    1  UNL1       -0.0600
     20 C           6.7207    2.5299    4.1250 C.ar    1  UNL1       -0.0611
     21 C           5.4877    1.9605    4.4331 C.ar    1  UNL1       -0.0518
     22 C           4.6627    1.4340    3.4234 C.ar    1  UNL1        0.0099
     23 C           3.4418    0.7258    3.8188 C.ar    1  UNL1        0.0211
     24 C           3.0834   -0.5720    3.5056 C.ar    1  UNL1       -0.0469
     25 C           1.7199   -0.8382    3.8006 C.ar    1  UNL1       -0.0541
     26 C           1.1034    0.2387    4.3972 C.ar    1  UNL1       -0.0237
     27 S           2.1794    1.5479    4.6403 S.2     1  UNL1       -0.0966
     28 H           3.9669   -0.8484   -0.9279 H       1  UNL1        0.1492
     29 H           1.5787   -0.9283   -2.4717 H       1  UNL1        0.0491
     30 H           1.6037   -2.3185   -1.3807 H       1  UNL1        0.0491
     31 H           3.8570   -1.6259   -3.3644 H       1  UNL1        0.0660
     32 H           3.5094   -3.7806   -1.5618 H       1  UNL1        0.2103
     33 H           3.3590   -5.0932   -3.2611 H       1  UNL1        0.0622
     34 H           2.2653   -6.4078   -4.9993 H       1  UNL1        0.0618
     35 H           0.8099   -5.3095   -6.6858 H       1  UNL1        0.0618
     36 H           0.4381   -2.8459   -6.5785 H       1  UNL1        0.0646
     37 H           4.9121    0.3969    0.2943 H       1  UNL1        0.1553
     38 H           6.6608    2.1996    0.7477 H       1  UNL1        0.0636
     39 H           8.1213    3.0014    2.5703 H       1  UNL1        0.0618
     40 H           7.3447    2.9296    4.9213 H       1  UNL1        0.0618
     41 H           5.1846    1.8863    5.4758 H       1  UNL1        0.0624
     42 H           3.7390   -1.2468    2.9695 H       1  UNL1        0.0629
     43 H           1.2069   -1.7550    3.5439 H       1  UNL1        0.0623
     44 H           0.0678    0.3274    4.6914 H       1  UNL1        0.0693
@<TRIPOS>BOND
     1     1     2    2
     2     2     3   am
     3     3     4    1
     4     4     5    1
     5     5     6    1
     6     5     7    1
     7     7     8   ar
     8     8     9   ar
     9     9    10   ar
    10    10    11   ar
    11    11    12   ar
    12     7    12   ar
    13    12    13    1
    14     2    14    1
    15    14    15    2
    16    14    16   am
    17    16    17    1
    18    17    18   ar
    19    18    19   ar
    20    19    20   ar
    21    20    21   ar
    22    21    22   ar
    23    17    22   ar
    24    22    23    1
    25    23    24   ar
    26    24    25   ar
    27    25    26   ar
    28    26    27   ar
    29    23    27   ar
    30     3    28    1
    31     4    29    1
    32     4    30    1
    33     5    31    1
    34     6    32    1
    35     8    33    1
    36     9    34    1
    37    10    35    1
    38    11    36    1
    39    16    37    1
    40    18    38    1
    41    19    39    1
    42    20    40    1
    43    21    41    1
    44    24    42    1
    45    25    43    1
    46    26    44    1
