@<TRIPOS>MOLECULE
*****
 53 55 0 0 0
SMALL
GASTEIGER

@<TRIPOS>ATOM
      1 C           0.9544    0.0670   -0.0784 C.3     1  UNL1        0.0788
      2 O           2.3778    0.0657   -0.1872 O.3     1  UNL1       -0.4950
      3 C           2.9987    1.2692   -0.0145 C.ar    1  UNL1        0.1236
      4 C           4.1539    1.4816   -0.7588 C.ar    1  UNL1       -0.0193
      5 C           4.9122    2.6431   -0.5679 C.ar    1  UNL1       -0.0463
      6 C           4.4790    3.6527    0.3179 C.ar    1  UNL1        0.0419
      7 C           5.2022    4.9728    0.3805 C.3     1  UNL1        0.0106
      8 C           5.8854    5.3959    1.6785 C.3     1  UNL1       -0.0003
      9 C           6.0627    6.9089    1.5808 C.3     1  UNL1       -0.0070
     10 C           4.9324    7.4418    0.7150 C.3     1  UNL1       -0.0292
     11 N           4.3372    6.2082    0.0495 N.4     1  UNL1        0.2593
     12 C           3.8115    6.3246   -1.3644 C.3     1  UNL1        0.1012
     13 N           4.8507    6.5008   -2.3903 N.ar    1  UNL1       -0.0905
     14 N           6.1544    6.8662   -2.0546 N.ar    1  UNL1       -0.0770
     15 C           6.8168    7.4283   -2.9924 C.ar    1  UNL1        0.4384
     16 O           7.9799    8.0430   -2.7302 O.3     1  UNL1       -0.4337
     17 C           8.6507    8.1581   -1.4357 C.3     1  UNL1        0.1010
     18 C           9.1526    6.7844   -1.0084 C.3     1  UNL1       -0.0278
     19 C           9.8314    9.1020   -1.6220 C.3     1  UNL1       -0.0278
     20 S           6.0291    7.4184   -4.5163 S.2     1  UNL1        0.0548
     21 C           4.6018    6.6875   -3.7509 C.ar    1  UNL1        0.1960
     22 S           3.2098    6.3167   -4.5647 S.2     1  UNL1       -0.0190
     23 C           3.3303    3.4121    1.0831 C.ar    1  UNL1        0.1320
     24 O           2.9810    4.4194    1.9473 O.3     1  UNL1       -0.4945
     25 C           1.8975    4.1178    2.8325 C.3     1  UNL1        0.0788
     26 C           2.6063    2.2247    0.9179 C.ar    1  UNL1        0.0222
     27 H           0.6093   -0.9698   -0.1311 H       1  UNL1        0.0660
     28 H           0.5233    0.6189   -0.9190 H       1  UNL1        0.0660
     29 H           0.5901    0.4703    0.8709 H       1  UNL1        0.0660
     30 H           4.4604    0.7316   -1.4895 H       1  UNL1        0.0654
     31 H           5.8486    2.7173   -1.1199 H       1  UNL1        0.0624
     32 H           5.9742    4.9420   -0.3920 H       1  UNL1        0.0906
     33 H           6.8571    4.9020    1.7897 H       1  UNL1        0.0325
     34 H           5.2932    5.1560    2.5643 H       1  UNL1        0.0325
     35 H           7.0323    7.1525    1.1294 H       1  UNL1        0.0319
     36 H           6.0579    7.3770    2.5698 H       1  UNL1        0.0319
     37 H           5.3229    8.1174   -0.0550 H       1  UNL1        0.0815
     38 H           4.1569    7.9818    1.2641 H       1  UNL1        0.0815
     39 H           3.4835    6.0245    0.6183 H       1  UNL1        0.2061
     40 H           3.2016    5.4400   -1.5785 H       1  UNL1        0.1120
     41 H           3.1482    7.2011   -1.3875 H       1  UNL1        0.1120
     42 H           6.5614    6.7625   -1.1381 H       1  UNL1        0.4915
     43 H           7.9587    8.5902   -0.6991 H       1  UNL1        0.0729
     44 H           9.7913    6.3655   -1.7914 H       1  UNL1        0.0265
     45 H           8.3451    6.0625   -0.8731 H       1  UNL1        0.0265
     46 H           9.7023    6.8352   -0.0659 H       1  UNL1        0.0265
     47 H          10.4977    8.7267   -2.4063 H       1  UNL1        0.0265
     48 H          10.4047    9.2071   -0.6955 H       1  UNL1        0.0265
     49 H           9.4964   10.0943   -1.9413 H       1  UNL1        0.0265
     50 H           1.8028    4.9459    3.5377 H       1  UNL1        0.0660
     51 H           2.0807    3.2033    3.4094 H       1  UNL1        0.0660
     52 H           0.9700    4.0495    2.2563 H       1  UNL1        0.0660
     53 H           1.7367    2.0216    1.5291 H       1  UNL1        0.0691
@<TRIPOS>UNITY_ATOM_ATTR
11 1
charge 1
14 1
charge 1
@<TRIPOS>BOND
     1     1     2    1
     2     2     3    1
     3     3     4   ar
     4     4     5   ar
     5     5     6   ar
     6     6     7    1
     7     7     8    1
     8     8     9    1
     9     9    10    1
    10    10    11    1
    11     7    11    1
    12    12    13    1
    13    13    14   ar
    14    14    15   ar
    15    15    16    1
    16    16    17    1
    17    17    18    1
    18    17    19    1
    19    15    20   ar
    20    20    21   ar
    21    13    21   ar
    22    21    22    2
    23     6    23   ar
    24    23    24    1
    25    24    25    1
    26    23    26   ar
    27     3    26   ar
    28    11    12    1
    29     1    27    1
    30     1    28    1
    31     1    29    1
    32     4    30    1
    33     5    31    1
    34     7    32    1
    35     8    33    1
    36     8    34    1
    37     9    35    1
    38     9    36    1
    39    10    37    1
    40    10    38    1
    41    11    39    1
    42    12    40    1
    43    12    41    1
    44    14    42    1
    45    17    43    1
    46    18    44    1
    47    18    45    1
    48    18    46    1
    49    19    47    1
    50    19    48    1
    51    19    49    1
    52    25    50    1
    53    25    51    1
    54    25    52    1
    55    26    53    1
