@<TRIPOS>MOLECULE
*****
 75 78 0 0 0
SMALL
GASTEIGER

@<TRIPOS>ATOM
      1 C           3.7088   -5.4521    1.4296 C.3     1  UNL1       -0.0639
      2 C           3.5961   -4.2487    2.3111 C.3     1  UNL1       -0.0400
      3 C           4.3572   -3.0421    2.0040 C.3     1  UNL1        0.0156
      4 N           4.4961   -1.9526    3.0479 N.am    1  UNL1       -0.2827
      5 C           4.1753   -2.0269    4.4473 C.2     1  UNL1        0.2574
      6 O           4.3799   -1.0207    5.1471 O.2     1  UNL1       -0.2716
      7 C           3.3944   -3.3259    5.1374 C.3     1  UNL1        0.1924
      8 O           2.1757   -3.5456    4.4022 O.3     1  UNL1       -0.3711
      9 C           4.3833   -4.6036    5.2900 C.ar    1  UNL1       -0.0027
     10 C           5.5153   -4.5964    6.1226 C.ar    1  UNL1       -0.0550
     11 C           6.4331   -5.6561    6.1196 C.ar    1  UNL1       -0.0614
     12 C           6.4541   -6.5402    5.0570 C.ar    1  UNL1       -0.0617
     13 C           5.3993   -6.5103    4.1798 C.ar    1  UNL1       -0.0614
     14 C           4.2511   -5.7915    4.5458 C.ar    1  UNL1       -0.0550
     15 C           2.7632   -2.9474    6.4918 C.ar    1  UNL1       -0.0027
     16 C           1.6970   -2.0398    6.6280 C.ar    1  UNL1       -0.0550
     17 C           1.2512   -1.6774    7.9029 C.ar    1  UNL1       -0.0614
     18 C           1.8598   -2.2063    9.0435 C.ar    1  UNL1       -0.0617
     19 C           2.8717   -3.1316    8.9205 C.ar    1  UNL1       -0.0614
     20 C           3.2170   -3.5580    7.6621 C.ar    1  UNL1       -0.0550
     21 C           5.1194   -0.6134    2.5876 C.3     1  UNL1        0.1342
     22 C           4.4854   -0.2331    1.2205 C.2     1  UNL1        0.2386
     23 O           4.4725   -1.0170    0.2969 O.2     1  UNL1       -0.2734
     24 N           3.9398    1.0276    1.0521 N.am    1  UNL1       -0.3106
     25 C           3.2957    1.3318   -0.2301 C.3     1  UNL1        0.0232
     26 C           4.2785    1.2561   -1.4200 C.3     1  UNL1       -0.0345
     27 C           3.5799    1.4398   -2.7634 C.3     1  UNL1       -0.0514
     28 C           2.4144    0.4701   -2.9320 C.3     1  UNL1       -0.0529
     29 C           1.4080    0.6253   -1.7973 C.3     1  UNL1       -0.0514
     30 C           2.0696    0.4165   -0.4456 C.3     1  UNL1       -0.0345
     31 C           6.6600   -0.5079    2.4777 C.ar    1  UNL1        0.0648
     32 C           7.5528   -1.5828    2.4029 C.ar    1  UNL1        0.1292
     33 O           7.1452   -2.8332    2.1115 O.3     1  UNL1       -0.5062
     34 C           8.9320   -1.4865    2.3181 C.ar    1  UNL1        0.0219
     35 C           9.4810   -0.2402    2.1745 C.ar    1  UNL1        0.1238
     36 O          10.8159   -0.1196    1.9375 O.3     1  UNL1       -0.5065
     37 C           8.6660    0.8880    2.2039 C.ar    1  UNL1        0.0219
     38 C           7.2718    0.7506    2.3577 C.ar    1  UNL1        0.1292
     39 O           6.4728    1.8660    2.3382 O.3     1  UNL1       -0.5062
     40 H           3.1688   -6.2791    1.9058 H       1  UNL1        0.0230
     41 H           4.7489   -5.7615    1.3021 H       1  UNL1        0.0230
     42 H           3.2345   -5.2296    0.4820 H       1  UNL1        0.0230
     43 H           4.2152   -4.4276    3.1386 H       1  UNL1        0.0278
     44 H           2.5554   -4.1302    2.5345 H       1  UNL1        0.0278
     45 H           3.9899   -2.7378    1.0451 H       1  UNL1        0.0465
     46 H           5.3093   -3.5223    1.8720 H       1  UNL1        0.0465
     47 H           2.1007   -2.8023    3.7673 H       1  UNL1        0.2116
     48 H           5.6546   -3.8247    6.8753 H       1  UNL1        0.0621
     49 H           7.1606   -5.7461    6.9162 H       1  UNL1        0.0618
     50 H           7.2487   -7.2660    4.9250 H       1  UNL1        0.0618
     51 H           5.4729   -7.0329    3.2256 H       1  UNL1        0.0618
     52 H           3.3413   -5.9703    3.9800 H       1  UNL1        0.0621
     53 H           1.1720   -1.6460    5.7577 H       1  UNL1        0.0621
     54 H           0.4307   -0.9757    8.0110 H       1  UNL1        0.0618
     55 H           1.5148   -1.9500   10.0360 H       1  UNL1        0.0618
     56 H           3.3846   -3.5796    9.7631 H       1  UNL1        0.0618
     57 H           3.8375   -4.4386    7.6421 H       1  UNL1        0.0621
     58 H           4.8226    0.1522    3.3165 H       1  UNL1        0.0650
     59 H           4.2947    1.7784    1.6359 H       1  UNL1        0.1490
     60 H           2.9398    2.3673   -0.1503 H       1  UNL1        0.0498
     61 H           4.7956    0.2916   -1.4563 H       1  UNL1        0.0283
     62 H           5.0703    2.0044   -1.3008 H       1  UNL1        0.0283
     63 H           4.3015    1.2886   -3.5746 H       1  UNL1        0.0266
     64 H           3.2129    2.4684   -2.8421 H       1  UNL1        0.0266
     65 H           2.7913   -0.5613   -2.9597 H       1  UNL1        0.0265
     66 H           1.9159    0.6519   -3.8900 H       1  UNL1        0.0265
     67 H           0.6029   -0.1083   -1.9185 H       1  UNL1        0.0266
     68 H           0.9548    1.6213   -1.8316 H       1  UNL1        0.0266
     69 H           2.3413   -0.6437   -0.3976 H       1  UNL1        0.0283
     70 H           1.3478    0.5676    0.3654 H       1  UNL1        0.0283
     71 H           6.5463   -2.6088    1.3756 H       1  UNL1        0.2922
     72 H           9.5125   -2.4043    2.2714 H       1  UNL1        0.0691
     73 H          11.1769   -1.0192    1.8249 H       1  UNL1        0.2921
     74 H           9.1328    1.8603    2.0974 H       1  UNL1        0.0691
     75 H           7.0418    2.6514    2.2510 H       1  UNL1        0.2922
@<TRIPOS>BOND
     1     1     2    1
     2     2     3    1
     3     3     4    1
     4     4     5   am
     5     5     6    2
     6     5     7    1
     7     7     8    1
     8     7     9    1
     9     9    10   ar
    10    10    11   ar
    11    11    12   ar
    12    12    13   ar
    13    13    14   ar
    14     9    14   ar
    15     7    15    1
    16    15    16   ar
    17    16    17   ar
    18    17    18   ar
    19    18    19   ar
    20    19    20   ar
    21    15    20   ar
    22    22    23    2
    23    22    24   am
    24    24    25    1
    25    25    26    1
    26    26    27    1
    27    27    28    1
    28    28    29    1
    29    29    30    1
    30    25    30    1
    31    21    31    1
    32    31    32   ar
    33    32    33    1
    34    32    34   ar
    35    34    35   ar
    36    35    36    1
    37    35    37   ar
    38    37    38   ar
    39    31    38   ar
    40    38    39    1
    41    21    22    1
    42    21     4    1
    43     1    40    1
    44     1    41    1
    45     1    42    1
    46     2    43    1
    47     2    44    1
    48     3    45    1
    49     3    46    1
    50     8    47    1
    51    10    48    1
    52    11    49    1
    53    12    50    1
    54    13    51    1
    55    14    52    1
    56    16    53    1
    57    17    54    1
    58    18    55    1
    59    19    56    1
    60    20    57    1
    61    21    58    1
    62    24    59    1
    63    25    60    1
    64    26    61    1
    65    26    62    1
    66    27    63    1
    67    27    64    1
    68    28    65    1
    69    28    66    1
    70    29    67    1
    71    29    68    1
    72    30    69    1
    73    30    70    1
    74    33    71    1
    75    34    72    1
    76    36    73    1
    77    37    74    1
    78    39    75    1
