REMARK  3 active torsions:
REMARK  status: ('A' for Active; 'I' for Inactive)
REMARK       I    between atoms: C_2  and  N_3 
REMARK    1  A    between atoms: C_2  and  C_12 
REMARK    2  A    between atoms: N_3  and  C_4 
REMARK    3  A    between atoms: C_10  and  O_11 
ROOT
ATOM      1  O   UNL d   1       1.046   0.236   0.027  0.00  0.00    -0.266 OA
ATOM      2  C   UNL d   1       2.271   0.063  -0.051  0.00  0.00     0.274 C 
ATOM      3  N   UNL d   1       2.973  -0.921   0.642  0.00  0.00    -0.319 N 
ATOM      4  H   UNL d   1       3.969  -0.795   0.777  0.00  0.00     0.169 HD
ENDROOT
BRANCH   3   5
ATOM      5  C   UNL d   1       2.299  -1.959   1.345  0.00  0.00     0.070 A 
ATOM      6  C   UNL d   1       2.733  -2.370   2.613  0.00  0.00     0.056 A 
ATOM      7  C   UNL d   1       2.041  -3.388   3.289  0.00  0.00     0.036 A 
ATOM      8 CL   UNL d   1       2.549  -3.892   4.859  0.00  0.00    -0.084 Cl
ATOM      9  C   UNL d   1       0.934  -4.014   2.714  0.00  0.00     0.026 A 
ATOM     10  C   UNL d   1       0.507  -3.624   1.448  0.00  0.00     0.040 A 
ATOM     11  C   UNL d   1       1.199  -2.622   0.769  0.00  0.00     0.092 A 
BRANCH  11  12
ATOM     12  O   UNL d   1       0.877  -2.381  -0.540  0.00  0.00    -0.358 OA
ATOM     13  H   UNL d   1      -0.032  -2.672  -0.704  0.00  0.00     0.217 HD
ENDBRANCH  11  12
ENDBRANCH   3   5
BRANCH   2  14
ATOM     14  C   UNL d   1       3.036   1.090  -0.817  0.00  0.00     0.124 A 
ATOM     15  C   UNL d   1       2.560   2.399  -0.746  0.00  0.00     0.037 A 
ATOM     16  C   UNL d   1       3.130   3.374  -1.554  0.00  0.00     0.004 A 
ATOM     17  C   UNL d   1       4.147   3.010  -2.425  0.00  0.00     0.019 A 
ATOM     18  C   UNL d   1       4.571   1.684  -2.425  0.00  0.00     0.117 A 
ATOM     19  N   UNL d   1       4.062   0.710  -1.623  0.00  0.00    -0.256 NA
ENDBRANCH   2  14
TORSDOF 3
