@<TRIPOS>MOLECULE
*****
 81 84 0 0 0
SMALL
GASTEIGER

@<TRIPOS>ATOM
      1 O           1.0462   -0.1455   -0.2205 O.2     1  UNL1       -0.2755
      2 C           2.2774   -0.0770   -0.1214 C.2     1  UNL1        0.2172
      3 C           2.9612    0.5234    1.0950 C.3     1  UNL1        0.0243
      4 C           1.9970    1.0178    2.1521 C.3     1  UNL1       -0.0448
      5 C           2.7815    1.5420    3.3510 C.3     1  UNL1       -0.0526
      6 C           1.8240    2.0211    4.4270 C.3     1  UNL1       -0.0530
      7 C           2.5926    2.5641    5.6270 C.3     1  UNL1       -0.0526
      8 C           1.6207    3.0476    6.6897 C.3     1  UNL1       -0.0448
      9 C           2.3261    3.6147    7.9267 C.3     1  UNL1        0.0243
     10 C           1.2790    4.0715    8.9277 C.2     1  UNL1        0.2172
     11 O           0.0757    3.9419    8.6841 O.2     1  UNL1       -0.2755
     12 N           1.7726    4.6577   10.0818 N.am    1  UNL1       -0.2855
     13 C           0.9258    5.0575   11.1433 C.ar    1  UNL1        0.0336
     14 C           1.2137    6.1913   11.9049 C.ar    1  UNL1       -0.0370
     15 C           0.3987    6.5237   13.0034 C.ar    1  UNL1       -0.0182
     16 C          -0.7191    5.7463   13.3313 C.ar    1  UNL1        0.1207
     17 O          -1.4560    6.1551   14.4117 O.3     1  UNL1       -0.4894
     18 C          -2.7215    5.5011   14.6057 C.3     1  UNL1        0.1156
     19 C          -3.5325    6.1873   15.7166 C.3     1  UNL1        0.0927
     20 C          -5.0354    5.9399   15.6068 C.3     1  UNL1       -0.0213
     21 C          -5.6268    7.2035   16.1841 C.3     1  UNL1       -0.0270
     22 C          -4.6179    8.2589   15.7950 C.3     1  UNL1        0.0482
     23 O          -3.3501    7.6133   15.6924 O.3     1  UNL1       -0.3732
     24 C          -0.9982    4.6199   12.5661 C.ar    1  UNL1       -0.0182
     25 C          -0.1872    4.2852   11.4822 C.ar    1  UNL1       -0.0370
     26 N           3.0604   -0.4699   -1.1797 N.am    1  UNL1       -0.2855
     27 C           4.4579   -0.5862   -1.2165 C.ar    1  UNL1        0.0336
     28 C           5.1586   -0.2706   -2.3789 C.ar    1  UNL1       -0.0370
     29 C           6.5535   -0.4217   -2.4075 C.ar    1  UNL1       -0.0182
     30 C           7.2510   -0.8363   -1.2669 C.ar    1  UNL1        0.1207
     31 O           8.6098   -0.9044   -1.3685 O.3     1  UNL1       -0.4894
     32 C           9.3270   -1.1652   -0.1488 C.3     1  UNL1        0.1156
     33 C          10.8294   -1.0420   -0.3943 C.3     1  UNL1        0.0927
     34 C          11.2209    0.2057   -1.1712 C.3     1  UNL1       -0.0213
     35 C          12.4077   -0.2571   -1.9725 C.3     1  UNL1       -0.0270
     36 C          12.0984   -1.7143   -2.2326 C.3     1  UNL1        0.0482
     37 O          11.2995   -2.1788   -1.1420 O.3     1  UNL1       -0.3732
     38 C           6.5420   -1.1733   -0.1255 C.ar    1  UNL1       -0.0182
     39 C           5.1590   -1.0867   -0.1230 C.ar    1  UNL1       -0.0370
     40 H           3.6190    1.3382    0.7679 H       1  UNL1        0.0358
     41 H           3.5532   -0.2347    1.6011 H       1  UNL1        0.0358
     42 H           1.3534    0.1881    2.4698 H       1  UNL1        0.0270
     43 H           1.3502    1.7993    1.7410 H       1  UNL1        0.0270
     44 H           3.4397    2.3626    3.0393 H       1  UNL1        0.0265
     45 H           3.4275    0.7520    3.7574 H       1  UNL1        0.0265
     46 H           1.1777    1.1908    4.7387 H       1  UNL1        0.0265
     47 H           1.1718    2.7999    4.0131 H       1  UNL1        0.0265
     48 H           3.2380    3.3905    5.3083 H       1  UNL1        0.0265
     49 H           3.2374    1.7798    6.0398 H       1  UNL1        0.0265
     50 H           0.9671    2.2157    6.9858 H       1  UNL1        0.0270
     51 H           0.9666    3.8162    6.2559 H       1  UNL1        0.0270
     52 H           2.9578    4.4627    7.6415 H       1  UNL1        0.0358
     53 H           2.9558    2.8431    8.3838 H       1  UNL1        0.0358
     54 H           2.7479    4.9253   10.1291 H       1  UNL1        0.1548
     55 H           2.0222    6.8631   11.6283 H       1  UNL1        0.0637
     56 H           0.6345    7.3990   13.6057 H       1  UNL1        0.0655
     57 H          -2.5448    4.4596   14.9039 H       1  UNL1        0.0723
     58 H          -3.2979    5.5121   13.6718 H       1  UNL1        0.0723
     59 H          -3.1680    5.8417   16.6916 H       1  UNL1        0.0630
     60 H          -5.3598    5.0400   16.1385 H       1  UNL1        0.0292
     61 H          -5.3510    5.8380   14.5613 H       1  UNL1        0.0292
     62 H          -5.6826    7.1241   17.2754 H       1  UNL1        0.0288
     63 H          -6.6299    7.4291   15.8101 H       1  UNL1        0.0288
     64 H          -4.5557    9.0658   16.5307 H       1  UNL1        0.0560
     65 H          -4.8457    8.6960   14.8178 H       1  UNL1        0.0560
     66 H          -1.8280    3.9605   12.7891 H       1  UNL1        0.0655
     67 H          -0.4258    3.3814   10.9286 H       1  UNL1        0.0637
     68 H           2.5407   -0.6664   -2.0273 H       1  UNL1        0.1548
     69 H           4.6494    0.1344   -3.2504 H       1  UNL1        0.0637
     70 H           7.0998   -0.2115   -3.3242 H       1  UNL1        0.0655
     71 H           9.1003   -2.1847    0.1874 H       1  UNL1        0.0723
     72 H           9.0417   -0.4377    0.6228 H       1  UNL1        0.0723
     73 H          11.3555   -1.0745    0.5678 H       1  UNL1        0.0630
     74 H          11.4462    1.0483   -0.5106 H       1  UNL1        0.0292
     75 H          10.4308    0.5347   -1.8543 H       1  UNL1        0.0292
     76 H          13.3177   -0.1673   -1.3701 H       1  UNL1        0.0288
     77 H          12.5500    0.3122   -2.8951 H       1  UNL1        0.0288
     78 H          13.0051   -2.3218   -2.2997 H       1  UNL1        0.0560
     79 H          11.5209   -1.8477   -3.1531 H       1  UNL1        0.0560
     80 H           7.0191   -1.5453    0.7730 H       1  UNL1        0.0655
     81 H           4.6509   -1.4889    0.7431 H       1  UNL1        0.0637
@<TRIPOS>BOND
     1     1     2    2
     2     2     3    1
     3     3     4    1
     4     4     5    1
     5     5     6    1
     6     6     7    1
     7     7     8    1
     8     8     9    1
     9     9    10    1
    10    10    11    2
    11    10    12   am
    12    12    13    1
    13    13    14   ar
    14    14    15   ar
    15    15    16   ar
    16    16    17    1
    17    17    18    1
    18    18    19    1
    19    19    20    1
    20    20    21    1
    21    21    22    1
    22    22    23    1
    23    19    23    1
    24    16    24   ar
    25    24    25   ar
    26    13    25   ar
    27     2    26   am
    28    26    27    1
    29    27    28   ar
    30    28    29   ar
    31    29    30   ar
    32    30    31    1
    33    31    32    1
    34    32    33    1
    35    33    34    1
    36    34    35    1
    37    35    36    1
    38    36    37    1
    39    33    37    1
    40    30    38   ar
    41    38    39   ar
    42    27    39   ar
    43     3    40    1
    44     3    41    1
    45     4    42    1
    46     4    43    1
    47     5    44    1
    48     5    45    1
    49     6    46    1
    50     6    47    1
    51     7    48    1
    52     7    49    1
    53     8    50    1
    54     8    51    1
    55     9    52    1
    56     9    53    1
    57    12    54    1
    58    14    55    1
    59    15    56    1
    60    18    57    1
    61    18    58    1
    62    19    59    1
    63    20    60    1
    64    20    61    1
    65    21    62    1
    66    21    63    1
    67    22    64    1
    68    22    65    1
    69    24    66    1
    70    25    67    1
    71    26    68    1
    72    28    69    1
    73    29    70    1
    74    32    71    1
    75    32    72    1
    76    33    73    1
    77    34    74    1
    78    34    75    1
    79    35    76    1
    80    35    77    1
    81    36    78    1
    82    36    79    1
    83    38    80    1
    84    39    81    1
