REMARK  8 active torsions:
REMARK  status: ('A' for Active; 'I' for Inactive)
REMARK    1  A    between atoms: O_2  and  C_3 
REMARK    2  A    between atoms: C_3  and  C_5 
REMARK    3  A    between atoms: C_7  and  C_8 
REMARK    4  A    between atoms: C_8  and  N_9 
REMARK       I    between atoms: N_9  and  C_10 
REMARK    5  A    between atoms: C_10  and  C_12 
REMARK    6  A    between atoms: C_14  and  C_15 
REMARK    7  A    between atoms: C_21  and  N_22 
REMARK       I    between atoms: N_22  and  C_23 
REMARK    8  A    between atoms: C_23  and  C_25 
ROOT
ATOM      1  C   UNL d   1       4.553  -0.386   1.062  0.00  0.00     0.042 C 
ATOM      2  C   UNL d   1       5.337  -1.330   1.744  0.00  0.00     0.026 C 
ATOM      3  C   UNL d   1       6.735  -1.148   1.879  0.00  0.00    -0.037 C 
ATOM      4  C   UNL d   1       7.326  -0.062   1.207  0.00  0.00     0.038 C 
ATOM      5  C   UNL d   1       6.544   0.902   0.564  0.00  0.00     0.036 C 
ATOM      6  C   UNL d   1       5.167   0.718   0.483  0.00  0.00     0.047 C 
ENDROOT
BRANCH   3   7
ATOM      7  C   UNL d   1       7.516  -2.035   2.842  0.00  0.00     0.161 C 
BRANCH   7   8
ATOM      8  N   UNL d   1       8.918  -1.680   3.032  0.00  0.00    -0.351 N 
ATOM      9  C   UNL d   1       9.773  -2.396   3.832  0.00  0.00     0.270 C 
ATOM     10  O   UNL d   1       9.424  -3.405   4.447  0.00  0.00    -0.266 OA
ATOM     11  H   UNL d   1       9.320  -0.904   2.533  0.00  0.00     0.163 HD
BRANCH   9  12
ATOM     12  C   UNL d   1      11.122  -1.890   3.866  0.00  0.00     0.119 A 
ATOM     13  C   UNL d   1      11.604  -0.600   3.928  0.00  0.00     0.066 A 
ATOM     14  C   UNL d   1      13.018  -0.700   3.979  0.00  0.00     0.060 A 
ATOM     15  N   UNL d   1      13.403  -1.982   3.942  0.00  0.00    -0.179 NA
ATOM     16  N   UNL d   1      12.244  -2.675   3.896  0.00  0.00    -0.273 N 
ATOM     17  H   UNL d   1      12.286  -3.689   3.860  0.00  0.00     0.189 HD
BRANCH  14  18
ATOM     18  C   UNL d   1      14.017   0.432   4.073  0.00  0.00     0.031 C 
ATOM     19  C   UNL d   1      14.970   0.458   2.875  0.00  0.00     0.016 C 
ATOM     20  C   UNL d   1      13.300   1.788   4.159  0.00  0.00     0.016 C 
ENDBRANCH  14  18
ENDBRANCH   9  12
ENDBRANCH   7   8
ENDBRANCH   3   7
BRANCH   1  21
ATOM     21  C   UNL d   1       3.067  -0.412   1.123  0.00  0.00     0.293 C 
ATOM     22  O   UNL d   1       2.459  -0.737   2.131  0.00  0.00    -0.259 OA
BRANCH  21  23
ATOM     23  O   UNL d   1       2.512  -0.009  -0.051  0.00  0.00    -0.323 OA
ATOM     24  C   UNL d   1       1.078   0.020  -0.053  0.00  0.00     0.213 C 
ENDBRANCH  21  23
ENDBRANCH   1  21
BRANCH   5  25
ATOM     25  N   UNL d   1       7.179   2.061   0.073  0.00  0.00    -0.323 N 
ATOM     26  C   UNL d   1       6.533   3.122  -0.538  0.00  0.00     0.257 C 
ATOM     27  O   UNL d   1       5.323   3.264  -0.684  0.00  0.00    -0.267 OA
ATOM     28  H   UNL d   1       8.190   2.103   0.149  0.00  0.00     0.169 HD
BRANCH  26  29
ATOM     29  C   UNL d   1       7.369   4.205  -1.080  0.00  0.00     0.054 A 
ATOM     30  C   UNL d   1       6.869   5.516  -0.949  0.00  0.00     0.019 A 
ATOM     31  C   UNL d   1       7.488   6.571  -1.614  0.00  0.00     0.001 A 
ATOM     32  C   UNL d   1       8.641   6.332  -2.356  0.00  0.00     0.002 A 
ATOM     33  C   UNL d   1       9.145   5.035  -2.478  0.00  0.00     0.025 A 
ATOM     34  C   UNL d   1       8.507   3.965  -1.851  0.00  0.00     0.049 A 
ATOM     35 CL   UNL d   1       9.167   2.391  -2.122  0.00  0.00    -0.083 Cl
ENDBRANCH  26  29
ENDBRANCH   5  25
TORSDOF 8
