@<TRIPOS>MOLECULE
*****
 51 54 0 0 0
SMALL
GASTEIGER

@<TRIPOS>ATOM
      1 O           1.0479   -0.0029    0.0860 O.3     1  UNL1       -0.3922
      2 C           2.4618    0.0357   -0.0518 C.3     1  UNL1        0.0730
      3 C           2.9550   -0.9955   -1.0983 C.3     1  UNL1        0.0905
      4 O           4.3039   -0.6455   -1.4475 O.3     1  UNL1       -0.3863
      5 C           2.9531   -2.4000   -0.4684 C.3     1  UNL1       -0.0204
      6 C           3.3306   -3.5228   -1.4394 C.3     1  UNL1       -0.0345
      7 C           2.1839   -3.8625   -2.4049 C.3     1  UNL1        0.0150
      8 N           2.2743   -3.0877   -3.6366 N.pl3   1  UNL1       -0.2982
      9 C           1.9611   -3.6985   -4.8249 C.ar    1  UNL1        0.2423
     10 N           0.9489   -4.5105   -5.0959 N.ar    1  UNL1       -0.0918
     11 N           1.0384   -4.8325   -6.4291 N.ar    1  UNL1       -0.0210
     12 N           2.0843   -4.2512   -6.9974 N.ar    1  UNL1       -0.0376
     13 N           2.7115   -3.5920   -5.9991 N.ar    1  UNL1       -0.1806
     14 C           4.0260   -3.1236   -6.1661 C.ar    1  UNL1        0.0708
     15 C           4.3536   -2.3316   -7.2688 C.ar    1  UNL1       -0.0326
     16 C           5.6591   -1.8428   -7.3855 C.ar    1  UNL1       -0.0173
     17 C           6.6162   -2.1289   -6.4009 C.ar    1  UNL1        0.1286
     18 O           7.8379   -1.5019   -6.5468 O.3     1  UNL1       -0.4560
     19 C           8.8449   -1.7767   -5.6494 C.ar    1  UNL1        0.1284
     20 C           9.4187   -0.7110   -4.9542 C.ar    1  UNL1       -0.0193
     21 C          10.5071   -0.9411   -4.1084 C.ar    1  UNL1       -0.0583
     22 C          10.9809   -2.2399   -3.9148 C.ar    1  UNL1       -0.0615
     23 C          10.3984   -3.3047   -4.6004 C.ar    1  UNL1       -0.0583
     24 C           9.3577   -3.0679   -5.4970 C.ar    1  UNL1       -0.0193
     25 C           6.2731   -2.9569   -5.3283 C.ar    1  UNL1       -0.0173
     26 C           4.9866   -3.4658   -5.2158 C.ar    1  UNL1       -0.0326
     27 C           2.6541   -1.6681   -3.5817 C.3     1  UNL1        0.0176
     28 C           2.0700   -0.9373   -2.3645 C.3     1  UNL1       -0.0060
     29 H           0.7891    0.7461    0.6493 H       1  UNL1        0.2095
     30 H           2.9059   -0.1664    0.9302 H       1  UNL1        0.0586
     31 H           2.7704    1.0488   -0.3366 H       1  UNL1        0.0586
     32 H           4.8862   -0.8587   -0.6972 H       1  UNL1        0.2103
     33 H           1.9711   -2.6141   -0.0287 H       1  UNL1        0.0294
     34 H           3.6743   -2.4197    0.3604 H       1  UNL1        0.0294
     35 H           3.5581   -4.4123   -0.8418 H       1  UNL1        0.0281
     36 H           4.2547   -3.2717   -1.9759 H       1  UNL1        0.0281
     37 H           1.2089   -3.7052   -1.9294 H       1  UNL1        0.0464
     38 H           2.2520   -4.9328   -2.6364 H       1  UNL1        0.0464
     39 H           3.5967   -2.0392   -7.9937 H       1  UNL1        0.0640
     40 H           5.9204   -1.2168   -8.2363 H       1  UNL1        0.0655
     41 H           9.0269    0.2959   -5.0700 H       1  UNL1        0.0654
     42 H          10.9932   -0.1084   -3.6059 H       1  UNL1        0.0619
     43 H          11.8114   -2.4218   -3.2372 H       1  UNL1        0.0618
     44 H          10.7631   -4.3172   -4.4511 H       1  UNL1        0.0619
     45 H           8.9275   -3.8954   -6.0539 H       1  UNL1        0.0654
     46 H           6.9817   -3.2212   -4.5525 H       1  UNL1        0.0655
     47 H           4.7551   -4.1294   -4.3856 H       1  UNL1        0.0640
     48 H           2.2973   -1.1495   -4.4809 H       1  UNL1        0.0465
     49 H           3.7442   -1.5844   -3.5930 H       1  UNL1        0.0465
     50 H           1.0637   -1.3142   -2.1390 H       1  UNL1        0.0309
     51 H           1.9493    0.1175   -2.6431 H       1  UNL1        0.0309
@<TRIPOS>BOND
     1     1     2    1
     2     2     3    1
     3     3     4    1
     4     3     5    1
     5     5     6    1
     6     6     7    1
     7     7     8    1
     8     8     9    1
     9     9    10   ar
    10    10    11   ar
    11    11    12   ar
    12    12    13   ar
    13     9    13   ar
    14    13    14    1
    15    14    15   ar
    16    15    16   ar
    17    16    17   ar
    18    17    18    1
    19    18    19    1
    20    19    20   ar
    21    20    21   ar
    22    21    22   ar
    23    22    23   ar
    24    23    24   ar
    25    19    24   ar
    26    17    25   ar
    27    25    26   ar
    28    14    26   ar
    29     8    27    1
    30    27    28    1
    31     3    28    1
    32     1    29    1
    33     2    30    1
    34     2    31    1
    35     4    32    1
    36     5    33    1
    37     5    34    1
    38     6    35    1
    39     6    36    1
    40     7    37    1
    41     7    38    1
    42    15    39    1
    43    16    40    1
    44    20    41    1
    45    21    42    1
    46    22    43    1
    47    23    44    1
    48    24    45    1
    49    25    46    1
    50    26    47    1
    51    27    48    1
    52    27    49    1
    53    28    50    1
    54    28    51    1
