REMARK  6 active torsions:
REMARK  status: ('A' for Active; 'I' for Inactive)
REMARK    1  A    between atoms: O_2  and  C_3 
REMARK    2  A    between atoms: C_3  and  C_5 
REMARK    3  A    between atoms: C_7  and  N_8 
REMARK       I    between atoms: N_8  and  C_9 
REMARK    4  A    between atoms: C_11  and  C_9 
REMARK    5  A    between atoms: C_11  and  N_13 
REMARK       I    between atoms: N_13  and  C_14 
REMARK       I    between atoms: C_14  and  N_16 
REMARK    6  A    between atoms: N_16  and  C_17 
ROOT
ATOM      1  N   UNL d   1       9.836  -1.227   5.350  0.00  0.00    -0.325 N 
ATOM      2  C   UNL d   1       9.306   0.072   5.418  0.00  0.00     0.244 C 
ATOM      3  O   UNL d   1       8.321   0.411   6.077  0.00  0.00    -0.271 OA
ATOM      4  H   UNL d   1      10.629  -1.364   4.732  0.00  0.00     0.169 HD
ENDROOT
BRANCH   2   5
ATOM      5  C   UNL d   1       9.876   1.117   4.434  0.00  0.00     0.174 C 
ATOM      6  C   UNL d   1       9.058   1.054   3.145  0.00  0.00     0.042 C 
BRANCH   5   7
ATOM      7  N   UNL d   1      11.321   0.962   4.224  0.00  0.00    -0.330 N 
ATOM      8  C   UNL d   1      12.130   1.247   5.313  0.00  0.00     0.321 C 
ATOM      9  O   UNL d   1      11.648   1.433   6.426  0.00  0.00    -0.247 OA
ATOM     10  N   UNL d   1      13.483   1.234   5.041  0.00  0.00    -0.309 N 
ATOM     11  H   UNL d   1      13.800   1.375   4.095  0.00  0.00     0.170 HD
ATOM     12  H   UNL d   1      11.682   1.150   3.301  0.00  0.00     0.165 HD
BRANCH  10  13
ATOM     13  C   UNL d   1      14.458   1.289   6.075  0.00  0.00     0.036 A 
ATOM     14  C   UNL d   1      15.649   2.005   5.908  0.00  0.00     0.029 A 
ATOM     15  C   UNL d   1      16.638   1.973   6.905  0.00  0.00     0.002 A 
ATOM     16  C   UNL d   1      16.432   1.253   8.082  0.00  0.00     0.000 A 
ATOM     17  C   UNL d   1      15.251   0.539   8.252  0.00  0.00     0.002 A 
ATOM     18  C   UNL d   1      14.272   0.562   7.256  0.00  0.00     0.029 A 
ENDBRANCH  10  13
ENDBRANCH   5   7
ENDBRANCH   2   5
BRANCH   1  19
ATOM     19  C   UNL d   1       9.409  -2.325   6.161  0.00  0.00     0.035 A 
ATOM     20  C   UNL d   1      10.000  -3.606   6.070  0.00  0.00     0.049 A 
ATOM     21  C   UNL d   1       9.545  -4.687   6.888  0.00  0.00     0.063 A 
ATOM     22  C   UNL d   1       8.528  -4.460   7.825  0.00  0.00     0.050 A 
ATOM     23  C   UNL d   1       7.951  -3.201   7.913  0.00  0.00     0.027 A 
ATOM     24 CL   UNL d   1       7.964  -5.629   8.965  0.00  0.00    -0.083 Cl
ATOM     25  C   UNL d   1       8.383  -2.164   7.093  0.00  0.00     0.031 A 
BRANCH  21  26
ATOM     26  C   UNL d   1      10.210  -6.016   6.782  0.00  0.00     0.294 C 
ATOM     27  O   UNL d   1      11.427  -6.139   6.668  0.00  0.00    -0.259 OA
BRANCH  26  28
ATOM     28  O   UNL d   1       9.311  -7.032   6.766  0.00  0.00    -0.322 OA
ATOM     29  C   UNL d   1       9.864  -8.358   6.717  0.00  0.00     0.213 C 
ENDBRANCH  26  28
ENDBRANCH  21  26
ENDBRANCH   1  19
TORSDOF 6
