REMARK  11 active torsions:
REMARK  status: ('A' for Active; 'I' for Inactive)
REMARK    1  A    between atoms: C_2  and  C_3 
REMARK    2  A    between atoms: C_3  and  N_4 
REMARK    3  A    between atoms: C_5  and  S_6 
REMARK    4  A    between atoms: S_6  and  C_7 
REMARK    5  A    between atoms: C_7  and  C_8 
REMARK       I    between atoms: C_8  and  N_10 
REMARK    6  A    between atoms: N_10  and  C_11 
REMARK    7  A    between atoms: C_12  and  C_11 
REMARK    8  A    between atoms: C_12  and  C_22 
REMARK    9  A    between atoms: C_12  and  C_13 
REMARK   10  A    between atoms: C_25  and  O_26 
REMARK   11  A    between atoms: C_32  and  O_33 
ROOT
ATOM      1  C   UNL d   1       7.669  -8.426  -1.716  0.00  0.00     0.068 C 
ENDROOT
BRANCH   1   2
ATOM      2  C   UNL d   1       7.394  -9.873  -2.167  0.00  0.00    -0.048 A 
ATOM      3  C   UNL d   1       7.974 -10.983  -1.525  0.00  0.00     0.011 A 
ATOM      4  C   UNL d   1       7.582 -12.286  -1.793  0.00  0.00     0.037 A 
ATOM      5  C   UNL d   1       6.693 -12.530  -2.820  0.00  0.00     0.068 A 
ATOM      6  C   UNL d   1       6.111 -11.459  -3.498  0.00  0.00     0.037 A 
ATOM      7  C   UNL d   1       6.482 -10.143  -3.200  0.00  0.00     0.011 A 
BRANCH   5   8
ATOM      8  O   UNL d   1       6.523 -13.854  -3.091  0.00  0.00    -0.356 OA
ATOM      9  C   UNL d   1       5.847 -14.135  -4.306  0.00  0.00     0.210 C 
ENDBRANCH   5   8
ENDBRANCH   1   2
BRANCH   1  10
ATOM     10  C   UNL d   1       6.439  -7.530  -1.778  0.00  0.00    -0.040 C 
ATOM     11  C   UNL d   1       5.310  -7.794  -1.114  0.00  0.00    -0.005 A 
ATOM     12  C   UNL d   1       4.862  -8.953  -0.421  0.00  0.00     0.014 A 
ATOM     13  C   UNL d   1       4.616  -6.506  -0.985  0.00  0.00     0.038 A 
ATOM     14  C   UNL d   1       3.797  -8.864   0.375  0.00  0.00     0.001 A 
ATOM     15  C   UNL d   1       3.089  -7.608   0.532  0.00  0.00     0.002 A 
ATOM     16  C   UNL d   1       3.438  -6.465  -0.098  0.00  0.00     0.030 A 
ATOM     17  N   UNL d   1       5.218  -5.569  -1.631  0.00  0.00    -0.385 N 
ATOM     18  C   UNL d   1       6.447  -6.106  -2.275  0.00  0.00     0.155 C 
ATOM     19  H   UNL d   1       4.904  -4.603  -1.641  0.00  0.00     0.160 HD
ENDBRANCH   1  10
BRANCH   1  20
ATOM     20  C   UNL d   1       8.208  -8.254  -0.227  0.00  0.00     0.136 C 
BRANCH  20  21
ATOM     21  N   UNL d   1       7.931  -9.378   0.688  0.00  0.00    -0.359 N 
ATOM     22  C   UNL d   1       8.558  -9.602   1.892  0.00  0.00     0.227 C 
ATOM     23  O   UNL d   1       9.205  -8.693   2.419  0.00  0.00    -0.273 OA
ATOM     24  H   UNL d   1       7.153  -9.981   0.463  0.00  0.00     0.162 HD
BRANCH  22  25
ATOM     25  C   UNL d   1       8.427 -11.056   2.472  0.00  0.00     0.185 C 
BRANCH  25  26
ATOM     26  S   UNL d   1       9.034 -11.066   4.197  0.00  0.00    -0.081 SA
BRANCH  26  27
ATOM     27  C   UNL d   1       8.894 -12.662   4.826  0.00  0.00     0.187 C 
ATOM     28  N   UNL d   1       9.363 -12.939   6.154  0.00  0.00    -0.315 N 
ATOM     29  C   UNL d   1       9.446 -14.379   6.262  0.00  0.00     0.347 C 
ATOM     30  N   UNL d   1       8.475 -14.692   5.244  0.00  0.00    -0.265 N 
ATOM     31  N   UNL d   1       8.407 -13.723   4.256  0.00  0.00    -0.150 NA
ATOM     32  H   UNL d   1       8.334 -15.669   5.003  0.00  0.00     0.187 HD
BRANCH  28  33
ATOM     33  C   UNL d   1       9.638 -12.002   7.231  0.00  0.00     0.129 C 
BRANCH  33  34
ATOM     34  C   UNL d   1       8.336 -11.366   7.732  0.00  0.00     0.015 C 
ATOM     35  C   UNL d   1       8.587 -10.365   8.851  0.00  0.00     0.006 C 
ENDBRANCH  33  34
ENDBRANCH  28  33
BRANCH  29  36
ATOM     36  O   UNL d   1       9.083 -14.812   7.536  0.00  0.00    -0.358 OA
ATOM     37  H   UNL d   1       8.130 -14.671   7.613  0.00  0.00     0.214 HD
ENDBRANCH  29  36
ENDBRANCH  26  27
ENDBRANCH  25  26
ENDBRANCH  22  25
ENDBRANCH  20  21
ENDBRANCH   1  20
TORSDOF 11
