REMARK  7 active torsions:
REMARK  status: ('A' for Active; 'I' for Inactive)
REMARK    1  A    between atoms: C_5  and  N_6 
REMARK       I    between atoms: N_6  and  C_7 
REMARK    2  A    between atoms: C_7  and  C_9 
REMARK    3  A    between atoms: C_13  and  N_14 
REMARK    4  A    between atoms: N_14  and  C_15 
REMARK    5  A    between atoms: C_15  and  C_16 
REMARK       I    between atoms: C_16  and  N_18 
REMARK    6  A    between atoms: N_18  and  C_19 
REMARK    7  A    between atoms: C_22  and  C_23 
ROOT
ATOM      1  C   UNL d   1       6.258   9.635  -0.062  0.00  0.00     0.162 C 
ATOM      2  C   UNL d   1       5.549  10.511   0.890  0.00  0.00     0.063 C 
ATOM      3  N   UNL d   1       4.952  11.148   1.666  0.00  0.00    -0.197 NA
ENDROOT
BRANCH   1   4
ATOM      4  C   UNL d   1       5.806   8.185  -0.026  0.00  0.00    -0.045 A 
ATOM      5  C   UNL d   1       4.772   7.785   0.825  0.00  0.00     0.010 A 
ATOM      6  C   UNL d   1       4.322   6.477   0.839  0.00  0.00     0.030 A 
ATOM      7  C   UNL d   1       4.886   5.520   0.005  0.00  0.00     0.034 A 
ATOM      8  C   UNL d   1       5.960   5.871  -0.815  0.00  0.00     0.030 A 
ATOM      9  C   UNL d   1       6.401   7.209  -0.850  0.00  0.00     0.010 A 
BRANCH   7  10
ATOM     10  N   UNL d   1       4.330   4.228   0.001  0.00  0.00    -0.326 N 
ATOM     11  C   UNL d   1       2.935   4.059   0.012  0.00  0.00     0.239 C 
ATOM     12  O   UNL d   1       2.108   4.969  -0.012  0.00  0.00    -0.271 OA
ATOM     13  H   UNL d   1       4.943   3.444  -0.197  0.00  0.00     0.169 HD
BRANCH  11  14
ATOM     14  C   UNL d   1       2.500   2.613   0.013  0.00  0.00     0.223 C 
BRANCH  14  15
ATOM     15  N   UNL d   1       1.055   2.430   0.007  0.00  0.00    -0.381 N 
ATOM     16  H   UNL d   1       0.504   3.290  -0.007  0.00  0.00     0.160 HD
BRANCH  15  17
ATOM     17  C   UNL d   1       0.398   1.208   0.004  0.00  0.00     0.036 A 
ATOM     18  C   UNL d   1      -1.009   1.224   0.003  0.00  0.00     0.059 A 
ATOM     19  C   UNL d   1      -1.821   0.073  -0.012  0.00  0.00     0.036 A 
ATOM     20  C   UNL d   1      -1.178  -1.164  -0.002  0.00  0.00     0.030 A 
ATOM     21  C   UNL d   1       0.224  -1.218   0.005  0.00  0.00     0.011 A 
ATOM     22  C   UNL d   1       1.012  -0.051   0.003  0.00  0.00    -0.035 A 
ATOM     23  C   UNL d   1       2.501  -0.219  -0.015  0.00  0.00     0.050 C 
BRANCH  19  24
ATOM     24  N   UNL d   1      -3.251   0.141  -0.039  0.00  0.00    -0.327 N 
ATOM     25  C   UNL d   1      -3.971   1.332  -0.057  0.00  0.00     0.225 C 
ATOM     26  O   UNL d   1      -3.465   2.453  -0.069  0.00  0.00    -0.273 OA
ATOM     27  H   UNL d   1      -3.754  -0.739  -0.057  0.00  0.00     0.169 HD
BRANCH  25  28
ATOM     28  C   UNL d   1      -5.497   1.248  -0.084  0.00  0.00     0.070 C 
ATOM     29  C   UNL d   1      -6.046   0.542   1.145  0.00  0.00     0.019 C 
ATOM     30  C   UNL d   1      -6.049   2.688  -0.114  0.00  0.00     0.019 C 
ENDBRANCH  25  28
ENDBRANCH  19  24
ENDBRANCH  15  17
ENDBRANCH  14  15
ENDBRANCH  11  14
ENDBRANCH   7  10
ENDBRANCH   1   4
TORSDOF 7
