@<TRIPOS>MOLECULE
*****
 50 50 0 0 0
SMALL
GASTEIGER

@<TRIPOS>ATOM
      1 C           3.1751    0.1045   -2.6639 C.3     1  UNL1       -0.0636
      2 C           2.6274   -1.1658   -2.0243 C.3     1  UNL1       -0.0376
      3 C           3.1104   -1.2626   -0.5639 C.3     1  UNL1        0.0201
      4 C           2.6017   -0.0374    0.2260 C.3     1  UNL1       -0.0466
      5 N           4.5795   -1.3902   -0.5216 N.am    1  UNL1       -0.3112
      6 C           5.2519   -2.4517   -1.1322 C.2     1  UNL1        0.2333
      7 O           4.6617   -3.3995   -1.6532 O.2     1  UNL1       -0.2738
      8 C           6.8092   -2.3815   -1.1440 C.3     1  UNL1        0.0980
      9 C           7.2924   -2.2649    0.2975 C.3     1  UNL1       -0.0380
     10 N           7.3972   -3.5755   -1.7930 N.am    1  UNL1       -0.2884
     11 C           8.7544   -3.7257   -1.9378 C.2     1  UNL1        0.3003
     12 O           9.5632   -2.8799   -1.5888 O.2     1  UNL1       -0.2528
     13 N           9.1440   -4.9439   -2.4343 N.am    1  UNL1       -0.2979
     14 C          10.5724   -5.2362   -2.6001 C.3     1  UNL1        0.0285
     15 C          10.8364   -6.6163   -3.2184 C.3     1  UNL1        0.0249
     16 N          12.2501   -6.8278   -3.5384 N.pl3   1  UNL1       -0.3371
     17 C          12.7300   -7.9707   -4.1721 C.ar    1  UNL1        0.1054
     18 C          13.7871   -8.6652   -3.5303 C.ar    1  UNL1       -0.0342
     19 C          14.3891   -9.8057   -4.0862 C.ar    1  UNL1       -0.0596
     20 C          13.9002  -10.3386   -5.2681 C.ar    1  UNL1       -0.0552
     21 C          12.8429   -9.7048   -5.9119 C.ar    1  UNL1        0.0175
     22 C          12.2603   -8.5288   -5.3808 C.ar    1  UNL1        0.2937
     23 N          11.2388   -7.9010   -6.2403 N.pl3   1  UNL1        0.0815
     24 O          10.6868   -8.6199   -7.0829 O.2     1  UNL1        0.0415
     25 O          11.0003   -6.6875   -6.1270 O.co2   1  UNL1       -0.5760
     26 H           2.9529    0.1559   -3.7288 H       1  UNL1        0.0230
     27 H           4.2614    0.1584   -2.5343 H       1  UNL1        0.0230
     28 H           2.7392    0.9917   -2.1976 H       1  UNL1        0.0230
     29 H           2.9602   -2.0314   -2.6073 H       1  UNL1        0.0280
     30 H           1.5314   -1.1816   -2.0714 H       1  UNL1        0.0280
     31 H           2.6981   -2.1666   -0.0981 H       1  UNL1        0.0495
     32 H           2.9978    0.9085   -0.1612 H       1  UNL1        0.0247
     33 H           2.8924   -0.0701    1.2780 H       1  UNL1        0.0247
     34 H           1.5065    0.0275    0.1690 H       1  UNL1        0.0247
     35 H           5.1052   -0.5672   -0.2532 H       1  UNL1        0.1490
     36 H           7.1161   -1.5073   -1.7325 H       1  UNL1        0.0592
     37 H           6.9443   -3.1253    0.8790 H       1  UNL1        0.0252
     38 H           6.9172   -1.3558    0.7742 H       1  UNL1        0.0252
     39 H           8.3816   -2.2361    0.3690 H       1  UNL1        0.0252
     40 H           6.7474   -4.2484   -2.1805 H       1  UNL1        0.1510
     41 H           8.4647   -5.5241   -2.9042 H       1  UNL1        0.1503
     42 H          11.0504   -5.1655   -1.6152 H       1  UNL1        0.0478
     43 H          11.0151   -4.4506   -3.2268 H       1  UNL1        0.0478
     44 H          10.2098   -6.6610   -4.1044 H       1  UNL1        0.0476
     45 H          10.4724   -7.4112   -2.5597 H       1  UNL1        0.0476
     46 H          12.9353   -6.2509   -3.0564 H       1  UNL1        0.1463
     47 H          14.1580   -8.3275   -2.5624 H       1  UNL1        0.0638
     48 H          15.2411  -10.2756   -3.5972 H       1  UNL1        0.0618
     49 H          14.3374  -11.2376   -5.6964 H       1  UNL1        0.0620
     50 H          12.4965  -10.1196   -6.8566 H       1  UNL1        0.0686
@<TRIPOS>UNITY_ATOM_ATTR
23 1
charge 1
25 1
charge -1
@<TRIPOS>BOND
     1     1     2    1
     2     3     5    1
     3     5     6   am
     4     6     7    2
     5     6     8    1
     6     8     9    1
     7     8    10    1
     8    10    11   am
     9    11    12    2
    10    11    13   am
    11    13    14    1
    12    14    15    1
    13    15    16    1
    14    16    17    1
    15    17    18   ar
    16    18    19   ar
    17    19    20   ar
    18    20    21   ar
    19    21    22   ar
    20    17    22   ar
    21    22    23    1
    22    23    24    2
    23    23    25    1
    24     3     4    1
    25     3     2    1
    26     1    26    1
    27     1    27    1
    28     1    28    1
    29     2    29    1
    30     2    30    1
    31     3    31    1
    32     4    32    1
    33     4    33    1
    34     4    34    1
    35     5    35    1
    36     8    36    1
    37     9    37    1
    38     9    38    1
    39     9    39    1
    40    10    40    1
    41    13    41    1
    42    14    42    1
    43    14    43    1
    44    15    44    1
    45    15    45    1
    46    16    46    1
    47    18    47    1
    48    19    48    1
    49    20    49    1
    50    21    50    1
