@<TRIPOS>MOLECULE
*****
 51 54 0 0 0
SMALL
GASTEIGER

@<TRIPOS>ATOM
      1 C           1.5528    0.0492    0.8492 C.3     1  UNL1        0.0789
      2 O           2.8729    0.0652    0.3758 O.3     1  UNL1       -0.4932
      3 C           3.2456   -1.1308   -0.2159 C.ar    1  UNL1        0.1423
      4 C           4.3770   -1.6008    0.4715 C.ar    1  UNL1       -0.0181
      5 C           5.1129   -2.6727    0.0053 C.ar    1  UNL1       -0.0582
      6 C           4.6644   -3.3587   -1.1124 C.ar    1  UNL1       -0.0597
      7 C           3.4935   -2.9453   -1.7820 C.ar    1  UNL1       -0.0358
      8 C           2.7367   -1.8183   -1.3656 C.ar    1  UNL1        0.0896
      9 N           1.6141   -1.4758   -2.2738 N.pl3   1  UNL1       -0.2127
     10 S           0.4923   -0.2560   -1.9518 S.O2    1  UNL1        0.0725
     11 O          -0.4063   -0.7158   -0.8828 O.2     1  UNL1       -0.1500
     12 O           1.1893    0.9962   -1.9282 O.2     1  UNL1       -0.1500
     13 C          -0.7346   -0.1119   -3.1613 C.ar    1  UNL1        0.1102
     14 C          -1.3045    1.1389   -3.3605 C.ar    1  UNL1       -0.0350
     15 C          -2.5803    1.1851   -3.8962 C.ar    1  UNL1       -0.0581
     16 C          -3.2416   -0.0149   -4.2552 C.ar    1  UNL1       -0.0404
     17 C          -2.6881   -1.2744   -3.9606 C.ar    1  UNL1        0.0354
     18 N          -3.3605   -2.5103   -4.2075 N.am    1  UNL1       -0.2823
     19 C          -2.8536   -3.7675   -3.8325 C.2     1  UNL1        0.2614
     20 O          -1.7893   -3.9306   -3.2267 O.2     1  UNL1       -0.2713
     21 C          -3.6829   -5.0161   -4.1638 C.3     1  UNL1        0.2093
     22 C          -3.6596   -5.3813   -5.6450 C.3     1  UNL1        0.1352
     23 O          -4.0462   -6.7351   -5.9613 O.3     1  UNL1       -0.4841
     24 C          -3.9097   -7.6357   -4.9418 C.ar    1  UNL1        0.1621
     25 C          -4.2978   -8.9585   -5.1708 C.ar    1  UNL1       -0.0163
     26 C          -4.3088   -9.8826   -4.1164 C.ar    1  UNL1       -0.0581
     27 C          -3.8280   -9.5177   -2.8603 C.ar    1  UNL1       -0.0581
     28 C          -3.3777   -8.2194   -2.6509 C.ar    1  UNL1       -0.0163
     29 C          -3.4508   -7.2840   -3.6812 C.ar    1  UNL1        0.1632
     30 O          -3.0427   -6.0306   -3.3702 O.3     1  UNL1       -0.4725
     31 C          -1.4433   -1.2777   -3.3767 C.ar    1  UNL1       -0.0138
     32 H           1.0606    1.0289    0.8157 H       1  UNL1        0.0660
     33 H           1.2498   -0.6275    1.6497 H       1  UNL1        0.0660
     34 H           1.1272   -0.5123    0.1004 H       1  UNL1        0.0660
     35 H           4.6815   -1.0855    1.3806 H       1  UNL1        0.0655
     36 H           6.0382   -2.9397    0.5070 H       1  UNL1        0.0619
     37 H           5.2377   -4.2144   -1.4642 H       1  UNL1        0.0618
     38 H           3.2144   -3.5176   -2.6661 H       1  UNL1        0.0638
     39 H           1.3161   -2.2070   -2.9215 H       1  UNL1        0.1738
     40 H          -0.8123    2.0364   -2.9820 H       1  UNL1        0.0637
     41 H          -3.0630    2.1564   -3.9941 H       1  UNL1        0.0619
     42 H          -4.2047    0.0813   -4.7421 H       1  UNL1        0.0636
     43 H          -4.2717   -2.4403   -4.6394 H       1  UNL1        0.1549
     44 H          -4.6953   -4.8801   -3.7730 H       1  UNL1        0.0867
     45 H          -2.6771   -5.2050   -6.0979 H       1  UNL1        0.0739
     46 H          -4.3676   -4.7315   -6.1737 H       1  UNL1        0.0739
     47 H          -4.6078   -9.2800   -6.1613 H       1  UNL1        0.0655
     48 H          -4.7024  -10.8852   -4.2679 H       1  UNL1        0.0619
     49 H          -3.8034  -10.2369   -2.0461 H       1  UNL1        0.0619
     50 H          -3.0072   -7.9148   -1.6758 H       1  UNL1        0.0655
     51 H          -1.0253   -2.1552   -2.9035 H       1  UNL1        0.0656
@<TRIPOS>BOND
     1     1     2    1
     2     2     3    1
     3     3     4   ar
     4     4     5   ar
     5     5     6   ar
     6     6     7   ar
     7     7     8   ar
     8     3     8   ar
     9     8     9    1
    10     9    10    1
    11    10    11    2
    12    10    12    2
    13    10    13    1
    14    13    14   ar
    15    14    15   ar
    16    15    16   ar
    17    16    17   ar
    18    17    18    1
    19    18    19   am
    20    19    20    2
    21    19    21    1
    22    21    22    1
    23    22    23    1
    24    23    24    1
    25    24    25   ar
    26    25    26   ar
    27    26    27   ar
    28    27    28   ar
    29    28    29   ar
    30    24    29   ar
    31    29    30    1
    32    21    30    1
    33    17    31   ar
    34    13    31   ar
    35     1    32    1
    36     1    33    1
    37     1    34    1
    38     4    35    1
    39     5    36    1
    40     6    37    1
    41     7    38    1
    42     9    39    1
    43    14    40    1
    44    15    41    1
    45    16    42    1
    46    18    43    1
    47    21    44    1
    48    22    45    1
    49    22    46    1
    50    25    47    1
    51    26    48    1
    52    27    49    1
    53    28    50    1
    54    31    51    1
