REMARK  3 active torsions:
REMARK  status: ('A' for Active; 'I' for Inactive)
REMARK    1  A    between atoms: C_6  and  C_7 
REMARK    2  A    between atoms: C_7  and  C_8 
REMARK    3  A    between atoms: C_11  and  C_12 
ROOT
ATOM      1  C   UNL d   1       1.464   3.588  -0.125  0.00  0.00    -0.054 A 
ATOM      2  C   UNL d   1       1.971   4.398   0.895  0.00  0.00     0.008 A 
ATOM      3  C   UNL d   1       3.262   4.915   0.794  0.00  0.00     0.008 A 
ATOM      4  C   UNL d   1       4.103   4.512  -0.251  0.00  0.00    -0.054 A 
ATOM      5  C   UNL d   1       3.593   3.689  -1.260  0.00  0.00     0.008 A 
ATOM      6  C   UNL d   1       2.271   3.286  -1.230  0.00  0.00     0.008 A 
ENDROOT
BRANCH   1   7
ATOM      7  C   UNL d   1       0.122   2.904  -0.011  0.00  0.00     0.088 C 
BRANCH   7   8
ATOM      8  C   UNL d   1       0.155   1.387   0.046  0.00  0.00     0.082 A 
ATOM      9  C   UNL d   1       1.237   0.570   0.110  0.00  0.00     0.261 A 
ATOM     10  N   UNL d   1       1.066  -0.768   0.040  0.00  0.00    -0.275 N 
ATOM     11  O   UNL d   1       2.473   0.711   0.205  0.00  0.00    -0.267 OA
ATOM     12  C   UNL d   1      -0.109  -1.429   0.018  0.00  0.00     0.329 A 
ATOM     13  H   UNL d   1       1.949  -1.259   0.029  0.00  0.00     0.173 HD
ATOM     14  O   UNL d   1      -0.192  -2.654  -0.029  0.00  0.00    -0.246 OA
ATOM     15  N   UNL d   1      -1.217  -0.635   0.059  0.00  0.00    -0.275 N 
ATOM     16  C   UNL d   1      -1.192   0.733   0.018  0.00  0.00     0.261 A 
ATOM     17  H   UNL d   1      -2.105  -1.097   0.064  0.00  0.00     0.173 HD
ATOM     18  O   UNL d   1      -2.241   1.378  -0.029  0.00  0.00    -0.267 OA
ENDBRANCH   7   8
ENDBRANCH   1   7
BRANCH   4  19
ATOM     19  C   UNL d   1       5.555   4.918  -0.277  0.00  0.00     0.018 C 
ATOM     20  C   UNL d   1       6.494   3.706  -0.118  0.00  0.00     0.009 C 
ATOM     21  C   UNL d   1       7.958   4.113  -0.262  0.00  0.00     0.001 C 
ATOM     22  C   UNL d   1       8.203   4.854  -1.574  0.00  0.00     0.000 C 
ATOM     23  C   UNL d   1       7.294   6.072  -1.696  0.00  0.00     0.001 C 
ATOM     24  C   UNL d   1       5.833   5.678  -1.580  0.00  0.00     0.009 C 
ENDBRANCH   4  19
TORSDOF 3
