@<TRIPOS>MOLECULE
*****
 37 39 0 0 0
SMALL
GASTEIGER

@<TRIPOS>ATOM
      1 O           1.1498    0.0733    0.2805 O.2     1  UNL1       -0.2723
      2 C           2.3688    0.0109    0.1172 C.2     1  UNL1        0.2488
      3 C           3.0322   -0.9245   -0.8801 C.3     1  UNL1        0.1009
      4 N           2.1196   -1.7506   -1.6844 N.ar    1  UNL1       -0.3378
      5 C           2.2349   -3.1221   -1.7769 C.ar    1  UNL1        0.0062
      6 C           1.2661   -3.5829   -2.6369 C.ar    1  UNL1       -0.0364
      7 C           0.5389   -2.4615   -3.1085 C.ar    1  UNL1       -0.0001
      8 C          -0.5553   -2.3286   -3.9883 C.ar    1  UNL1       -0.0526
      9 C          -1.0776   -1.0622   -4.2554 C.ar    1  UNL1       -0.0611
     10 C          -0.5166    0.0639   -3.6633 C.ar    1  UNL1       -0.0598
     11 C           0.5800   -0.0409   -2.7954 C.ar    1  UNL1       -0.0376
     12 C           1.0975   -1.3192   -2.5183 C.ar    1  UNL1        0.0495
     13 N           3.1693    0.8318    0.8906 N.am    1  UNL1       -0.2327
     14 N           4.5772    0.9100    0.8859 N.am    1  UNL1       -0.2303
     15 C           5.1970    1.7516    1.8129 C.2     1  UNL1        0.2602
     16 O           4.5782    2.4642    2.6039 O.2     1  UNL1       -0.2687
     17 C           6.6910    1.7274    1.8390 C.ar    1  UNL1        0.0395
     18 C           7.4265    1.7470    0.6467 C.ar    1  UNL1       -0.0495
     19 C           8.8247    1.6863    0.6795 C.ar    1  UNL1       -0.0597
     20 C           9.4879    1.4975    1.8912 C.ar    1  UNL1       -0.0433
     21 C           8.7590    1.5040    3.0791 C.ar    1  UNL1        0.0417
     22 CL          9.5796    1.2260    4.5676 Cl      1  UNL1       -0.0835
     23 C           7.3732    1.6935    3.0645 C.ar    1  UNL1       -0.0312
     24 H           3.6712   -1.6157   -0.3164 H       1  UNL1        0.0588
     25 H           3.6533   -0.3637   -1.5855 H       1  UNL1        0.0588
     26 H           2.9835   -3.6679   -1.2187 H       1  UNL1        0.0809
     27 H           1.0872   -4.6169   -2.9014 H       1  UNL1        0.0639
     28 H          -0.9988   -3.2078   -4.4469 H       1  UNL1        0.0624
     29 H          -1.9310   -0.9619   -4.9216 H       1  UNL1        0.0618
     30 H          -0.9465    1.0422   -3.8666 H       1  UNL1        0.0618
     31 H           0.9780    0.8512   -2.3240 H       1  UNL1        0.0638
     32 H           2.6843    1.4515    1.5446 H       1  UNL1        0.1729
     33 H           5.1127    0.2293    0.3599 H       1  UNL1        0.1731
     34 H           6.9260    1.8456   -0.3124 H       1  UNL1        0.0625
     35 H           9.4006    1.7778   -0.2390 H       1  UNL1        0.0618
     36 H          10.5673    1.3561    1.9040 H       1  UNL1        0.0632
     37 H           6.8319    1.7896    4.0031 H       1  UNL1        0.0640
@<TRIPOS>BOND
     1     1     2    2
     2     2     3    1
     3     3     4    1
     4     4     5   ar
     5     5     6   ar
     6     6     7   ar
     7     7     8   ar
     8     8     9   ar
     9     9    10   ar
    10    10    11   ar
    11    11    12   ar
    12     7    12   ar
    13     4    12   ar
    14     2    13   am
    15    13    14    1
    16    14    15   am
    17    15    16    2
    18    15    17    1
    19    17    18   ar
    20    18    19   ar
    21    19    20   ar
    22    20    21   ar
    23    21    22    1
    24    21    23   ar
    25    17    23   ar
    26     3    24    1
    27     3    25    1
    28     5    26    1
    29     6    27    1
    30     8    28    1
    31     9    29    1
    32    10    30    1
    33    11    31    1
    34    13    32    1
    35    14    33    1
    36    18    34    1
    37    19    35    1
    38    20    36    1
    39    23    37    1
