REMARK  11 active torsions:
REMARK  status: ('A' for Active; 'I' for Inactive)
REMARK    1  A    between atoms: C_2  and  C_3 
REMARK    2  A    between atoms: C_3  and  C_5 
REMARK    3  A    between atoms: C_8  and  O_9 
REMARK    4  A    between atoms: O_9  and  C_10 
REMARK    5  A    between atoms: C_10  and  C_11 
REMARK       I    between atoms: C_11  and  N_13 
REMARK    6  A    between atoms: N_13  and  N_14 
REMARK    7  A    between atoms: N_14  and  C_15 
REMARK    8  A    between atoms: C_15  and  N_17 
REMARK       I    between atoms: N_17  and  C_18 
REMARK    9  A    between atoms: C_18  and  C_20 
REMARK   10  A    between atoms: C_24  and  C_25 
REMARK   11  A    between atoms: C_25  and  O_27 
ROOT
ATOM      1  N   UNL d   1      13.249  -1.751   2.790  0.00  0.00    -0.273 N 
ATOM      2  H   UNL d   1      13.577  -1.321   1.925  0.00  0.00     0.189 HD
ENDROOT
BRANCH   1   3
ATOM      3  N   UNL d   1      11.795  -1.827   2.910  0.00  0.00    -0.266 N 
ATOM      4  C   UNL d   1      10.962  -1.334   1.911  0.00  0.00     0.260 C 
ATOM      5  O   UNL d   1      11.432  -0.811   0.900  0.00  0.00    -0.269 OA
ATOM      6  H   UNL d   1      11.451  -2.265   3.766  0.00  0.00     0.190 HD
BRANCH   4   7
ATOM      7  C   UNL d   1       9.431  -1.492   2.165  0.00  0.00     0.280 C 
BRANCH   7   8
ATOM      8  O   UNL d   1       8.674  -1.014   1.047  0.00  0.00    -0.342 OA
BRANCH   8   9
ATOM      9  C   UNL d   1       7.309  -0.970   1.152  0.00  0.00     0.069 A 
ATOM     10  C   UNL d   1       6.643  -0.356   0.089  0.00  0.00     0.037 A 
ATOM     11  C   UNL d   1       5.256  -0.177   0.118  0.00  0.00     0.010 A 
ATOM     12  C   UNL d   1       4.486  -0.707   1.161  0.00  0.00    -0.054 A 
ATOM     13  C   UNL d   1       5.163  -1.325   2.222  0.00  0.00     0.010 A 
ATOM     14  C   UNL d   1       6.556  -1.463   2.214  0.00  0.00     0.037 A 
BRANCH  12  15
ATOM     15  C   UNL d   1       2.959  -0.713   1.145  0.00  0.00     0.014 C 
ATOM     16  C   UNL d   1       2.459  -2.170   1.161  0.00  0.00     0.015 C 
BRANCH  15  17
ATOM     17  C   UNL d   1       2.372   0.035  -0.070  0.00  0.00     0.004 C 
ATOM     18  C   UNL d   1       0.856   0.063  -0.090  0.00  0.00     0.006 C 
ENDBRANCH  15  17
ENDBRANCH  12  15
ENDBRANCH   8   9
ENDBRANCH   7   8
ENDBRANCH   4   7
ENDBRANCH   1   3
BRANCH   1  19
ATOM     19  C   UNL d   1      14.053  -2.275   3.819  0.00  0.00     0.193 C 
ATOM     20  S   UNL d   1      13.312  -2.963   5.172  0.00  0.00    -0.039 SA
BRANCH  19  21
ATOM     21  N   UNL d   1      15.453  -2.167   3.622  0.00  0.00    -0.298 N 
ATOM     22  C   UNL d   1      16.459  -2.656   4.491  0.00  0.00     0.257 C 
ATOM     23  O   UNL d   1      16.251  -3.238   5.553  0.00  0.00    -0.267 OA
ATOM     24  H   UNL d   1      15.771  -1.747   2.760  0.00  0.00     0.171 HD
BRANCH  22  25
ATOM     25  C   UNL d   1      17.910  -2.476   4.174  0.00  0.00     0.033 A 
ATOM     26  C   UNL d   1      18.799  -3.509   4.549  0.00  0.00     0.017 A 
ATOM     27  C   UNL d   1      20.184  -3.316   4.524  0.00  0.00     0.002 A 
ATOM     28  C   UNL d   1      20.700  -2.104   4.072  0.00  0.00     0.017 A 
ATOM     29  C   UNL d   1      19.834  -1.059   3.704  0.00  0.00     0.040 A 
ATOM     30  C   UNL d   1      18.436  -1.248   3.762  0.00  0.00     0.034 A 
BRANCH  29  31
ATOM     31  C   UNL d   1      20.450   0.243   3.317  0.00  0.00     0.292 C 
ATOM     32  O   UNL d   1      21.663   0.424   3.258  0.00  0.00    -0.259 OA
BRANCH  31  33
ATOM     33  O   UNL d   1      19.502   1.173   3.051  0.00  0.00    -0.323 OA
ATOM     34  C   UNL d   1      20.023   2.453   2.672  0.00  0.00     0.213 C 
ENDBRANCH  31  33
ENDBRANCH  29  31
ENDBRANCH  22  25
ENDBRANCH  19  21
ENDBRANCH   1  19
TORSDOF 11
