@<TRIPOS>MOLECULE
*****
 37 38 0 0 0
SMALL
GASTEIGER

@<TRIPOS>ATOM
      1 O           1.1709    0.1416   -0.2359 O.2     1  UNL1       -0.2739
      2 C           2.3965    0.0543   -0.1415 C.2     1  UNL1        0.2334
      3 C           3.0801   -0.9652    0.7550 C.3     1  UNL1        0.0505
      4 C           2.1659   -1.8857    1.5526 C.ar    1  UNL1       -0.0382
      5 C           1.2085   -1.3761    2.4472 C.ar    1  UNL1       -0.0517
      6 C           0.4759   -2.2306    3.2803 C.ar    1  UNL1        0.0159
      7 C           0.6428   -3.6149    3.1660 C.ar    1  UNL1        0.2732
      8 N          -0.2108   -4.5204    3.9462 N.pl3   1  UNL1        0.0796
      9 O          -1.0422   -4.0147    4.7134 O.2     1  UNL1        0.0414
     10 O          -0.0595   -5.7403    3.7812 O.co2   1  UNL1       -0.5760
     11 C           1.5808   -4.1429    2.2719 C.ar    1  UNL1        0.0159
     12 C           2.3385   -3.2780    1.4750 C.ar    1  UNL1       -0.0517
     13 N           3.1905    0.9165   -0.8707 N.am    1  UNL1       -0.2329
     14 N           4.6047    0.9577   -0.9146 N.am    1  UNL1       -0.2182
     15 C           5.2060    1.9009   -1.7386 C.2     1  UNL1        0.3160
     16 O           4.5519    2.6960   -2.4156 O.2     1  UNL1       -0.2513
     17 N           6.5847    1.8685   -1.7358 N.am    1  UNL1       -0.2980
     18 C           7.3520    2.8097   -2.5445 C.3     1  UNL1        0.0159
     19 C           8.8404    2.6193   -2.4094 C.3     1  UNL1       -0.0254
     20 C           9.6485    1.9825   -3.5178 C.3     1  UNL1       -0.0485
     21 C           9.7743    3.4571   -3.2643 C.3     1  UNL1       -0.0485
     22 H           3.7165   -0.4347    1.4729 H       1  UNL1        0.0407
     23 H           3.7322   -1.5746    0.1182 H       1  UNL1        0.0407
     24 H           1.0068   -0.3063    2.4905 H       1  UNL1        0.0622
     25 H          -0.2198   -1.8036    4.0006 H       1  UNL1        0.0685
     26 H           1.7348   -5.2165    2.1837 H       1  UNL1        0.0685
     27 H           3.0617   -3.7048    0.7828 H       1  UNL1        0.0622
     28 H           2.7072    1.5914   -1.4675 H       1  UNL1        0.1728
     29 H           5.1436    0.3128   -0.3556 H       1  UNL1        0.1744
     30 H           7.0794    1.2117   -1.1541 H       1  UNL1        0.1503
     31 H           7.0875    3.8251   -2.2286 H       1  UNL1        0.0465
     32 H           7.0408    2.6953   -3.5892 H       1  UNL1        0.0465
     33 H           9.1557    2.4750   -1.3819 H       1  UNL1        0.0316
     34 H           9.1457    1.6774   -4.4293 H       1  UNL1        0.0269
     35 H          10.4890    1.3492   -3.2547 H       1  UNL1        0.0269
     36 H           9.3569    4.1343   -4.0031 H       1  UNL1        0.0269
     37 H          10.7007    3.8234   -2.8310 H       1  UNL1        0.0269
@<TRIPOS>UNITY_ATOM_ATTR
8 1
charge 1
10 1
charge -1
@<TRIPOS>BOND
     1     1     2    2
     2     2     3    1
     3     3     4    1
     4     4     5   ar
     5     5     6   ar
     6     6     7   ar
     7     7     8    1
     8     8     9    2
     9     8    10    1
    10     7    11   ar
    11    11    12   ar
    12     4    12   ar
    13     2    13   am
    14    13    14    1
    15    14    15   am
    16    15    16    2
    17    15    17   am
    18    17    18    1
    19    18    19    1
    20    19    20    1
    21    20    21    1
    22    19    21    1
    23     3    22    1
    24     3    23    1
    25     5    24    1
    26     6    25    1
    27    11    26    1
    28    12    27    1
    29    13    28    1
    30    14    29    1
    31    17    30    1
    32    18    31    1
    33    18    32    1
    34    19    33    1
    35    20    34    1
    36    20    35    1
    37    21    36    1
    38    21    37    1
