REMARK  3 active torsions:
REMARK  status: ('A' for Active; 'I' for Inactive)
REMARK    1  A    between atoms: C_5  and  C_6 
REMARK       I    between atoms: C_6  and  N_7 
REMARK    2  A    between atoms: C_10  and  N_11 
REMARK       I    between atoms: N_11  and  C_12 
REMARK    3  A    between atoms: C_12  and  C_14 
ROOT
ATOM      1  N   UNL d   1       1.116   2.430   0.016  0.00  0.00    -0.321 N 
ATOM      2  C   UNL d   1       2.499   2.617  -0.002  0.00  0.00     0.274 C 
ATOM      3  O   UNL d   1       3.419   1.802   0.069  0.00  0.00    -0.266 OA
ATOM      4  H   UNL d   1       0.563   3.284   0.025  0.00  0.00     0.169 HD
ENDROOT
BRANCH   1   5
ATOM      5  C   UNL d   1       0.384   1.182   0.015  0.00  0.00     0.042 A 
ATOM      6  C   UNL d   1      -1.039   1.211   0.005  0.00  0.00     0.047 A 
ATOM      7  C   UNL d   1      -1.811   0.011  -0.008  0.00  0.00     0.034 A 
ATOM      8  C   UNL d   1      -1.161  -1.220   0.001  0.00  0.00     0.017 A 
ATOM      9  C   UNL d   1       0.215  -1.266   0.006  0.00  0.00     0.010 A 
ATOM     10  C   UNL d   1       0.985  -0.096   0.005  0.00  0.00    -0.035 A 
ATOM     11  C   UNL d   1       2.450  -0.364  -0.005  0.00  0.00     0.050 C 
BRANCH   7  12
ATOM     12  C   UNL d   1      -3.310   0.050  -0.038  0.00  0.00     0.249 C 
ATOM     13  N   UNL d   1      -3.998  -1.142  -0.056  0.00  0.00    -0.366 N 
ATOM     14  H   UNL d   1      -3.590  -2.063  -0.051  0.00  0.00     0.159 HD
ATOM     15  H   UNL d   1      -5.009  -1.103  -0.080  0.00  0.00     0.159 HD
ATOM     16  O   UNL d   1      -3.924   1.109  -0.053  0.00  0.00    -0.268 OA
ENDBRANCH   7  12
ENDBRANCH   1   5
BRANCH   2  17
ATOM     17  C   UNL d   1       3.084   3.948  -0.134  0.00  0.00     0.125 A 
ATOM     18  C   UNL d   1       4.228   4.032  -0.941  0.00  0.00     0.038 A 
ATOM     19  C   UNL d   1       4.986   5.180  -0.900  0.00  0.00     0.016 A 
ATOM     20  C   UNL d   1       4.586   6.191  -0.034  0.00  0.00    -0.007 A 
ATOM     21  C   UNL d   1       5.300   7.389   0.026  0.00  0.00     0.014 A 
ATOM     22  C   UNL d   1       3.433   5.992   0.778  0.00  0.00     0.068 A 
ATOM     23  C   UNL d   1       4.877   8.395   0.887  0.00  0.00     0.001 A 
ATOM     24  C   UNL d   1       3.771   8.192   1.708  0.00  0.00     0.002 A 
ATOM     25  C   UNL d   1       3.070   6.988   1.658  0.00  0.00     0.032 A 
ATOM     26  N   UNL d   1       2.669   4.895   0.725  0.00  0.00    -0.243 NA
ENDBRANCH   2  17
TORSDOF 3
