REMARK  12 active torsions:
REMARK  status: ('A' for Active; 'I' for Inactive)
REMARK    1  A    between atoms: C_2  and  O_3 
REMARK    2  A    between atoms: O_3  and  C_4 
REMARK    3  A    between atoms: C_4  and  C_5 
REMARK    4  A    between atoms: C_5  and  O_6 
REMARK    5  A    between atoms: O_6  and  C_7 
REMARK    6  A    between atoms: C_10  and  C_11 
REMARK       I    between atoms: C_11  and  N_13 
REMARK    7  A    between atoms: N_13  and  C_14 
REMARK    8  A    between atoms: C_14  and  N_16 
REMARK    9  A    between atoms: N_16  and  N_17 
REMARK       I    between atoms: N_17  and  C_18 
REMARK   10  A    between atoms: C_18  and  C_20 
REMARK   11  A    between atoms: C_23  and  N_24 
REMARK       I    between atoms: N_24  and  C_25 
REMARK   12  A    between atoms: C_25  and  C_27 
ROOT
ATOM      1  N   UNL d   1       9.014  11.202  -6.023  0.00  0.00    -0.264 N 
ATOM      2  C   UNL d   1       8.528  12.495  -5.889  0.00  0.00     0.270 C 
ATOM      3  O   UNL d   1       7.619  12.805  -5.116  0.00  0.00    -0.266 OA
ATOM      4  H   UNL d   1       9.811  10.987  -6.625  0.00  0.00     0.190 HD
ENDROOT
BRANCH   1   5
ATOM      5  N   UNL d   1       8.507  10.076  -5.265  0.00  0.00    -0.273 N 
ATOM      6  H   UNL d   1       7.711  10.287  -4.668  0.00  0.00     0.189 HD
BRANCH   5   7
ATOM      7  C   UNL d   1       9.129   8.820  -5.431  0.00  0.00     0.193 C 
ATOM      8  S   UNL d   1      10.428   8.673  -6.502  0.00  0.00    -0.039 SA
BRANCH   7   9
ATOM      9  N   UNL d   1       8.593   7.766  -4.650  0.00  0.00    -0.298 N 
ATOM     10  C   UNL d   1       9.047   6.419  -4.620  0.00  0.00     0.257 C 
ATOM     11  O   UNL d   1       9.996   6.006  -5.285  0.00  0.00    -0.267 OA
ATOM     12  H   UNL d   1       7.796   7.997  -4.079  0.00  0.00     0.171 HD
BRANCH  10  13
ATOM     13  C   UNL d   1       8.363   5.366  -3.785  0.00  0.00     0.032 A 
ATOM     14  C   UNL d   1       8.833   4.031  -3.876  0.00  0.00     0.020 A 
ATOM     15  C   UNL d   1       8.167   2.965  -3.247  0.00  0.00     0.038 A 
ATOM     16  C   UNL d   1       7.050   3.220  -2.458  0.00  0.00     0.068 A 
ATOM     17  C   UNL d   1       6.634   4.543  -2.293  0.00  0.00     0.038 A 
ATOM     18  C   UNL d   1       7.271   5.607  -2.957  0.00  0.00     0.020 A 
BRANCH  16  19
ATOM     19  O   UNL d   1       6.476   2.155  -1.814  0.00  0.00    -0.349 OA
BRANCH  19  20
ATOM     20  C   UNL d   1       5.044   2.201  -1.733  0.00  0.00     0.201 C 
BRANCH  20  21
ATOM     21  C   UNL d   1       4.542   1.067  -0.845  0.00  0.00     0.194 C 
BRANCH  21  22
ATOM     22  O   UNL d   1       3.111   1.069  -0.819  0.00  0.00    -0.389 OA
BRANCH  22  23
ATOM     23  C   UNL d   1       2.619   0.006  -0.003  0.00  0.00     0.163 C 
ATOM     24  C   UNL d   1       1.103   0.021  -0.013  0.00  0.00     0.033 C 
ENDBRANCH  22  23
ENDBRANCH  21  22
ENDBRANCH  20  21
ENDBRANCH  19  20
ENDBRANCH  16  19
ENDBRANCH  10  13
ENDBRANCH   7   9
ENDBRANCH   5   7
ENDBRANCH   1   5
BRANCH   2  25
ATOM     25  C   UNL d   1       9.151  13.528  -6.793  0.00  0.00     0.033 A 
ATOM     26  C   UNL d   1       9.446  14.842  -6.387  0.00  0.00     0.019 A 
ATOM     27  C   UNL d   1       9.938  15.799  -7.317  0.00  0.00     0.030 A 
ATOM     28  C   UNL d   1      10.184  15.436  -8.653  0.00  0.00     0.035 A 
ATOM     29  C   UNL d   1       9.871  14.133  -9.032  0.00  0.00     0.030 A 
ATOM     30  C   UNL d   1       9.359  13.196  -8.130  0.00  0.00     0.019 A 
BRANCH  28  31
ATOM     31  N   UNL d   1      10.753  16.363  -9.572  0.00  0.00    -0.323 N 
ATOM     32  C   UNL d   1      11.180  16.067 -10.868  0.00  0.00     0.256 C 
ATOM     33  O   UNL d   1      11.010  15.008 -11.474  0.00  0.00    -0.267 OA
ATOM     34  H   UNL d   1      10.916  17.300  -9.227  0.00  0.00     0.169 HD
BRANCH  32  35
ATOM     35  C   UNL d   1      11.952  17.105 -11.607  0.00  0.00     0.038 A 
ATOM     36  C   UNL d   1      11.641  17.313 -12.966  0.00  0.00     0.017 A 
ATOM     37  C   UNL d   1      12.434  18.148 -13.758  0.00  0.00     0.001 A 
ATOM     38  C   UNL d   1      13.515  18.816 -13.191  0.00  0.00     0.001 A 
ATOM     39  C   UNL d   1      13.843  18.598 -11.852  0.00  0.00     0.007 A 
ATOM     40  C   UNL d   1      13.081  17.732 -11.050  0.00  0.00    -0.046 A 
ATOM     41  C   UNL d   1      13.527  17.468  -9.643  0.00  0.00     0.049 C 
ENDBRANCH  32  35
ENDBRANCH  28  31
ENDBRANCH   2  25
TORSDOF 12
