REMARK  5 active torsions:
REMARK  status: ('A' for Active; 'I' for Inactive)
REMARK    1  A    between atoms: C_2  and  C_3 
REMARK    2  A    between atoms: C_3  and  N_4 
REMARK       I    between atoms: N_4  and  C_5 
REMARK       I    between atoms: C_5  and  N_7 
REMARK    3  A    between atoms: N_7  and  N_8 
REMARK       I    between atoms: N_8  and  C_9 
REMARK    4  A    between atoms: C_9  and  C_11 
REMARK    5  A    between atoms: C_16  and  N_17 
ROOT
ATOM      1  N   UNL d   1       7.318  -1.693   3.525  0.00  0.00    -0.262 N 
ATOM      2  C   UNL d   1       8.709  -1.758   3.504  0.00  0.00     0.270 C 
ATOM      3  O   UNL d   1       9.309  -2.752   3.914  0.00  0.00    -0.266 OA
ATOM      4  H   UNL d   1       6.848  -2.431   4.051  0.00  0.00     0.190 HD
ENDROOT
BRANCH   2   5
ATOM      5  C   UNL d   1       9.491  -0.542   3.113  0.00  0.00     0.036 A 
ATOM      6  C   UNL d   1      10.894  -0.552   3.111  0.00  0.00     0.018 A 
ATOM      7  C   UNL d   1      11.611   0.621   2.816  0.00  0.00     0.010 A 
ATOM      8  C   UNL d   1      10.947   1.825   2.508  0.00  0.00    -0.029 A 
ATOM      9  C   UNL d   1      11.765   3.049   2.205  0.00  0.00     0.050 C 
ATOM     10  C   UNL d   1       9.541   1.828   2.521  0.00  0.00     0.109 A 
ATOM     11  C   UNL d   1       8.838   0.662   2.853  0.00  0.00     0.053 A 
BRANCH  10  12
ATOM     12  N   UNL d   1       8.722   3.015   2.188  0.00  0.00    -0.115 N 
ATOM     13  O   UNL d   1       9.285   4.075   1.900  0.00  0.00    -0.532 OA
ATOM     14  O   UNL d   1       7.489   2.871   2.186  0.00  0.00    -0.532 OA
ENDBRANCH  10  12
ENDBRANCH   2   5
BRANCH   1  15
ATOM     15  N   UNL d   1       6.545  -1.222   2.411  0.00  0.00    -0.249 N 
ATOM     16  C   UNL d   1       5.163  -1.270   2.491  0.00  0.00     0.334 C 
ATOM     17  N   UNL d   1       4.516  -0.711   1.407  0.00  0.00    -0.342 N 
ATOM     18  O   UNL d   1       4.573  -1.762   3.451  0.00  0.00    -0.246 OA
ATOM     19  H   UNL d   1       5.046  -0.259   0.677  0.00  0.00     0.164 HD
ATOM     20  H   UNL d   1       7.024  -0.917   1.575  0.00  0.00     0.192 HD
BRANCH  17  21
ATOM     21  C   UNL d   1       3.056  -0.652   1.354  0.00  0.00     0.124 C 
BRANCH  21  22
ATOM     22  C   UNL d   1       2.506   0.028   0.095  0.00  0.00     0.015 C 
ATOM     23  C   UNL d   1       0.978   0.038   0.079  0.00  0.00     0.006 C 
ENDBRANCH  21  22
ENDBRANCH  17  21
ENDBRANCH   1  15
TORSDOF 5
