@<TRIPOS>MOLECULE
*****
 46 46 0 0 0
SMALL
GASTEIGER

@<TRIPOS>ATOM
      1 C           2.4902    1.1841   -0.0007 C.3     1  UNL1       -0.0396
      2 C           1.2481    0.3398    0.0041 C.ar    1  UNL1       -0.0470
      3 C           1.2998   -1.0563    0.0182 C.ar    1  UNL1       -0.0579
      4 C           0.1195   -1.8217   -0.0001 C.ar    1  UNL1       -0.0458
      5 C          -1.1447   -1.2100   -0.0217 C.ar    1  UNL1        0.0795
      6 C          -2.4211   -2.0120   -0.0576 C.2     1  UNL1        0.2637
      7 O          -3.5067   -1.4188   -0.0709 O.2     1  UNL1       -0.2685
      8 N          -2.3412   -3.3978   -0.0773 N.am    1  UNL1       -0.2302
      9 N          -3.5194   -4.1856   -0.1087 N.am    1  UNL1       -0.2320
     10 C          -3.3838   -5.5708   -0.1445 C.2     1  UNL1        0.2577
     11 O          -2.2654   -6.0920   -0.1073 O.2     1  UNL1       -0.2714
     12 C          -4.7112   -6.3840   -0.2070 C.3     1  UNL1        0.1329
     13 C          -5.5052   -5.9927   -1.4582 C.3     1  UNL1       -0.0300
     14 O          -4.4394   -7.7984   -0.1924 O.3     1  UNL1       -0.3676
     15 C          -5.6189   -8.5941   -0.2006 C.3     1  UNL1        0.0489
     16 C          -5.3006  -10.0818   -0.2330 C.3     1  UNL1       -0.0271
     17 C          -6.5947  -10.9149   -0.3141 C.3     1  UNL1       -0.0446
     18 C          -7.4172  -10.5881   -1.5672 C.3     1  UNL1       -0.0626
     19 C          -6.2596  -12.4030   -0.3050 C.3     1  UNL1       -0.0626
     20 C          -1.1811    0.1988   -0.0126 C.ar    1  UNL1        0.1292
     21 O          -2.3381    0.9359   -0.0051 O.3     1  UNL1       -0.5060
     22 C          -0.0042    0.9593   -0.0071 C.ar    1  UNL1       -0.0165
     23 H           3.4007    0.5760    0.0031 H       1  UNL1        0.0278
     24 H           2.5118    1.8289    0.8845 H       1  UNL1        0.0278
     25 H           2.5126    1.8143   -0.8966 H       1  UNL1        0.0278
     26 H           2.2608   -1.5683    0.0406 H       1  UNL1        0.0620
     27 H           0.2342   -2.8997    0.0034 H       1  UNL1        0.0626
     28 H          -1.4773   -3.9363   -0.0712 H       1  UNL1        0.1731
     29 H          -4.4056   -3.6863   -0.1323 H       1  UNL1        0.1729
     30 H          -5.2854   -6.1445    0.6971 H       1  UNL1        0.0690
     31 H          -4.9529   -6.2784   -2.3600 H       1  UNL1        0.0259
     32 H          -5.7210   -4.9238   -1.4934 H       1  UNL1        0.0259
     33 H          -6.4770   -6.4947   -1.5115 H       1  UNL1        0.0259
     34 H          -6.1656   -8.3747   -1.1133 H       1  UNL1        0.0560
     35 H          -6.2432   -8.3535    0.6669 H       1  UNL1        0.0560
     36 H          -4.7189  -10.3540    0.6562 H       1  UNL1        0.0290
     37 H          -4.6549  -10.2992   -1.0939 H       1  UNL1        0.0290
     38 H          -7.2094  -10.6932    0.5683 H       1  UNL1        0.0296
     39 H          -6.8316  -10.7708   -2.4746 H       1  UNL1        0.0232
     40 H          -7.7489   -9.5457   -1.5839 H       1  UNL1        0.0232
     41 H          -8.3246  -11.1972   -1.6114 H       1  UNL1        0.0232
     42 H          -5.6520  -12.6711   -1.1759 H       1  UNL1        0.0232
     43 H          -7.1742  -13.0044   -0.3305 H       1  UNL1        0.0232
     44 H          -5.7022  -12.6718    0.5975 H       1  UNL1        0.0232
     45 H          -3.0981    0.3161   -0.0004 H       1  UNL1        0.2922
     46 H          -0.0688    2.0463   -0.0120 H       1  UNL1        0.0657
@<TRIPOS>BOND
     1     1     2    1
     2     2     3   ar
     3     3     4   ar
     4     4     5   ar
     5     5     6    1
     6     6     7    2
     7     6     8   am
     8     8     9    1
     9     9    10   am
    10    10    11    2
    11    10    12    1
    12    12    13    1
    13    12    14    1
    14    14    15    1
    15    15    16    1
    16    16    17    1
    17    17    18    1
    18    17    19    1
    19     5    20   ar
    20    20    21    1
    21    20    22   ar
    22     2    22   ar
    23     1    23    1
    24     1    24    1
    25     1    25    1
    26     3    26    1
    27     4    27    1
    28     8    28    1
    29     9    29    1
    30    12    30    1
    31    13    31    1
    32    13    32    1
    33    13    33    1
    34    15    34    1
    35    15    35    1
    36    16    36    1
    37    16    37    1
    38    17    38    1
    39    18    39    1
    40    18    40    1
    41    18    41    1
    42    19    42    1
    43    19    43    1
    44    19    44    1
    45    21    45    1
    46    22    46    1
