REMARK  16 active torsions:
REMARK  status: ('A' for Active; 'I' for Inactive)
REMARK    1  A    between atoms: C_2  and  C_3 
REMARK    2  A    between atoms: C_3  and  C_4 
REMARK    3  A    between atoms: C_4  and  C_5 
REMARK    4  A    between atoms: C_5  and  C_6 
REMARK    5  A    between atoms: C_6  and  N_7 
REMARK       I    between atoms: N_7  and  C_8 
REMARK    6  A    between atoms: C_18  and  N_7 
REMARK    7  A    between atoms: C_8  and  C_10 
REMARK    8  A    between atoms: C_11  and  C_12 
REMARK    9  A    between atoms: C_18  and  C_26 
REMARK   10  A    between atoms: C_18  and  C_19 
REMARK       I    between atoms: C_19  and  N_21 
REMARK   11  A    between atoms: N_21  and  C_22 
REMARK   12  A    between atoms: C_22  and  C_23 
REMARK   13  A    between atoms: C_23  and  C_24 
REMARK   14  A    between atoms: C_27  and  O_28 
REMARK   15  A    between atoms: C_30  and  O_31 
REMARK   16  A    between atoms: C_33  and  O_34 
ROOT
ATOM      1  C   UNL d   1       8.387   1.960  -4.098  0.00  0.00     0.219 C 
ENDROOT
BRANCH   1   2
ATOM      2  C   UNL d   1       8.715   2.789  -5.332  0.00  0.00     0.040 C 
ATOM      3  C   UNL d   1       9.110   2.218  -6.516  0.00  0.00     0.080 C 
ATOM      4  C   UNL d   1       8.901   2.843  -7.726  0.00  0.00     0.073 C 
ATOM      5  C   UNL d   1       8.700   4.180  -7.817  0.00  0.00     0.071 C 
ATOM      6  C   UNL d   1       8.652   4.887  -6.645  0.00  0.00     0.073 C 
ATOM      7  C   UNL d   1       8.610   4.184  -5.414  0.00  0.00     0.080 C 
BRANCH   3   8
ATOM      8  O   UNL d   1       9.897   1.105  -6.579  0.00  0.00    -0.360 OA
ATOM      9  H   UNL d   1       9.844   0.672  -5.711  0.00  0.00     0.217 HD
ENDBRANCH   3   8
BRANCH   5  10
ATOM     10  O   UNL d   1       8.693   4.757  -9.047  0.00  0.00    -0.361 OA
ATOM     11  H   UNL d   1       8.750   4.043  -9.715  0.00  0.00     0.217 HD
ENDBRANCH   5  10
BRANCH   7  12
ATOM     12  O   UNL d   1       8.569   4.907  -4.255  0.00  0.00    -0.360 OA
ATOM     13  H   UNL d   1       8.694   5.839  -4.515  0.00  0.00     0.217 HD
ENDBRANCH   7  12
ENDBRANCH   1   2
BRANCH   1  14
ATOM     14  C   UNL d   1       6.856   1.892  -3.803  0.00  0.00     0.245 C 
ATOM     15  O   UNL d   1       6.060   1.458  -4.639  0.00  0.00    -0.271 OA
ATOM     16  N   UNL d   1       6.420   2.220  -2.527  0.00  0.00    -0.359 N 
ATOM     17  H   UNL d   1       7.059   2.571  -1.824  0.00  0.00     0.162 HD
BRANCH  16  18
ATOM     18  C   UNL d   1       5.000   2.126  -2.220  0.00  0.00     0.122 C 
BRANCH  18  19
ATOM     19  C   UNL d   1       4.658   2.571  -0.804  0.00  0.00     0.019 C 
BRANCH  19  20
ATOM     20  C   UNL d   1       3.155   2.458  -0.533  0.00  0.00    -0.003 C 
ATOM     21  C   UNL d   1       2.823   2.905   0.881  0.00  0.00     0.005 C 
ENDBRANCH  19  20
ENDBRANCH  18  19
ENDBRANCH  16  18
ENDBRANCH   1  14
BRANCH   1  22
ATOM     22  N   UNL d   1       8.906   0.535  -4.103  0.00  0.00    -0.324 N 
ATOM     23  C   UNL d   1       8.231  -0.563  -4.767  0.00  0.00     0.299 C 
ATOM     24  O   UNL d   1       8.199  -1.696  -4.303  0.00  0.00    -0.258 OA
BRANCH  22  25
ATOM     25  C   UNL d   1      10.021   0.300  -3.147  0.00  0.00     0.128 C 
BRANCH  25  26
ATOM     26  C   UNL d   1      10.672  -1.069  -3.245  0.00  0.00     0.020 C 
BRANCH  26  27
ATOM     27  C   UNL d   1      11.844  -1.286  -2.304  0.00  0.00     0.002 C 
BRANCH  27  28
ATOM     28  C   UNL d   1      12.328  -2.725  -2.477  0.00  0.00    -0.000 C 
BRANCH  28  29
ATOM     29  C   UNL d   1      13.485  -3.021  -1.539  0.00  0.00    -0.005 C 
ATOM     30  C   UNL d   1      13.963  -4.449  -1.721  0.00  0.00     0.005 C 
ENDBRANCH  28  29
ENDBRANCH  27  28
ENDBRANCH  26  27
ENDBRANCH  25  26
ENDBRANCH  22  25
BRANCH  23  31
ATOM     31  C   UNL d   1       7.834  -0.454  -6.202  0.00  0.00     0.000 C 
ATOM     32  C   UNL d   1       7.763  -0.349  -7.394  0.00  0.00    -0.057 C 
BRANCH  32  33
ATOM     33  C   UNL d   1       7.644  -0.082  -8.837  0.00  0.00     0.018 C 
ATOM     34  C   UNL d   1       6.387  -0.298  -9.371  0.00  0.00     0.020 C 
ATOM     35  C   UNL d   1       6.106   0.008 -10.705  0.00  0.00     0.001 C 
ATOM     36  C   UNL d   1       7.048   0.645 -11.510  0.00  0.00     0.000 C 
ATOM     37  C   UNL d   1       8.305   0.919 -10.994  0.00  0.00     0.001 C 
ATOM     38  C   UNL d   1       8.631   0.461  -9.698  0.00  0.00     0.020 C 
ENDBRANCH  32  33
ENDBRANCH  23  31
ENDBRANCH   1  22
TORSDOF 16
