@<TRIPOS>MOLECULE
*****
 29 29 0 0 0
SMALL
GASTEIGER

@<TRIPOS>ATOM
      1 C           1.0405    0.0410   -0.0574 C.3     1  UNL1       -0.0526
      2 C           2.5743    0.0630   -0.0961 C.3     1  UNL1        0.0493
      3 C           3.0824   -0.2508   -1.5094 C.3     1  UNL1        0.0200
      4 N           2.6012   -1.5413   -1.9942 N.pl3   1  UNL1       -0.3431
      5 C           2.9792   -2.0744   -3.2132 C.ar    1  UNL1        0.0285
      6 C           4.2766   -1.9252   -3.7112 C.ar    1  UNL1       -0.0408
      7 C           4.6615   -2.5005   -4.9235 C.ar    1  UNL1       -0.0586
      8 C           3.7307   -3.1925   -5.6906 C.ar    1  UNL1       -0.0433
      9 C           2.4189   -3.3004   -5.2385 C.ar    1  UNL1        0.0427
     10 CL          1.2560   -4.1167   -6.2123 Cl      1  UNL1       -0.0835
     11 C           2.0439   -2.7542   -4.0066 C.ar    1  UNL1       -0.0225
     12 C           3.0726    1.4403    0.3604 C.2     1  UNL1        0.2306
     13 O           2.3084    2.3517    0.6954 O.2     1  UNL1       -0.2742
     14 N           4.4526    1.6122    0.3917 N.am    1  UNL1       -0.2533
     15 N           4.9815    2.8246    0.9038 N.3     1  UNL1       -0.2544
     16 H           0.6322   -0.9288   -0.3556 H       1  UNL1        0.0237
     17 H           0.6262    0.7989   -0.7321 H       1  UNL1        0.0237
     18 H           0.6703    0.2501    0.9512 H       1  UNL1        0.0237
     19 H           2.9523   -0.6872    0.6112 H       1  UNL1        0.0407
     20 H           4.1767   -0.2440   -1.5015 H       1  UNL1        0.0468
     21 H           2.7585    0.5390   -2.1988 H       1  UNL1        0.0468
     22 H           1.9552   -2.0878   -1.4352 H       1  UNL1        0.1461
     23 H           5.0303   -1.4055   -3.1289 H       1  UNL1        0.0636
     24 H           5.6917   -2.4136   -5.2563 H       1  UNL1        0.0619
     25 H           4.0330   -3.6403   -6.6328 H       1  UNL1        0.0632
     26 H           1.0113   -2.8448   -3.6780 H       1  UNL1        0.0651
     27 H           5.0889    0.8265    0.2733 H       1  UNL1        0.1687
     28 H           4.1784    3.4374    1.1181 H       1  UNL1        0.1405
     29 H           5.4763    3.3124    0.1532 H       1  UNL1        0.1405
@<TRIPOS>BOND
     1     1     2    1
     2     2     3    1
     3     3     4    1
     4     4     5    1
     5     5     6   ar
     6     6     7   ar
     7     7     8   ar
     8     8     9   ar
     9     9    10    1
    10     9    11   ar
    11     5    11   ar
    12     2    12    1
    13    12    13    2
    14    12    14   am
    15    14    15    1
    16     1    16    1
    17     1    17    1
    18     1    18    1
    19     2    19    1
    20     3    20    1
    21     3    21    1
    22     4    22    1
    23     6    23    1
    24     7    24    1
    25     8    25    1
    26    11    26    1
    27    14    27    1
    28    15    28    1
    29    15    29    1
