@<TRIPOS>MOLECULE
*****
 60 62 0 0 0
SMALL
GASTEIGER

@<TRIPOS>ATOM
      1 C           0.9325   -0.0517    0.0417 C.3     1  UNL1       -0.0653
      2 C           2.4553   -0.0606    0.0327 C.3     1  UNL1       -0.0552
      3 C           2.9945   -1.0941   -0.9591 C.3     1  UNL1       -0.0438
      4 C           4.5279   -1.1206   -0.9932 C.3     1  UNL1        0.0011
      5 S           5.0565   -2.3571   -2.2316 S.3     1  UNL1       -0.0860
      6 C           6.8160   -2.2554   -2.0951 C.ar    1  UNL1        0.1896
      7 N           7.4819   -1.3866   -2.8725 N.ar    1  UNL1       -0.2295
      8 C           8.8372   -1.4247   -2.8268 C.ar    1  UNL1        0.0455
      9 C           9.5538   -2.2877   -2.0262 C.ar    1  UNL1        0.0916
     10 C          11.0302   -2.2050   -2.0014 C.2     1  UNL1        0.2487
     11 O          11.6363   -1.4588   -2.7766 O.2     1  UNL1       -0.2700
     12 N          11.7052   -2.9896   -1.0940 N.am    1  UNL1       -0.3055
     13 C          13.1395   -3.1300   -1.1567 C.3     1  UNL1        0.0592
     14 C          13.7894   -4.2920   -0.3364 C.3     1  UNL1        0.0208
     15 C          13.2134   -5.6866   -0.5796 C.ar    1  UNL1        0.0019
     16 C          12.1073   -5.9519   -1.3956 C.ar    1  UNL1       -0.0498
     17 C          11.6792   -7.2553   -1.6326 C.ar    1  UNL1       -0.0195
     18 C          12.4953   -8.3186   -1.2830 C.ar    1  UNL1        0.1201
     19 O          12.1273   -9.5309   -1.7824 O.3     1  UNL1       -0.4951
     20 C          13.0562  -10.5883   -1.5742 C.3     1  UNL1        0.0788
     21 C          13.6051   -8.0777   -0.4876 C.ar    1  UNL1       -0.0195
     22 C          13.8466   -6.7969    0.0003 C.ar    1  UNL1       -0.0498
     23 N          15.3759   -4.2379   -0.4492 N.4     1  UNL1        0.2418
     24 C          15.9893   -3.0508   -1.1803 C.3     1  UNL1       -0.0311
     25 C          16.0874   -3.5441   -2.6074 C.3     1  UNL1       -0.0077
     26 C          16.5457   -4.9715   -2.4775 C.3     1  UNL1       -0.0077
     27 C          16.1061   -5.4193   -1.1094 C.3     1  UNL1       -0.0311
     28 C           8.7532   -3.1452   -1.2971 C.ar    1  UNL1        0.1456
     29 CL          9.3219   -4.3584   -0.2088 Cl      1  UNL1       -0.0611
     30 N           7.4090   -3.1553   -1.3110 N.ar    1  UNL1       -0.2095
     31 H           0.5578    0.6913    0.7528 H       1  UNL1        0.0230
     32 H           0.5366   -1.0301    0.3328 H       1  UNL1        0.0230
     33 H           0.5364    0.1965   -0.9485 H       1  UNL1        0.0230
     34 H           2.8190   -0.2836    1.0423 H       1  UNL1        0.0263
     35 H           2.8183    0.9387   -0.2333 H       1  UNL1        0.0263
     36 H           2.6020   -0.8608   -1.9574 H       1  UNL1        0.0273
     37 H           2.6074   -2.0836   -0.6816 H       1  UNL1        0.0273
     38 H           4.9190   -1.3777   -0.0022 H       1  UNL1        0.0381
     39 H           4.9140   -0.1349   -1.2728 H       1  UNL1        0.0381
     40 H           9.3300   -0.7025   -3.4775 H       1  UNL1        0.0839
     41 H          11.1791   -3.6326   -0.5098 H       1  UNL1        0.1492
     42 H          13.5058   -2.1629   -0.8012 H       1  UNL1        0.0522
     43 H          13.3908   -3.2446   -2.2107 H       1  UNL1        0.0522
     44 H          13.5855   -4.0710    0.7237 H       1  UNL1        0.0920
     45 H          11.5348   -5.1851   -1.9021 H       1  UNL1        0.0623
     46 H          10.7379   -7.4293   -2.1493 H       1  UNL1        0.0654
     47 H          12.6377  -11.4965   -2.0113 H       1  UNL1        0.0660
     48 H          13.2092  -10.7676   -0.5048 H       1  UNL1        0.0660
     49 H          14.0084  -10.3756   -2.0753 H       1  UNL1        0.0660
     50 H          14.3204   -8.8570   -0.2458 H       1  UNL1        0.0654
     51 H          14.6940   -6.6746    0.6732 H       1  UNL1        0.0623
     52 H          15.6870   -4.1899    0.5323 H       1  UNL1        0.2040
     53 H          16.9779   -2.8840   -0.7387 H       1  UNL1        0.0815
     54 H          15.4136   -2.1371   -1.0469 H       1  UNL1        0.0815
     55 H          16.7652   -2.9561   -3.2243 H       1  UNL1        0.0319
     56 H          15.1157   -3.5387   -3.1081 H       1  UNL1        0.0319
     57 H          17.6257   -5.0864   -2.5800 H       1  UNL1        0.0319
     58 H          16.0666   -5.5983   -3.2407 H       1  UNL1        0.0319
     59 H          16.9230   -5.7188   -0.4426 H       1  UNL1        0.0815
     60 H          15.4900   -6.2830   -1.2975 H       1  UNL1        0.0815
@<TRIPOS>UNITY_ATOM_ATTR
23 1
charge 1
@<TRIPOS>BOND
     1     1     2    1
     2     2     3    1
     3     3     4    1
     4     4     5    1
     5     5     6    1
     6     6     7   ar
     7     7     8   ar
     8     8     9   ar
     9     9    10    1
    10    10    11    2
    11    10    12   am
    12    12    13    1
    13    13    14    1
    14    14    15    1
    15    15    16   ar
    16    16    17   ar
    17    17    18   ar
    18    18    19    1
    19    19    20    1
    20    18    21   ar
    21    21    22   ar
    22    15    22   ar
    23    14    23    1
    24    23    24    1
    25    24    25    1
    26    25    26    1
    27    26    27    1
    28    23    27    1
    29     9    28   ar
    30    28    29    1
    31    28    30   ar
    32     6    30   ar
    33     1    31    1
    34     1    32    1
    35     1    33    1
    36     2    34    1
    37     2    35    1
    38     3    36    1
    39     3    37    1
    40     4    38    1
    41     4    39    1
    42     8    40    1
    43    12    41    1
    44    13    42    1
    45    13    43    1
    46    14    44    1
    47    16    45    1
    48    17    46    1
    49    20    47    1
    50    20    48    1
    51    20    49    1
    52    21    50    1
    53    22    51    1
    54    23    52    1
    55    24    53    1
    56    24    54    1
    57    25    55    1
    58    25    56    1
    59    26    57    1
    60    26    58    1
    61    27    59    1
    62    27    60    1
