@<TRIPOS>MOLECULE
*****
 54 58 0 0 0
SMALL
GASTEIGER

@<TRIPOS>ATOM
      1 C           1.0265   -0.0184    0.1348 C.3     1  UNL1        0.0788
      2 O           2.4455    0.1040    0.1805 O.3     1  UNL1       -0.4951
      3 C           3.0881   -0.5591    1.1891 C.ar    1  UNL1        0.1201
      4 C           4.2915    0.0036    1.6144 C.ar    1  UNL1       -0.0196
      5 C           5.1247   -0.6819    2.5182 C.ar    1  UNL1       -0.0532
      6 C           4.7361   -1.9164    3.0813 C.ar    1  UNL1       -0.0220
      7 C           5.6885   -2.6992    4.0127 C.3     1  UNL1        0.1056
      8 C           6.4337   -3.9267    3.3806 C.3     1  UNL1        0.1235
      9 O           6.4135   -3.8642    1.9799 O.3     1  UNL1       -0.3833
     10 C           5.8645   -5.2149    3.9742 C.2     1  UNL1        0.0992
     11 C           6.0583   -6.7198    3.1210 C.ar    1  UNL1        0.0254
     12 C           5.1101   -6.5609    2.1178 C.ar    1  UNL1        0.0118
     13 N           4.6181   -7.8481    2.1016 N.ar    1  UNL1       -0.3600
     14 C           5.6006   -8.5024    1.4194 C.ar    1  UNL1        0.0471
     15 C           5.3791   -9.3858    0.3334 C.ar    1  UNL1       -0.0378
     16 C           6.4033   -9.8545   -0.4450 C.ar    1  UNL1       -0.0598
     17 C           7.6563   -9.3908   -0.0855 C.ar    1  UNL1       -0.0611
     18 C           7.8920   -8.4572    1.1140 C.ar    1  UNL1       -0.0520
     19 C           6.7687   -7.9049    1.9806 C.ar    1  UNL1        0.0087
     20 N           5.0206   -4.8661    4.9967 N.2     1  UNL1       -0.1779
     21 N           5.0270   -3.2576    5.1752 N.am    1  UNL1       -0.1772
     22 C           4.4864   -2.4231    6.3085 C.2     1  UNL1        0.3012
     23 O           3.7281   -2.8383    7.1435 O.2     1  UNL1       -0.2668
     24 C           5.0118   -0.8038    6.4313 C.3     1  UNL1        0.2298
     25 N           4.6773    0.0682    7.7019 N.ar    1  UNL1       -0.1696
     26 C           4.2355   -0.5034    8.8973 C.ar    1  UNL1        0.1806
     27 C           4.0613    0.3970    9.9310 C.ar    1  UNL1        0.0466
     28 S           4.4551    1.9857    9.4533 S.2     1  UNL1       -0.0059
     29 C           4.8438    1.4054    7.8600 C.ar    1  UNL1        0.3096
     30 N           5.2678    2.2941    6.9849 N.pl3   1  UNL1       -0.2994
     31 C           3.5003   -2.4440    2.6700 C.ar    1  UNL1       -0.0532
     32 C           2.6967   -1.7840    1.7219 C.ar    1  UNL1       -0.0196
     33 H           0.6753    0.4549   -0.7885 H       1  UNL1        0.0660
     34 H           0.5886    0.5193    0.9805 H       1  UNL1        0.0660
     35 H           0.6773   -1.0543    0.1098 H       1  UNL1        0.0660
     36 H           4.5963    0.9668    1.2038 H       1  UNL1        0.0654
     37 H           6.1080   -0.2570    2.7133 H       1  UNL1        0.0622
     38 H           6.4212   -1.9805    4.3934 H       1  UNL1        0.0601
     39 H           7.4446   -3.9528    3.7848 H       1  UNL1        0.0682
     40 H           5.4729   -3.8715    1.7052 H       1  UNL1        0.2104
     41 H           5.4853   -6.1045    1.1894 H       1  UNL1        0.0814
     42 H           4.2208   -8.3349    2.8886 H       1  UNL1        0.1654
     43 H           4.3541   -9.5818    0.0341 H       1  UNL1        0.0638
     44 H           6.1784  -10.5057   -1.3009 H       1  UNL1        0.0618
     45 H           8.4535   -9.7255   -0.7758 H       1  UNL1        0.0618
     46 H           8.9616   -8.2425    1.2054 H       1  UNL1        0.0624
     47 H           4.6292   -0.2048    5.5970 H       1  UNL1        0.1134
     48 H           6.1077   -0.7912    6.4169 H       1  UNL1        0.1134
     49 H           4.0506   -1.5597    9.0223 H       1  UNL1        0.1382
     50 H           3.7306    0.2040   10.9458 H       1  UNL1        0.0755
     51 H           5.3233    3.2520    7.3245 H       1  UNL1        0.1483
     52 H           5.4846    2.0517    6.0378 H       1  UNL1        0.1483
     53 H           3.1666   -3.4166    3.0289 H       1  UNL1        0.0622
     54 H           1.7952   -2.2842    1.3804 H       1  UNL1        0.0654
@<TRIPOS>UNITY_ATOM_ATTR
25 1
charge 1
@<TRIPOS>BOND
     1     1     2    1
     2     2     3    1
     3     3     4   ar
     4     4     5   ar
     5     5     6   ar
     6     6     7    1
     7     7     8    1
     8     8    10    1
     9    10    11    1
    10    11    12   ar
    11    12    13   ar
    12    13    14   ar
    13    14    15   ar
    14    15    16   ar
    15    16    17   ar
    16    17    18   ar
    17    18    19   ar
    18    11    19   ar
    19    14    19   ar
    20    10    20    2
    21    20    21    1
    22     7    21    1
    23    21    22   am
    24    22    23    2
    25    22    24    1
    26    24    25    1
    27    25    26   ar
    28    26    27   ar
    29    27    28   ar
    30    28    29   ar
    31    25    29   ar
    32    29    30    1
    33     6    31   ar
    34    31    32   ar
    35     3    32   ar
    36     8     9    1
    37     1    33    1
    38     1    34    1
    39     1    35    1
    40     4    36    1
    41     5    37    1
    42     7    38    1
    43     8    39    1
    44     9    40    1
    45    12    41    1
    46    13    42    1
    47    15    43    1
    48    16    44    1
    49    17    45    1
    50    18    46    1
    51    24    47    1
    52    24    48    1
    53    26    49    1
    54    27    50    1
    55    30    51    1
    56    30    52    1
    57    31    53    1
    58    32    54    1
