REMARK  4 active torsions:
REMARK  status: ('A' for Active; 'I' for Inactive)
REMARK    1  A    between atoms: C_11  and  N_12 
REMARK    2  A    between atoms: N_12  and  N_13 
REMARK    3  A    between atoms: N_17  and  C_18 
REMARK    4  A    between atoms: C_23  and  N_24 
ROOT
ATOM      1  N   UNL d   1       4.138   1.801  -0.105  0.00  0.00    -0.182 NA
ATOM      2  C   UNL d   1       4.440   0.784  -0.868  0.00  0.00     0.035 C 
ATOM      3  C   UNL d   1       5.880   0.272  -0.968  0.00  0.00     0.076 C 
ATOM      4  C   UNL d   1       5.900  -1.261  -0.825  0.00  0.00     0.130 C 
ATOM      5  N   UNL d   1       4.947  -1.879  -1.768  0.00  0.00    -0.365 N 
ATOM      6  C   UNL d   1       3.567  -1.427  -1.642  0.00  0.00     0.130 C 
ATOM      7  C   UNL d   1       3.451   0.088  -1.779  0.00  0.00     0.076 C 
ENDROOT
BRANCH   1   8
ATOM      8  N   UNL d   1       2.802   2.161   0.006  0.00  0.00    -0.257 N 
ATOM      9  H   UNL d   1       2.592   3.157  -0.080  0.00  0.00     0.191 HD
BRANCH   8  10
ATOM     10  C   UNL d   1       1.684   1.355   0.245  0.00  0.00     0.213 C 
ATOM     11  N   UNL d   1       0.466   1.783   0.026  0.00  0.00    -0.223 NA
ATOM     12  C   UNL d   1      -0.587   0.836   0.041  0.00  0.00     0.086 A 
ATOM     13  C   UNL d   1      -1.908   1.271   0.044  0.00  0.00     0.034 A 
ATOM     14  C   UNL d   1      -0.360  -0.550   0.010  0.00  0.00     0.064 A 
ATOM     15  C   UNL d   1      -2.963   0.349   0.018  0.00  0.00     0.002 A 
ATOM     16  C   UNL d   1      -2.712  -1.022  -0.049  0.00  0.00     0.002 A 
ATOM     17  C   UNL d   1      -1.400  -1.481  -0.060  0.00  0.00     0.032 A 
ATOM     18  N   UNL d   1       0.942  -1.011   0.179  0.00  0.00    -0.318 N 
ATOM     19  C   UNL d   1       1.903  -0.138   0.631  0.00  0.00     0.293 C 
ATOM     20  H   UNL d   1       1.117  -2.001   0.258  0.00  0.00     0.169 HD
ATOM     21  O   UNL d   1       2.952  -0.543   1.134  0.00  0.00    -0.264 OA
ENDBRANCH   8  10
ENDBRANCH   1   8
BRANCH   5  22
ATOM     22  C   UNL d   1       5.226  -2.789  -2.745  0.00  0.00     0.137 A 
ATOM     23  N   UNL d   1       5.628  -4.010  -2.322  0.00  0.00    -0.350 N 
ATOM     24  C   UNL d   1       5.800  -5.070  -3.131  0.00  0.00     0.090 A 
ATOM     25  H   UNL d   1       5.757  -4.124  -1.317  0.00  0.00     0.166 HD
ATOM     26  C   UNL d   1       5.548  -4.958  -4.491  0.00  0.00     0.020 A 
ATOM     27  C   UNL d   1       5.116  -3.743  -4.994  0.00  0.00     0.041 A 
ATOM     28  C   UNL d   1       4.964  -2.657  -4.128  0.00  0.00     0.146 A 
BRANCH  28  29
ATOM     29  N   UNL d   1       4.640  -1.374  -4.740  0.00  0.00    -0.112 N 
ATOM     30  O   UNL d   1       4.963  -0.353  -4.140  0.00  0.00    -0.532 OA
ATOM     31  O   UNL d   1       4.124  -1.391  -5.864  0.00  0.00    -0.532 OA
ENDBRANCH  28  29
ENDBRANCH   5  22
TORSDOF 4
