@<TRIPOS>MOLECULE
*****
 33 35 0 0 0
SMALL
GASTEIGER

@<TRIPOS>ATOM
      1 O           1.1417   -0.0842    0.1995 O.2     1  UNL1       -0.2698
      2 C           2.3499   -0.0539   -0.0602 C.2     1  UNL1        0.2496
      3 N           2.9143    0.1265   -1.3418 N.am    1  UNL1       -0.2636
      4 C           2.1729    0.1837   -2.5512 C.2     1  UNL1        0.1411
      5 S           0.4914   -0.0252   -2.5923 S.2     1  UNL1       -0.0182
      6 N           2.9529    0.3956   -3.7237 N.am    1  UNL1       -0.2966
      7 C           2.3608    0.5618   -5.0336 C.ar    1  UNL1        0.0327
      8 C           1.2889    1.4530   -5.2135 C.ar    1  UNL1       -0.0378
      9 C           0.5742    1.5212   -6.4112 C.ar    1  UNL1       -0.0247
     10 C           0.9761    0.7453   -7.4816 C.ar    1  UNL1        0.1235
     11 F           0.2966    0.8110   -8.6349 F       1  UNL1       -0.2055
     12 C           2.0832   -0.0916   -7.3673 C.ar    1  UNL1       -0.0247
     13 C           2.7878   -0.1800   -6.1462 C.ar    1  UNL1       -0.0378
     14 C           3.1928   -0.2256    1.1444 C.ar    1  UNL1        0.0408
     15 C           2.7574   -1.1777    2.1110 C.ar    1  UNL1       -0.0459
     16 C           3.4173   -1.3331    3.3337 C.ar    1  UNL1       -0.0154
     17 C           4.4844   -0.5016    3.5766 C.ar    1  UNL1        0.1663
     18 C           4.8788    0.4571    2.6663 C.ar    1  UNL1        0.1669
     19 C           4.2555    0.6279    1.4403 C.ar    1  UNL1       -0.0040
     20 O           5.9244    1.1971    3.1298 O.3     1  UNL1       -0.4526
     21 C           6.1118    0.6224    4.4428 C.3     1  UNL1        0.2332
     22 O           5.2484   -0.5024    4.7010 O.3     1  UNL1       -0.4526
     23 H           3.9239    0.1184   -1.3997 H       1  UNL1        0.1568
     24 H           3.9243    0.1062   -3.7247 H       1  UNL1        0.1538
     25 H           0.9633    2.0902   -4.3958 H       1  UNL1        0.0637
     26 H          -0.2984    2.1612   -6.4927 H       1  UNL1        0.0647
     27 H           2.3656   -0.6904   -8.2298 H       1  UNL1        0.0647
     28 H           3.6060   -0.8915   -6.0822 H       1  UNL1        0.0637
     29 H           1.8678   -1.7799    1.9166 H       1  UNL1        0.0626
     30 H           3.0891   -2.0619    4.0680 H       1  UNL1        0.0655
     31 H           4.5461    1.4359    0.7825 H       1  UNL1        0.0663
     32 H           5.9101    1.3926    5.1966 H       1  UNL1        0.1166
     33 H           7.1554    0.3015    4.5412 H       1  UNL1        0.1166
@<TRIPOS>BOND
     1     1     2    2
     2     2     3   am
     3     3     4    1
     4     4     5    2
     5     4     6    1
     6     6     7    1
     7     7     8   ar
     8     8     9   ar
     9     9    10   ar
    10    10    11    1
    11    10    12   ar
    12    12    13   ar
    13     7    13   ar
    14     2    14    1
    15    14    15   ar
    16    15    16   ar
    17    16    17   ar
    18    17    18   ar
    19    18    19   ar
    20    14    19   ar
    21    18    20    1
    22    20    21    1
    23    21    22    1
    24    17    22    1
    25     3    23    1
    26     6    24    1
    27     8    25    1
    28     9    26    1
    29    12    27    1
    30    13    28    1
    31    15    29    1
    32    16    30    1
    33    19    31    1
    34    21    32    1
    35    21    33    1
