REMARK  7 active torsions:
REMARK  status: ('A' for Active; 'I' for Inactive)
REMARK    1  A    between atoms: C_8  and  S_9 
REMARK    2  A    between atoms: S_9  and  C_10 
REMARK    3  A    between atoms: C_10  and  C_11 
REMARK    4  A    between atoms: C_11  and  O_13 
REMARK    5  A    between atoms: O_13  and  C_14 
REMARK    6  A    between atoms: C_14  and  C_15 
REMARK       I    between atoms: C_15  and  N_17 
REMARK    7  A    between atoms: N_17  and  C_18 
ROOT
ATOM      1  C   UNL d   1     -10.014  -2.385   0.018  0.00  0.00     0.246 C 
ATOM      2  O   UNL d   1      -9.367  -3.434   0.018  0.00  0.00    -0.271 OA
ATOM      3  N   UNL d   1     -11.414  -2.350   0.000  0.00  0.00    -0.325 N 
ATOM      4  H   UNL d   1     -11.885  -1.490  -0.261  0.00  0.00     0.169 HD
ENDROOT
BRANCH   1   5
ATOM      5  C   UNL d   1      -9.297  -1.020  -0.008  0.00  0.00     0.281 C 
BRANCH   5   6
ATOM      6  O   UNL d   1      -7.863  -1.194  -0.009  0.00  0.00    -0.311 OA
BRANCH   6   7
ATOM      7  C   UNL d   1      -7.135  -0.033  -0.014  0.00  0.00     0.268 C 
ATOM      8  O   UNL d   1      -7.644   1.079  -0.021  0.00  0.00    -0.264 OA
BRANCH   7   9
ATOM      9  C   UNL d   1      -5.649  -0.350  -0.010  0.00  0.00     0.190 C 
BRANCH   9  10
ATOM     10  S   UNL d   1      -4.593   1.163  -0.007  0.00  0.00    -0.120 SA
BRANCH  10  11
ATOM     11  C   UNL d   1      -2.853   0.657  -0.004  0.00  0.00     0.007 A 
ATOM     12  C   UNL d   1      -1.927   1.730  -0.001  0.00  0.00     0.020 A 
ATOM     13  C   UNL d   1      -0.538   1.518   0.005  0.00  0.00     0.020 A 
ATOM     14  C   UNL d   1      -0.047   0.222  -0.004  0.00  0.00     0.011 A 
ATOM     15  C   UNL d   1      -0.930  -0.849  -0.012  0.00  0.00     0.027 A 
ATOM     16 BR   UNL d   1       1.813  -0.109  -0.001  0.00  0.00    -0.051 Br
ATOM     17  C   UNL d   1      -2.327  -0.649  -0.004  0.00  0.00    -0.044 A 
ATOM     18  C   UNL d   1      -3.158  -1.890   0.007  0.00  0.00     0.049 C 
ENDBRANCH  10  11
ENDBRANCH   9  10
ENDBRANCH   7   9
ENDBRANCH   6   7
ENDBRANCH   5   6
ENDBRANCH   1   5
BRANCH   3  19
ATOM     19  C   UNL d   1     -12.194  -3.544   0.013  0.00  0.00     0.037 A 
ATOM     20  C   UNL d   1     -13.332  -3.661  -0.827  0.00  0.00     0.032 A 
ATOM     21  C   UNL d   1     -14.090  -4.851  -0.875  0.00  0.00     0.034 A 
ATOM     22  C   UNL d   1     -13.710  -5.870  -0.033  0.00  0.00     0.063 A 
ATOM     23  N   UNL d   1     -14.262  -7.133   0.162  0.00  0.00    -0.307 N 
ATOM     24  C   UNL d   1     -12.618  -5.744   0.818  0.00  0.00     0.065 A 
ATOM     25  C   UNL d   1     -13.524  -7.797   1.153  0.00  0.00     0.325 A 
ATOM     26  H   UNL d   1     -15.059  -7.538  -0.302  0.00  0.00     0.170 HD
ATOM     27  O   UNL d   1     -13.731  -8.921   1.586  0.00  0.00    -0.247 OA
ATOM     28  N   UNL d   1     -12.507  -6.922   1.552  0.00  0.00    -0.306 N 
ATOM     29  H   UNL d   1     -11.819  -7.140   2.254  0.00  0.00     0.170 HD
ATOM     30  C   UNL d   1     -11.841  -4.609   0.857  0.00  0.00     0.061 A 
ENDBRANCH   3  19
TORSDOF 7
