REMARK  5 active torsions:
REMARK  status: ('A' for Active; 'I' for Inactive)
REMARK    1  A    between atoms: C_3  and  C_4 
REMARK    2  A    between atoms: C_4  and  C_6 
REMARK    3  A    between atoms: C_6  and  N_7 
REMARK    4  A    between atoms: N_10  and  C_11 
REMARK    5  A    between atoms: C_16  and  N_17 
ROOT
ATOM      1  N   UNL d   1       1.037  -0.038  -0.085  0.00  0.00    -0.096 N 
ATOM      2  C   UNL d   1       2.298  -0.038  -0.085  0.00  0.00     0.027 C 
ATOM      3  C   UNL d   1       3.818  -0.038  -0.085  0.00  0.00     0.122 C 
ATOM      4  C   UNL d   1       4.519   0.606  -1.104  0.00  0.00     0.130 A 
ATOM      5  N   UNL d   1       4.081   1.300  -2.284  0.00  0.00    -0.339 N 
ATOM      6  C   UNL d   1       5.218   1.743  -3.040  0.00  0.00     0.060 A 
ATOM      7  C   UNL d   1       5.395   2.412  -4.254  0.00  0.00     0.032 A 
ATOM      8  C   UNL d   1       6.718   2.690  -4.698  0.00  0.00     0.002 A 
ATOM      9  C   UNL d   1       7.831   2.305  -3.933  0.00  0.00     0.002 A 
ATOM     10  C   UNL d   1       7.645   1.637  -2.719  0.00  0.00     0.032 A 
ATOM     11  C   UNL d   1       6.353   1.366  -2.296  0.00  0.00     0.060 A 
ATOM     12  N   UNL d   1       5.920   0.683  -1.147  0.00  0.00    -0.339 N 
ATOM     13  H   UNL d   1       3.135   1.418  -2.613  0.00  0.00     0.167 HD
ATOM     14  H   UNL d   1       6.541   0.328  -0.440  0.00  0.00     0.167 HD
ENDROOT
BRANCH   3  15
ATOM     15  C   UNL d   1       4.558  -0.780   1.013  0.00  0.00     0.198 C 
ATOM     16  O   UNL d   1       5.792  -0.819   1.084  0.00  0.00    -0.290 OA
BRANCH  15  17
ATOM     17  C   UNL d   1       3.753  -1.545   2.073  0.00  0.00     0.319 C 
BRANCH  17  18
ATOM     18  N   UNL d   1       4.655  -2.272   3.124  0.00  0.00    -0.061 N 
ATOM     19  C   UNL d   1       4.610  -1.586   4.516  0.00  0.00     0.255 C 
ATOM     20  C   UNL d   1       5.377  -2.392   5.591  0.00  0.00     0.150 C 
ATOM     21  N   UNL d   1       4.885  -3.771   5.591  0.00  0.00    -0.376 N 
ATOM     22  C   UNL d   1       5.126  -4.484   4.333  0.00  0.00     0.150 C 
ATOM     23  C   UNL d   1       4.330  -3.784   3.213  0.00  0.00     0.255 C 
ATOM     24  H   UNL d   1       5.629  -2.186   2.776  0.00  0.00     0.280 HD
BRANCH  21  25
ATOM     25  C   UNL d   1       4.221  -4.332   6.669  0.00  0.00     0.063 A 
ATOM     26  C   UNL d   1       3.078  -3.672   7.180  0.00  0.00     0.032 A 
ATOM     27  C   UNL d   1       2.392  -4.117   8.321  0.00  0.00     0.002 A 
ATOM     28  C   UNL d   1       2.763  -5.303   8.934  0.00  0.00     0.003 A 
ATOM     29  C   UNL d   1       3.819  -6.039   8.405  0.00  0.00     0.038 A 
ATOM     30  C   UNL d   1       4.584  -5.534   7.325  0.00  0.00     0.129 A 
BRANCH  30  31
ATOM     31  N   UNL d   1       5.830  -6.271   7.021  0.00  0.00    -0.113 N 
ATOM     32  O   UNL d   1       6.013  -7.350   7.585  0.00  0.00    -0.532 OA
ATOM     33  O   UNL d   1       6.648  -5.773   6.222  0.00  0.00    -0.532 OA
ENDBRANCH  30  31
ENDBRANCH  21  25
ENDBRANCH  17  18
ENDBRANCH  15  17
ENDBRANCH   3  15
TORSDOF 5
