REMARK  9 active torsions:
REMARK  status: ('A' for Active; 'I' for Inactive)
REMARK    1  A    between atoms: C_2  and  C_3 
REMARK    2  A    between atoms: C_3  and  C_4 
REMARK    3  A    between atoms: C_4  and  N_5 
REMARK       I    between atoms: N_5  and  C_6 
REMARK       I    between atoms: C_6  and  N_8 
REMARK    4  A    between atoms: N_8  and  N_9 
REMARK       I    between atoms: N_9  and  C_10 
REMARK    5  A    between atoms: C_10  and  C_12 
REMARK    6  A    between atoms: C_12  and  O_14 
REMARK    7  A    between atoms: O_14  and  C_15 
REMARK    8  A    between atoms: C_18  and  O_19 
REMARK    9  A    between atoms: O_19  and  C_20 
ROOT
ATOM      1  N   UNL d   1       8.399   2.909  -3.741  0.00  0.00    -0.264 N 
ATOM      2  C   UNL d   1       8.813   3.720  -4.806  0.00  0.00     0.265 C 
ATOM      3  O   UNL d   1       7.984   4.287  -5.521  0.00  0.00    -0.269 OA
ATOM      4  H   UNL d   1       9.031   2.398  -3.126  0.00  0.00     0.190 HD
ENDROOT
BRANCH   2   5
ATOM      5  C   UNL d   1      10.377   3.852  -5.022  0.00  0.00     0.218 C 
ATOM      6  C   UNL d   1      10.920   2.432  -5.197  0.00  0.00     0.050 C 
BRANCH   5   7
ATOM      7  O   UNL d   1      10.667   4.757  -6.127  0.00  0.00    -0.337 OA
BRANCH   7   8
ATOM      8  C   UNL d   1      11.957   5.020  -6.522  0.00  0.00     0.070 A 
ATOM      9  C   UNL d   1      12.305   6.325  -6.894  0.00  0.00     0.039 A 
ATOM     10  C   UNL d   1      13.579   6.607  -7.447  0.00  0.00     0.039 A 
ATOM     11  C   UNL d   1      14.552   5.609  -7.551  0.00  0.00     0.068 A 
ATOM     12  C   UNL d   1      14.194   4.317  -7.208  0.00  0.00     0.039 A 
ATOM     13  C   UNL d   1      12.902   4.033  -6.768  0.00  0.00     0.039 A 
BRANCH  11  14
ATOM     14  O   UNL d   1      15.795   5.961  -8.011  0.00  0.00    -0.352 OA
BRANCH  14  15
ATOM     15  C   UNL d   1      16.782   4.918  -7.976  0.00  0.00     0.171 C 
ATOM     16  C   UNL d   1      18.123   5.477  -8.405  0.00  0.00     0.034 C 
ENDBRANCH  14  15
ENDBRANCH  11  14
ENDBRANCH   7   8
ENDBRANCH   5   7
ENDBRANCH   2   5
BRANCH   1  17
ATOM     17  N   UNL d   1       7.002   2.674  -3.506  0.00  0.00    -0.249 N 
ATOM     18  C   UNL d   1       6.617   1.846  -2.462  0.00  0.00     0.334 C 
ATOM     19  N   UNL d   1       5.252   1.708  -2.295  0.00  0.00    -0.342 N 
ATOM     20  O   UNL d   1       7.442   1.280  -1.740  0.00  0.00    -0.246 OA
ATOM     21  H   UNL d   1       4.621   2.198  -2.912  0.00  0.00     0.164 HD
ATOM     22  H   UNL d   1       6.356   3.154  -4.125  0.00  0.00     0.192 HD
BRANCH  19  23
ATOM     23  C   UNL d   1       4.689   0.874  -1.226  0.00  0.00     0.124 C 
BRANCH  23  24
ATOM     24  C   UNL d   1       3.152   0.847  -1.190  0.00  0.00     0.019 C 
BRANCH  24  25
ATOM     25  C   UNL d   1       2.610  -0.041  -0.057  0.00  0.00    -0.003 C 
ATOM     26  C   UNL d   1       1.085  -0.059  -0.034  0.00  0.00     0.005 C 
ENDBRANCH  24  25
ENDBRANCH  23  24
ENDBRANCH  19  23
ENDBRANCH   1  17
TORSDOF 9
