@<TRIPOS>MOLECULE
*****
 54 55 0 0 0
SMALL
GASTEIGER

@<TRIPOS>ATOM
      1 C           0.9937    0.0219    0.0630 C.2     1  UNL1       -0.1023
      2 C           2.3293    0.0343    0.0776 C.2     1  UNL1       -0.0867
      3 C           3.1347    1.1024   -0.5990 C.3     1  UNL1       -0.0063
      4 C           4.6254    0.9193   -0.4714 C.ar    1  UNL1       -0.0016
      5 C           5.2358   -0.3655   -0.4618 C.ar    1  UNL1       -0.0462
      6 C           6.6157   -0.4972   -0.2787 C.ar    1  UNL1       -0.0050
      7 C           7.2084   -1.8788   -0.2216 C.2     1  UNL1        0.0528
      8 N           8.4414   -2.2951   -0.0774 N.2     1  UNL1       -0.1877
      9 N           9.4404   -1.3994    0.0451 N.am    1  UNL1       -0.2070
     10 C          10.7710   -1.6608    0.1868 C.2     1  UNL1        0.2323
     11 O          11.2806   -2.7798    0.2293 O.2     1  UNL1       -0.2741
     12 C          11.5692   -0.3468    0.2932 C.3     1  UNL1        0.0282
     13 C          13.0215   -0.7190    0.4438 C.3     1  UNL1       -0.0144
     14 C          14.0097    0.4306    0.5817 C.3     1  UNL1        0.0806
     15 O          13.6486    1.2154    1.7163 O.3     1  UNL1       -0.3872
     16 C          15.4289   -0.0853    0.7424 C.ar    1  UNL1       -0.0189
     17 C          16.4912    0.8178    0.8533 C.ar    1  UNL1       -0.0527
     18 C          17.8025    0.3543    1.0011 C.ar    1  UNL1       -0.0196
     19 C          18.0697   -1.0159    1.0411 C.ar    1  UNL1        0.1205
     20 O          19.2935   -1.5976    1.1999 O.3     1  UNL1       -0.4922
     21 C          20.3908   -0.7087    1.3636 C.3     1  UNL1        0.0868
     22 C          21.6389   -1.5476    1.5358 C.3     1  UNL1       -0.0307
     23 C          17.0256   -1.9202    0.9133 C.ar    1  UNL1       -0.0196
     24 C          15.7244   -1.4608    0.7662 C.ar    1  UNL1       -0.0527
     25 C           7.3369    0.6916   -0.1442 C.ar    1  UNL1       -0.0496
     26 C           6.7742    1.9504   -0.2248 C.ar    1  UNL1       -0.0193
     27 C           5.4232    2.0646   -0.3943 C.ar    1  UNL1        0.1203
     28 O           4.8826    3.3116   -0.4728 O.3     1  UNL1       -0.5065
     29 H           0.4533   -0.7750    0.5600 H       1  UNL1        0.0532
     30 H           0.4335    0.8070   -0.4329 H       1  UNL1        0.0532
     31 H           2.8395   -0.7550    0.6220 H       1  UNL1        0.0570
     32 H           2.8541    2.0577   -0.1350 H       1  UNL1        0.0357
     33 H           2.8952    1.1629   -1.6668 H       1  UNL1        0.0357
     34 H           4.6150   -1.2550   -0.5753 H       1  UNL1        0.0628
     35 H           6.4704   -2.7016   -0.3157 H       1  UNL1        0.0851
     36 H           9.2586   -0.4404   -0.0592 H       1  UNL1        0.1772
     37 H          11.2269    0.2378    1.1576 H       1  UNL1        0.0360
     38 H          11.4290    0.2703   -0.6040 H       1  UNL1        0.0360
     39 H          13.2975   -1.3278   -0.4266 H       1  UNL1        0.0298
     40 H          13.0836   -1.3489    1.3424 H       1  UNL1        0.0298
     41 H          13.9601    1.0753   -0.3038 H       1  UNL1        0.0643
     42 H          13.8189    0.6652    2.5018 H       1  UNL1        0.2102
     43 H          16.3039    1.8898    0.8278 H       1  UNL1        0.0622
     44 H          18.5937    1.0910    1.0833 H       1  UNL1        0.0654
     45 H          20.2470   -0.0873    2.2552 H       1  UNL1        0.0694
     46 H          20.4999   -0.0789    0.4737 H       1  UNL1        0.0694
     47 H          21.5456   -2.1990    2.4110 H       1  UNL1        0.0262
     48 H          22.5167   -0.9087    1.6572 H       1  UNL1        0.0262
     49 H          21.7854   -2.1975    0.6669 H       1  UNL1        0.0262
     50 H          17.2132   -2.9907    0.9282 H       1  UNL1        0.0654
     51 H          14.9543   -2.2223    0.6698 H       1  UNL1        0.0622
     52 H           8.3775    0.8079    0.0469 H       1  UNL1        0.0625
     53 H           7.4368    2.8033   -0.1294 H       1  UNL1        0.0654
     54 H           5.6000    3.9647   -0.3968 H       1  UNL1        0.2921
@<TRIPOS>BOND
     1     1     2    2
     2     2     3    1
     3     3     4    1
     4     4     5   ar
     5     5     6   ar
     6     6     7    1
     7     7     8    2
     8     8     9    1
     9     9    10   am
    10    10    11    2
    11    10    12    1
    12    12    13    1
    13    13    14    1
    14    14    15    1
    15    14    16    1
    16    16    17   ar
    17    17    18   ar
    18    18    19   ar
    19    19    20    1
    20    20    21    1
    21    21    22    1
    22    19    23   ar
    23    23    24   ar
    24    16    24   ar
    25     6    25   ar
    26    25    26   ar
    27    26    27   ar
    28     4    27   ar
    29    27    28    1
    30     1    29    1
    31     1    30    1
    32     2    31    1
    33     3    32    1
    34     3    33    1
    35     5    34    1
    36     7    35    1
    37     9    36    1
    38    12    37    1
    39    12    38    1
    40    13    39    1
    41    13    40    1
    42    14    41    1
    43    15    42    1
    44    17    43    1
    45    18    44    1
    46    21    45    1
    47    21    46    1
    48    22    47    1
    49    22    48    1
    50    22    49    1
    51    23    50    1
    52    24    51    1
    53    25    52    1
    54    26    53    1
    55    28    54    1
