REMARK  7 active torsions:
REMARK  status: ('A' for Active; 'I' for Inactive)
REMARK    1  A    between atoms: S_2  and  C_3 
REMARK    2  A    between atoms: C_6  and  C_7 
REMARK    3  A    between atoms: C_7  and  N_8 
REMARK       I    between atoms: N_8  and  C_9 
REMARK    4  A    between atoms: C_9  and  C_11 
REMARK       I    between atoms: C_11  and  N_13 
REMARK    5  A    between atoms: N_13  and  C_14 
REMARK    6  A    between atoms: C_17  and  C_18 
REMARK       I    between atoms: C_18  and  N_20 
REMARK    7  A    between atoms: N_20  and  C_21 
ROOT
ATOM      1  C   UNL d   1       2.818   9.020  -0.770  0.00  0.00     0.313 C 
ATOM      2  O   UNL d   1       1.741   8.431  -0.794  0.00  0.00    -0.262 OA
ATOM      3  N   UNL d   1       3.028  10.378  -1.000  0.00  0.00    -0.319 N 
ATOM      4  H   UNL d   1       3.990  10.689  -1.104  0.00  0.00     0.169 HD
ENDROOT
BRANCH   3   5
ATOM      5  C   UNL d   1       1.978  11.315  -1.169  0.00  0.00     0.035 A 
ATOM      6  C   UNL d   1       2.099  12.411  -2.019  0.00  0.00     0.030 A 
ATOM      7  C   UNL d   1       1.041  13.346  -2.128  0.00  0.00     0.020 A 
ATOM      8  C   UNL d   1      -0.166  13.216  -1.395  0.00  0.00     0.038 A 
ATOM      9  C   UNL d   1      -0.237  12.161  -0.469  0.00  0.00    -0.044 A 
ATOM     10  C   UNL d   1      -1.317  11.944   0.548  0.00  0.00     0.049 C 
ATOM     11  C   UNL d   1       0.810  11.206  -0.415  0.00  0.00     0.037 A 
BRANCH   8  12
ATOM     12  C   UNL d   1      -1.258  14.239  -1.669  0.00  0.00     0.252 C 
ATOM     13  O   UNL d   1      -1.022  15.188  -2.414  0.00  0.00    -0.268 OA
ATOM     14  N   UNL d   1      -2.513  14.042  -1.113  0.00  0.00    -0.353 N 
ATOM     15  H   UNL d   1      -2.766  13.109  -0.841  0.00  0.00     0.163 HD
BRANCH  14  16
ATOM     16  C   UNL d   1      -3.662  14.920  -1.309  0.00  0.00     0.076 C 
ATOM     17  C   UNL d   1      -4.125  14.830  -2.756  0.00  0.00     0.032 C 
ATOM     18  C   UNL d   1      -4.809  14.492  -0.381  0.00  0.00     0.032 C 
ENDBRANCH  14  16
ENDBRANCH   8  12
ENDBRANCH   3   5
BRANCH   1  19
ATOM     19  C   UNL d   1       4.101   8.171  -0.515  0.00  0.00     0.309 C 
ATOM     20  N   UNL d   1       3.834   6.820  -0.372  0.00  0.00    -0.349 N 
ATOM     21  H   UNL d   1       2.862   6.568  -0.497  0.00  0.00     0.163 HD
ATOM     22  O   UNL d   1       5.196   8.695  -0.457  0.00  0.00    -0.262 OA
BRANCH  20  23
ATOM     23  C   UNL d   1       4.848   5.806  -0.123  0.00  0.00     0.161 C 
BRANCH  23  24
ATOM     24  C   UNL d   1       4.340   4.373  -0.045  0.00  0.00    -0.040 A 
ATOM     25  C   UNL d   1       5.251   3.313   0.121  0.00  0.00     0.010 A 
ATOM     26  C   UNL d   1       4.824   1.971   0.060  0.00  0.00     0.019 A 
ATOM     27  C   UNL d   1       3.467   1.652  -0.077  0.00  0.00    -0.000 A 
ATOM     28  C   UNL d   1       2.564   2.701  -0.206  0.00  0.00     0.019 A 
ATOM     29  C   UNL d   1       2.990   4.034  -0.184  0.00  0.00     0.010 A 
BRANCH  27  30
ATOM     30  S   UNL d   1       2.972  -0.068  -0.041  0.00  0.00    -0.134 SA
ATOM     31  C   UNL d   1       1.152   0.015   0.025  0.00  0.00     0.095 C 
ENDBRANCH  27  30
ENDBRANCH  23  24
ENDBRANCH  20  23
ENDBRANCH   1  19
TORSDOF 7
