@<TRIPOS>MOLECULE
*****
 50 52 0 0 0
SMALL
GASTEIGER

@<TRIPOS>ATOM
      1 O           1.0448    0.1272   -0.0792 O.2     1  UNL1       -0.2705
      2 C           2.2707   -0.0077   -0.0297 C.2     1  UNL1        0.2668
      3 C           2.9373   -0.8371    1.0831 C.3     1  UNL1        0.1698
      4 O           2.0228   -1.2840    2.1110 O.3     1  UNL1       -0.4516
      5 C           2.5809   -2.0882    3.0580 C.2     1  UNL1        0.3430
      6 O           3.7406   -2.4955    3.0217 O.2     1  UNL1       -0.2448
      7 C           1.6258   -2.4419    4.1434 C.ar    1  UNL1        0.0989
      8 C           0.4788   -3.1363    3.7527 C.ar    1  UNL1       -0.0430
      9 C          -0.3457   -3.7065    4.7147 C.ar    1  UNL1       -0.0427
     10 C          -0.0088   -3.5414    6.0458 C.ar    1  UNL1        0.0297
     11 N           1.0684   -2.8342    6.4655 N.ar    1  UNL1       -0.2394
     12 C           1.8880   -2.2867    5.5233 C.ar    1  UNL1        0.1370
     13 N           2.9871   -1.5868    6.0399 N.pl3   1  UNL1       -0.2988
     14 C           3.8656   -0.7511    5.3449 C.ar    1  UNL1        0.0329
     15 C           5.2259   -1.0571    5.2668 C.ar    1  UNL1       -0.0405
     16 C           6.0474   -0.3705    4.3676 C.ar    1  UNL1       -0.0595
     17 C           5.5099    0.6120    3.5312 C.ar    1  UNL1       -0.0500
     18 C           4.1644    0.9871    3.6528 C.ar    1  UNL1        0.0566
     19 C           3.5569    2.0522    2.7711 C.3     1  UNL1        0.4175
     20 F           4.0209    3.2914    3.0640 F       1  UNL1       -0.1659
     21 F           3.8342    1.8753    1.4488 F       1  UNL1       -0.1659
     22 F           2.1998    2.1100    2.8539 F       1  UNL1       -0.1659
     23 C           3.3586    0.3008    4.5706 C.ar    1  UNL1       -0.0289
     24 N           3.0561    0.5998   -0.9963 N.am    1  UNL1       -0.2313
     25 N           4.4668    0.6449   -1.0337 N.am    1  UNL1       -0.2302
     26 C           5.0989    1.3554   -2.0542 C.2     1  UNL1        0.2629
     27 O           4.4945    1.9642   -2.9335 O.2     1  UNL1       -0.2686
     28 C           6.5919    1.3499   -2.0639 C.ar    1  UNL1        0.0733
     29 C           7.3114    2.4848   -2.4759 C.ar    1  UNL1       -0.0468
     30 C           8.7046    2.4210   -2.6410 C.ar    1  UNL1       -0.0609
     31 C           9.3941    1.2456   -2.3428 C.ar    1  UNL1       -0.0590
     32 C           8.6863    0.1221   -1.9185 C.ar    1  UNL1       -0.0257
     33 C           7.2967    0.1792   -1.7866 C.ar    1  UNL1        0.1355
     34 F           6.6496   -0.9290   -1.3994 F       1  UNL1       -0.2047
     35 H           3.6836   -0.2133    1.5552 H       1  UNL1        0.0796
     36 H           3.4767   -1.6771    0.6400 H       1  UNL1        0.0796
     37 H           0.2621   -3.2709    2.6976 H       1  UNL1        0.0627
     38 H          -1.2125   -4.2907    4.4256 H       1  UNL1        0.0633
     39 H          -0.6118   -3.9979    6.8290 H       1  UNL1        0.0830
     40 H           3.0572   -1.6143    7.0505 H       1  UNL1        0.1536
     41 H           5.6213   -1.9266    5.7891 H       1  UNL1        0.0636
     42 H           7.0968   -0.6421    4.2823 H       1  UNL1        0.0618
     43 H           6.1356    1.0532    2.7576 H       1  UNL1        0.0623
     44 H           2.2845    0.4922    4.5869 H       1  UNL1        0.0642
     45 H           2.5730    1.1460   -1.7124 H       1  UNL1        0.1729
     46 H           4.9993    0.2346   -0.2765 H       1  UNL1        0.1731
     47 H           6.7975    3.4229   -2.6786 H       1  UNL1        0.0626
     48 H           9.2535    3.2810   -3.0236 H       1  UNL1        0.0618
     49 H          10.4773    1.2038   -2.4469 H       1  UNL1        0.0618
     50 H           9.2081   -0.8084   -1.7138 H       1  UNL1        0.0646
@<TRIPOS>BOND
     1     1     2    2
     2     2     3    1
     3     3     4    1
     4     4     5    1
     5     5     6    2
     6     5     7    1
     7     7     8   ar
     8     8     9   ar
     9     9    10   ar
    10    10    11   ar
    11    11    12   ar
    12     7    12   ar
    13    12    13    1
    14    13    14    1
    15    14    15   ar
    16    15    16   ar
    17    16    17   ar
    18    17    18   ar
    19    18    19    1
    20    19    20    1
    21    19    21    1
    22    19    22    1
    23    18    23   ar
    24    14    23   ar
    25     2    24   am
    26    24    25    1
    27    25    26   am
    28    26    27    2
    29    26    28    1
    30    28    29   ar
    31    29    30   ar
    32    30    31   ar
    33    31    32   ar
    34    32    33   ar
    35    28    33   ar
    36    33    34    1
    37     3    35    1
    38     3    36    1
    39     8    37    1
    40     9    38    1
    41    10    39    1
    42    13    40    1
    43    15    41    1
    44    16    42    1
    45    17    43    1
    46    23    44    1
    47    24    45    1
    48    25    46    1
    49    29    47    1
    50    30    48    1
    51    31    49    1
    52    32    50    1
