@<TRIPOS>MOLECULE
*****
 41 41 0 0 0
SMALL
GASTEIGER

@<TRIPOS>ATOM
      1 C           0.9912    0.0657   -0.0648 C.3     1  UNL1       -0.0652
      2 C           2.5155    0.0638   -0.0366 C.3     1  UNL1       -0.0545
      3 C           3.0573   -0.0345    1.3999 C.3     1  UNL1       -0.0376
      4 C           4.5934   -0.0377    1.4452 C.3     1  UNL1        0.0131
      5 N           5.1577   -0.1306    2.7975 N.am    1  UNL1       -0.2982
      6 C           6.5250   -0.1438    3.0064 C.2     1  UNL1        0.3160
      7 O           7.3416   -0.0771    2.0868 O.2     1  UNL1       -0.2513
      8 N           6.9201   -0.2367    4.3331 N.am    1  UNL1       -0.2180
      9 N           8.3229   -0.2384    4.6477 N.am    1  UNL1       -0.2292
     10 C           8.7553   -0.4009    5.9607 C.2     1  UNL1        0.2602
     11 O           7.9741   -0.5333    6.9068 O.2     1  UNL1       -0.2687
     12 C          10.2404   -0.3876    6.2245 C.ar    1  UNL1        0.0384
     13 C          10.8041   -1.2098    7.2166 C.ar    1  UNL1       -0.0461
     14 C          12.1670   -1.0914    7.5694 C.ar    1  UNL1       -0.0192
     15 C          13.0046   -0.1925    6.9017 C.ar    1  UNL1        0.1205
     16 O          14.3299   -0.2054    7.2668 O.3     1  UNL1       -0.4922
     17 C          15.2159    0.6198    6.4983 C.3     1  UNL1        0.0868
     18 C          16.6564    0.3980    6.9365 C.3     1  UNL1       -0.0307
     19 C          12.4407    0.6331    5.9274 C.ar    1  UNL1       -0.0192
     20 C          11.0749    0.5392    5.5915 C.ar    1  UNL1       -0.0461
     21 H           0.6231    0.1361   -1.0944 H       1  UNL1        0.0230
     22 H           0.5899    0.9169    0.4945 H       1  UNL1        0.0230
     23 H           0.5898   -0.8537    0.3735 H       1  UNL1        0.0230
     24 H           2.8789    0.9806   -0.5162 H       1  UNL1        0.0263
     25 H           2.8789   -0.7792   -0.6366 H       1  UNL1        0.0263
     26 H           2.6706   -0.9489    1.8658 H       1  UNL1        0.0280
     27 H           2.6707    0.8080    1.9860 H       1  UNL1        0.0280
     28 H           4.9776    0.8791    0.9826 H       1  UNL1        0.0462
     29 H           4.9775   -0.8829    0.8620 H       1  UNL1        0.0462
     30 H           4.5289   -0.1852    3.5851 H       1  UNL1        0.1503
     31 H           6.2814   -0.2919    5.1208 H       1  UNL1        0.1744
     32 H           8.9500   -0.2211    3.8450 H       1  UNL1        0.1732
     33 H          10.1917   -1.9499    7.7295 H       1  UNL1        0.0626
     34 H          12.5708   -1.6985    8.3796 H       1  UNL1        0.0654
     35 H          14.9652    1.6742    6.6593 H       1  UNL1        0.0694
     36 H          15.1412    0.3753    5.4317 H       1  UNL1        0.0694
     37 H          16.7763    0.6005    8.0051 H       1  UNL1        0.0262
     38 H          17.3335    1.0553    6.3793 H       1  UNL1        0.0262
     39 H          16.9646   -0.6384    6.7649 H       1  UNL1        0.0262
     40 H          13.0353    1.3868    5.4213 H       1  UNL1        0.0654
     41 H          10.6744    1.2335    4.8593 H       1  UNL1        0.0626
@<TRIPOS>BOND
     1     1     2    1
     2     2     3    1
     3     3     4    1
     4     4     5    1
     5     5     6   am
     6     6     7    2
     7     6     8   am
     8     8     9    1
     9     9    10   am
    10    10    11    2
    11    10    12    1
    12    12    13   ar
    13    13    14   ar
    14    14    15   ar
    15    15    16    1
    16    16    17    1
    17    17    18    1
    18    15    19   ar
    19    19    20   ar
    20    12    20   ar
    21     1    21    1
    22     1    22    1
    23     1    23    1
    24     2    24    1
    25     2    25    1
    26     3    26    1
    27     3    27    1
    28     4    28    1
    29     4    29    1
    30     5    30    1
    31     8    31    1
    32     9    32    1
    33    13    33    1
    34    14    34    1
    35    17    35    1
    36    17    36    1
    37    18    37    1
    38    18    38    1
    39    18    39    1
    40    19    40    1
    41    20    41    1
