@<TRIPOS>MOLECULE
*****
 63 66 0 0 0
SMALL
GASTEIGER

@<TRIPOS>ATOM
      1 C           1.1176   -0.1230   -0.6345 C.3     1  UNL1        0.0790
      2 O           2.4482    0.0115   -0.1210 O.3     1  UNL1       -0.4915
      3 C           2.9356    1.1891    0.4093 C.ar    1  UNL1        0.1615
      4 C           4.1334    1.6265   -0.2021 C.ar    1  UNL1       -0.0155
      5 C           4.9464    2.6278    0.3713 C.ar    1  UNL1       -0.0444
      6 C           4.5450    3.2809    1.5371 C.ar    1  UNL1        0.0598
      7 C           5.3457    4.4364    2.0788 C.2     1  UNL1        0.3407
      8 O           6.3796    4.7570    1.5226 O.2     1  UNL1       -0.2483
      9 N           4.7801    5.1008    3.1549 N.am    1  UNL1        0.0006
     10 C           5.2909    6.2284    3.5592 C.2     1  UNL1        0.3842
     11 N           4.6198    6.9506    4.5170 N.pl3   1  UNL1       -0.2767
     12 C           3.6100    6.3877    5.3852 C.3     1  UNL1        0.0684
     13 C           3.3605    7.2495    6.6208 C.3     1  UNL1        0.0059
     14 C           2.1397    6.9000    7.4176 C.2     1  UNL1        0.0106
     15 C           1.8002    7.5880    8.5082 C.ar    1  UNL1        0.0510
     16 C           2.4203    8.6901    9.1519 C.ar    1  UNL1       -0.0482
     17 C           1.9253    9.0959   10.3260 C.ar    1  UNL1       -0.0608
     18 C           0.7062    8.5180   10.8709 C.ar    1  UNL1       -0.0555
     19 C           0.0327    7.5012   10.2918 C.ar    1  UNL1        0.0098
     20 C           0.5838    6.9563    9.0325 C.ar    1  UNL1        0.2086
     21 N           0.1901    5.9978    8.2824 N.2     1  UNL1       -0.2369
     22 C           1.1538    5.7941    7.1593 C.3     1  UNL1        0.1661
     23 N           6.4098    6.8570    3.0644 N.pl3   1  UNL1       -0.2448
     24 C           7.2927    7.7856    3.6690 C.ar    1  UNL1        0.1027
     25 C           7.9312    8.7201    2.8236 C.ar    1  UNL1       -0.0229
     26 C           8.8231    9.6724    3.3292 C.ar    1  UNL1       -0.0585
     27 C           9.0366    9.7578    4.6979 C.ar    1  UNL1       -0.0613
     28 C           8.4265    8.8411    5.5472 C.ar    1  UNL1       -0.0556
     29 C           7.5912    7.8258    5.0485 C.ar    1  UNL1       -0.0120
     30 C           7.1187    6.7970    6.0361 C.3     1  UNL1       -0.0365
     31 C           3.3674    2.8590    2.1510 C.ar    1  UNL1       -0.0027
     32 C           2.5720    1.8161    1.6238 C.ar    1  UNL1        0.1623
     33 O           1.5463    1.5599    2.5060 O.3     1  UNL1       -0.4914
     34 C           0.5899    0.6562    2.0333 C.3     1  UNL1        0.0790
     35 H           1.0789   -0.9878   -1.3029 H       1  UNL1        0.0660
     36 H           0.7463    0.7771   -1.1287 H       1  UNL1        0.0660
     37 H           0.3956   -0.4611    0.1106 H       1  UNL1        0.0660
     38 H           4.4711    1.1684   -1.1323 H       1  UNL1        0.0655
     39 H           5.8989    2.8840   -0.0922 H       1  UNL1        0.0627
     40 H           5.0431    7.8376    4.7690 H       1  UNL1        0.2577
     41 H           3.9059    5.3881    5.7269 H       1  UNL1        0.0658
     42 H           2.6857    6.3086    4.8120 H       1  UNL1        0.0658
     43 H           3.2817    8.3038    6.3231 H       1  UNL1        0.0343
     44 H           4.2242    7.1962    7.3016 H       1  UNL1        0.0343
     45 H           3.2935    9.1526    8.7050 H       1  UNL1        0.0626
     46 H           2.4370    9.8770   10.8824 H       1  UNL1        0.0618
     47 H           0.3431    8.9853   11.7850 H       1  UNL1        0.0620
     48 H          -0.8714    7.1079   10.7414 H       1  UNL1        0.0683
     49 H          -0.6707    5.4805    8.4582 H       1  UNL1        0.4459
     50 H           0.6261    5.9099    6.2093 H       1  UNL1        0.1077
     51 H           1.5920    4.7947    7.2521 H       1  UNL1        0.1077
     52 H           6.8807    6.3156    2.3314 H       1  UNL1        0.2646
     53 H           7.7262    8.7268    1.7531 H       1  UNL1        0.0652
     54 H           9.3495   10.3487    2.6591 H       1  UNL1        0.0619
     55 H           9.6925   10.5217    5.1075 H       1  UNL1        0.0618
     56 H           8.6372    8.8955    6.6129 H       1  UNL1        0.0621
     57 H           7.5713    6.9383    7.0199 H       1  UNL1        0.0279
     58 H           7.3356    5.7862    5.6822 H       1  UNL1        0.0279
     59 H           6.0627    6.8911    6.2430 H       1  UNL1        0.0279
     60 H           3.0544    3.3183    3.0860 H       1  UNL1        0.0663
     61 H          -0.2337    0.4818    2.7249 H       1  UNL1        0.0660
     62 H           1.0815   -0.3135    1.9031 H       1  UNL1        0.0660
     63 H           0.1282    1.1163    1.1537 H       1  UNL1        0.0660
@<TRIPOS>UNITY_ATOM_ATTR
21 1
charge 1
@<TRIPOS>BOND
     1     1     2    1
     2     2     3    1
     3     3     4   ar
     4     4     5   ar
     5     5     6   ar
     6     6     7    1
     7     7     8    2
     8     7     9    1
     9     9    10    2
    10    10    11    1
    11    11    12    1
    12    12    13    1
    13    13    14    1
    14    14    15    2
    15    15    16   ar
    16    16    17   ar
    17    17    18   ar
    18    18    19   ar
    19    19    20   ar
    20    15    20   ar
    21    20    21    2
    22    21    22    1
    23    14    22    1
    24    10    23    1
    25    23    24    1
    26    24    25   ar
    27    25    26   ar
    28    26    27   ar
    29    27    28   ar
    30    28    29   ar
    31    24    29   ar
    32    29    30    1
    33     6    31   ar
    34    31    32   ar
    35     3    32   ar
    36    32    33    1
    37    33    34    1
    38     1    35    1
    39     1    36    1
    40     1    37    1
    41     4    38    1
    42     5    39    1
    43    11    40    1
    44    12    41    1
    45    12    42    1
    46    13    43    1
    47    13    44    1
    48    16    45    1
    49    17    46    1
    50    18    47    1
    51    19    48    1
    52    21    49    1
    53    22    50    1
    54    22    51    1
    55    23    52    1
    56    25    53    1
    57    26    54    1
    58    27    55    1
    59    28    56    1
    60    30    57    1
    61    30    58    1
    62    30    59    1
    63    31    60    1
    64    34    61    1
    65    34    62    1
    66    34    63    1
