@<TRIPOS>MOLECULE
*****
 48 50 0 0 0
SMALL
GASTEIGER

@<TRIPOS>ATOM
      1 C           0.3794   -2.3495   -0.0062 C.3     1  UNL1       -0.0387
      2 C           1.0612   -1.0069    0.0018 C.ar    1  UNL1       -0.0365
      3 C           2.4661   -0.9375   -0.0012 C.ar    1  UNL1       -0.0571
      4 C           3.1544    0.2930   -0.0043 C.ar    1  UNL1       -0.0493
      5 C           2.4470    1.4924   -0.0085 C.ar    1  UNL1        0.0381
      6 C           3.0716    2.8662   -0.0330 C.2     1  UNL1        0.2496
      7 O           2.2587    3.7893   -0.0382 O.2     1  UNL1       -0.2698
      8 N           4.4796    3.0657   -0.0540 N.am    1  UNL1       -0.2627
      9 C           5.1485    4.3177   -0.0810 C.2     1  UNL1        0.1533
     10 S           4.3884    5.8270   -0.0943 S.2     1  UNL1       -0.0170
     11 N           6.5575    4.2592   -0.0997 N.am    1  UNL1       -0.2453
     12 N           7.3101    5.5088   -0.1069 N.am    1  UNL1       -0.2311
     13 C           8.6978    5.5426   -0.1986 C.2     1  UNL1        0.2601
     14 O           9.3855    4.5272   -0.2560 O.2     1  UNL1       -0.2687
     15 C           9.3582    6.9049   -0.2005 C.ar    1  UNL1        0.0383
     16 C          10.5096    7.1653   -0.9671 C.ar    1  UNL1       -0.0478
     17 C          11.2076    8.4034   -0.8599 C.ar    1  UNL1       -0.0398
     18 C          10.7204    9.4351   -0.0385 C.ar    1  UNL1        0.0334
     19 N          11.3335   10.7298   -0.0205 N.am    1  UNL1       -0.2853
     20 C          10.8741   11.8533    0.6811 C.2     1  UNL1        0.2203
     21 O           9.8459   11.9382    1.3476 O.2     1  UNL1       -0.2752
     22 C          11.8254   13.0057    0.7033 C.3     1  UNL1        0.0359
     23 C          11.9340   13.9439   -0.4836 C.3     1  UNL1       -0.0412
     24 C          11.5058   14.4850    0.8434 C.3     1  UNL1       -0.0412
     25 C           9.6070    9.1356    0.7496 C.ar    1  UNL1       -0.0398
     26 C           8.9269    7.9053    0.6680 C.ar    1  UNL1       -0.0478
     27 C           1.0298    1.4197    0.0022 C.ar    1  UNL1       -0.0354
     28 C           0.3470    0.1939    0.0059 C.ar    1  UNL1        0.0215
     29 BR         -1.5558    0.2246    0.0063 Br      1  UNL1       -0.0500
     30 H           1.1076   -3.1674   -0.0040 H       1  UNL1        0.0278
     31 H          -0.2352   -2.4651   -0.9057 H       1  UNL1        0.0278
     32 H          -0.2487   -2.4724    0.8828 H       1  UNL1        0.0278
     33 H           3.0443   -1.8607   -0.0053 H       1  UNL1        0.0621
     34 H           4.2365    0.2682   -0.0060 H       1  UNL1        0.0625
     35 H           5.0620    2.2436   -0.0500 H       1  UNL1        0.1569
     36 H           7.1313    3.4182   -0.0891 H       1  UNL1        0.1718
     37 H           6.7387    6.3537   -0.1419 H       1  UNL1        0.1731
     38 H          10.8698    6.4080   -1.6637 H       1  UNL1        0.0626
     39 H          12.1318    8.5210   -1.4261 H       1  UNL1        0.0636
     40 H          12.1651   10.8537   -0.5884 H       1  UNL1        0.1548
     41 H          12.6632   12.7721    1.3512 H       1  UNL1        0.0394
     42 H          11.1633   13.9989   -1.2477 H       1  UNL1        0.0273
     43 H          12.9277   14.1565   -0.8575 H       1  UNL1        0.0273
     44 H          10.4965   14.8725    0.9235 H       1  UNL1        0.0273
     45 H          12.2242   15.0973    1.3878 H       1  UNL1        0.0273
     46 H           9.2392    9.8450    1.4821 H       1  UNL1        0.0636
     47 H           8.0787    7.7549    1.3287 H       1  UNL1        0.0626
     48 H           0.4390    2.3375    0.0035 H       1  UNL1        0.0636
@<TRIPOS>BOND
     1     1     2    1
     2     2     3   ar
     3     3     4   ar
     4     4     5   ar
     5     5     6    1
     6     6     7    2
     7     6     8   am
     8     8     9    1
     9     9    10    2
    10     9    11    1
    11    11    12    1
    12    12    13   am
    13    13    14    2
    14    13    15    1
    15    15    16   ar
    16    16    17   ar
    17    17    18   ar
    18    18    19    1
    19    19    20   am
    20    20    21    2
    21    20    22    1
    22    22    23    1
    23    23    24    1
    24    22    24    1
    25    18    25   ar
    26    25    26   ar
    27    15    26   ar
    28     5    27   ar
    29    27    28   ar
    30     2    28   ar
    31    28    29    1
    32     1    30    1
    33     1    31    1
    34     1    32    1
    35     3    33    1
    36     4    34    1
    37     8    35    1
    38    11    36    1
    39    12    37    1
    40    16    38    1
    41    17    39    1
    42    19    40    1
    43    22    41    1
    44    23    42    1
    45    23    43    1
    46    24    44    1
    47    24    45    1
    48    25    46    1
    49    26    47    1
    50    27    48    1
