REMARK  8 active torsions:
REMARK  status: ('A' for Active; 'I' for Inactive)
REMARK    1  A    between atoms: N_1  and  C_2 
REMARK    2  A    between atoms: C_6  and  N_7 
REMARK    3  A    between atoms: C_10  and  C_11 
REMARK    4  A    between atoms: C_11  and  N_12 
REMARK    5  A    between atoms: C_18  and  C_19 
REMARK       I    between atoms: C_19  and  N_21 
REMARK    6  A    between atoms: N_21  and  N_22 
REMARK    7  A    between atoms: C_23  and  C_24 
REMARK    8  A    between atoms: C_29  and  N_30 
ROOT
ATOM      1  N   UNL d   1       0.157  -2.581  -0.458  0.00  0.00    -0.208 N 
ATOM      2  N   UNL d   1      -0.153  -3.722  -1.124  0.00  0.00     0.012 NA
ATOM      3  N   UNL d   1       0.482  -4.766  -0.551  0.00  0.00    -0.160 NA
ATOM      4  C   UNL d   1       1.105  -4.327   0.591  0.00  0.00     0.112 C 
ATOM      5  C   UNL d   1       0.817  -2.932   0.650  0.00  0.00     0.153 C 
ENDROOT
BRANCH   5   6
ATOM      6  C   UNL d   1       1.134  -2.003   1.660  0.00  0.00     0.292 C 
ATOM      7  O   UNL d   1       1.591  -2.631   2.507  0.00  0.00    -0.264 OA
ATOM      8  N   UNL d   1       1.006  -0.645   1.945  0.00  0.00    -0.242 N 
ATOM      9  H   UNL d   1       0.186  -0.137   1.671  0.00  0.00     0.192 HD
BRANCH   8  10
ATOM     10  N   UNL d   1       1.841  -0.086   2.918  0.00  0.00    -0.183 NA
ATOM     11  C   UNL d   1       1.567   1.016   3.544  0.00  0.00     0.152 C 
BRANCH  11  12
ATOM     12  C   UNL d   1       2.286   1.511   4.817  0.00  0.00     0.016 C 
ATOM     13  C   UNL d   1       1.581   2.466   5.563  0.00  0.00     0.015 C 
ATOM     14  C   UNL d   1       2.243   3.264   6.519  0.00  0.00     0.001 C 
ATOM     15  C   UNL d   1       3.563   3.017   6.891  0.00  0.00     0.002 C 
ATOM     16  C   UNL d   1       4.239   1.977   6.293  0.00  0.00     0.037 C 
ATOM     17  C   UNL d   1       3.604   1.238   5.274  0.00  0.00     0.114 C 
BRANCH  17  18
ATOM     18  N   UNL d   1       4.496   0.333   4.603  0.00  0.00    -0.115 N 
ATOM     19  O   UNL d   1       5.444  -0.166   5.231  0.00  0.00    -0.532 OA
ATOM     20  O   UNL d   1       4.316   0.196   3.401  0.00  0.00    -0.532 OA
ENDBRANCH  17  18
ENDBRANCH  11  12
ENDBRANCH   8  10
ENDBRANCH   5   6
BRANCH   4  21
ATOM     21  C   UNL d   1       1.926  -5.323   1.535  0.00  0.00     0.297 C 
BRANCH  21  22
ATOM     22  N   UNL d   1       2.516  -4.715   2.827  0.00  0.00    -0.066 N 
ATOM     23  C   UNL d   1       3.564  -3.577   2.384  0.00  0.00     0.235 C 
ATOM     24  C   UNL d   1       3.682  -2.532   3.514  0.00  0.00     0.028 C 
ATOM     25  C   UNL d   1       2.413  -2.141   4.472  0.00  0.00     0.003 C 
ATOM     26  C   UNL d   1       1.581  -3.312   4.939  0.00  0.00     0.028 C 
ATOM     27  C   UNL d   1       1.196  -4.334   3.837  0.00  0.00     0.235 C 
ATOM     28  H   UNL d   1       3.084  -5.356   3.385  0.00  0.00     0.280 HD
ENDBRANCH  21  22
ENDBRANCH   4  21
BRANCH   1  29
ATOM     29  C   UNL d   1      -0.178  -1.205  -0.659  0.00  0.00     0.220 C 
ATOM     30  N   UNL d   1      -1.375  -0.823  -0.182  0.00  0.00    -0.082 NA
ATOM     31  O   UNL d   1      -1.278   0.560  -0.038  0.00  0.00    -0.103 OA
ATOM     32  N   UNL d   1       0.036   0.989  -0.163  0.00  0.00    -0.089 NA
ATOM     33  C   UNL d   1       0.744  -0.082  -0.542  0.00  0.00     0.180 C 
BRANCH  33  34
ATOM     34  N   UNL d   1       2.114  -0.097  -0.450  0.00  0.00    -0.282 NA
ATOM     35  H   UNL d   1       2.543   0.740  -0.034  0.00  0.00     0.126 HD
ATOM     36  H   UNL d   1       2.625  -0.886  -0.056  0.00  0.00     0.126 HD
ENDBRANCH  33  34
ENDBRANCH   1  29
TORSDOF 8
