REMARK  7 active torsions:
REMARK  status: ('A' for Active; 'I' for Inactive)
REMARK    1  A    between atoms: C_2  and  C_11 
REMARK    2  A    between atoms: C_2  and  O_3 
REMARK    3  A    between atoms: O_3  and  C_4 
REMARK       I    between atoms: C_11  and  N_13 
REMARK    4  A    between atoms: N_13  and  N_14 
REMARK    5  A    between atoms: C_15  and  C_16 
REMARK    6  A    between atoms: N_18  and  C_19 
REMARK    7  A    between atoms: C_26  and  C_27 
ROOT
ATOM      1  C   UNL d   1       6.804  -4.214   1.880  0.00  0.00     0.032 A 
ATOM      2  C   UNL d   1       6.376  -5.514   1.706  0.00  0.00     0.134 A 
ATOM      3  N   UNL d   1       7.195  -6.319   2.471  0.00  0.00    -0.244 N 
ATOM      4  N   UNL d   1       8.121  -5.595   3.147  0.00  0.00    -0.166 NA
ATOM      5  C   UNL d   1       7.905  -4.325   2.771  0.00  0.00     0.101 A 
ENDROOT
BRANCH   1   6
ATOM      6  C   UNL d   1       6.278  -2.978   1.339  0.00  0.00     0.154 C 
ATOM      7  N   UNL d   1       5.004  -2.818   1.231  0.00  0.00    -0.184 NA
BRANCH   7   8
ATOM      8  N   UNL d   1       4.544  -1.601   0.776  0.00  0.00    -0.245 N 
ATOM      9  C   UNL d   1       3.186  -1.345   0.932  0.00  0.00     0.266 C 
ATOM     10  O   UNL d   1       2.459  -2.089   1.606  0.00  0.00    -0.269 OA
ATOM     11  H   UNL d   1       5.195  -0.901   0.433  0.00  0.00     0.192 HD
BRANCH   9  12
ATOM     12  C   UNL d   1       2.613  -0.122   0.154  0.00  0.00     0.218 C 
ATOM     13  C   UNL d   1       3.086   1.136   0.889  0.00  0.00     0.050 C 
BRANCH  12  14
ATOM     14  O   UNL d   1       1.180  -0.040   0.040  0.00  0.00    -0.337 OA
BRANCH  14  15
ATOM     15  C   UNL d   1       0.489  -1.149  -0.388  0.00  0.00     0.070 A 
ATOM     16  C   UNL d   1       1.071  -2.330  -0.858  0.00  0.00     0.038 A 
ATOM     17  C   UNL d   1       0.303  -3.470  -1.095  0.00  0.00     0.022 A 
ATOM     18  C   UNL d   1      -1.077  -3.407  -0.973  0.00  0.00     0.011 A 
ATOM     19 BR   UNL d   1      -2.108  -4.942  -1.357  0.00  0.00    -0.051 Br
ATOM     20  C   UNL d   1      -1.690  -2.216  -0.589  0.00  0.00     0.022 A 
ATOM     21  C   UNL d   1      -0.906  -1.093  -0.282  0.00  0.00     0.038 A 
ENDBRANCH  14  15
ENDBRANCH  12  14
ENDBRANCH   9  12
ENDBRANCH   7   8
ENDBRANCH   1   6
BRANCH   5  22
ATOM     22  C   UNL d   1       8.642  -3.210   3.353  0.00  0.00    -0.005 A 
ATOM     23  C   UNL d   1      10.018  -3.059   3.166  0.00  0.00     0.014 A 
ATOM     24  C   UNL d   1      10.698  -2.034   3.830  0.00  0.00     0.001 A 
ATOM     25  C   UNL d   1       9.996  -1.115   4.613  0.00  0.00     0.000 A 
ATOM     26  C   UNL d   1       8.615  -1.225   4.751  0.00  0.00     0.001 A 
ATOM     27  C   UNL d   1       7.941  -2.272   4.127  0.00  0.00     0.014 A 
ENDBRANCH   5  22
BRANCH   3  28
ATOM     28  C   UNL d   1       7.226  -7.737   2.491  0.00  0.00     0.058 A 
ATOM     29  C   UNL d   1       7.218  -8.434   3.706  0.00  0.00     0.031 A 
ATOM     30  C   UNL d   1       7.327  -9.831   3.707  0.00  0.00     0.002 A 
ATOM     31  C   UNL d   1       7.432 -10.529   2.503  0.00  0.00     0.000 A 
ATOM     32  C   UNL d   1       7.446  -9.832   1.294  0.00  0.00     0.002 A 
ATOM     33  C   UNL d   1       7.331  -8.438   1.283  0.00  0.00     0.031 A 
ENDBRANCH   3  28
TORSDOF 7
