REMARK  14 active torsions:
REMARK  status: ('A' for Active; 'I' for Inactive)
REMARK    1  A    between atoms: N_2  and  C_4 
REMARK    2  A    between atoms: C_6  and  S_7 
REMARK    3  A    between atoms: S_7  and  N_10 
REMARK    4  A    between atoms: C_17  and  O_18 
REMARK    5  A    between atoms: O_18  and  C_19 
REMARK    6  A    between atoms: C_19  and  C_20 
REMARK    7  A    between atoms: C_20  and  O_21 
REMARK    8  A    between atoms: C_20  and  C_22 
REMARK    9  A    between atoms: N_23  and  C_22 
REMARK   10  A    between atoms: N_23  and  C_27 
REMARK   11  A    between atoms: N_23  and  C_24 
REMARK   12  A    between atoms: C_24  and  C_25 
REMARK   13  A    between atoms: C_25  and  O_26 
REMARK   14  A    between atoms: C_27  and  C_28 
ROOT
ATOM      1  O   UNL d   1      -0.603  -0.051   4.135  0.00  0.00    -0.346 OA
ENDROOT
BRANCH   1   2
ATOM      2  C   UNL d   1       0.532   0.573   3.670  0.00  0.00     0.102 C 
ATOM      3  C   UNL d   1       1.227   1.000   4.764  0.00  0.00     0.041 C 
ATOM      4  C   UNL d   1       2.317   1.817   4.558  0.00  0.00     0.028 C 
ATOM      5  C   UNL d   1       2.992   1.933   3.366  0.00  0.00     0.082 C 
ATOM      6  C   UNL d   1       2.303   1.584   2.244  0.00  0.00     0.064 C 
ATOM      7  C   UNL d   1       1.071   0.925   2.396  0.00  0.00     0.137 C 
BRANCH   5   8
ATOM      8  S   UNL d   1       4.714   2.377   3.243  0.00  0.00     0.260 S 
ATOM      9  O   UNL d   1       5.334   1.308   2.500  0.00  0.00    -0.200 OA
ATOM     10  O   UNL d   1       4.709   3.743   2.748  0.00  0.00    -0.200 OA
BRANCH   8  11
ATOM     11  N   UNL d   1       5.366   2.363   4.821  0.00  0.00    -0.307 N 
ATOM     12  C   UNL d   1       5.580   1.067   5.523  0.00  0.00     0.135 C 
ATOM     13  C   UNL d   1       4.390   0.963   6.450  0.00  0.00     0.022 C 
ATOM     14  C   UNL d   1       4.200   2.422   6.915  0.00  0.00     0.022 C 
ATOM     15  C   UNL d   1       4.809   3.315   5.808  0.00  0.00     0.135 C 
ENDBRANCH   8  11
ENDBRANCH   5   8
BRANCH   7  16
ATOM     16  N   UNL d   1       0.466   0.712   1.105  0.00  0.00    -0.113 N 
ATOM     17  O   UNL d   1      -0.653   1.193   0.900  0.00  0.00    -0.532 OA
ATOM     18  O   UNL d   1       1.123   0.106   0.249  0.00  0.00    -0.532 OA
ENDBRANCH   7  16
ENDBRANCH   1   2
BRANCH   1  19
ATOM     19  C   UNL d   1      -1.507  -0.319   3.118  0.00  0.00     0.209 C 
BRANCH  19  20
ATOM     20  C   UNL d   1      -2.772  -1.068   3.449  0.00  0.00     0.168 C 
BRANCH  20  21
ATOM     21  O   UNL d   1      -3.599  -0.244   4.279  0.00  0.00    -0.392 OA
ATOM     22  H   UNL d   1      -3.661   0.653   3.897  0.00  0.00     0.210 HD
ENDBRANCH  20  21
BRANCH  20  23
ATOM     23  C   UNL d   1      -3.568  -1.363   2.157  0.00  0.00     0.269 C 
BRANCH  23  24
ATOM     24  N   UNL d   1      -2.928  -2.295   1.125  0.00  0.00    -0.063 N 
ATOM     25  H   UNL d   1      -2.798  -3.195   1.612  0.00  0.00     0.280 HD
BRANCH  24  26
ATOM     26  C   UNL d   1      -3.836  -2.589  -0.050  0.00  0.00     0.273 C 
BRANCH  26  27
ATOM     27  C   UNL d   1      -5.071  -3.283   0.392  0.00  0.00    -0.033 A 
ATOM     28  C   UNL d   1      -6.156  -2.538   0.875  0.00  0.00     0.009 A 
ATOM     29  C   UNL d   1      -7.186  -3.183   1.541  0.00  0.00     0.001 A 
ATOM     30  C   UNL d   1      -7.202  -4.574   1.598  0.00  0.00     0.000 A 
ATOM     31  C   UNL d   1      -6.151  -5.322   1.066  0.00  0.00     0.001 A 
ATOM     32  C   UNL d   1      -5.070  -4.677   0.486  0.00  0.00     0.009 A 
ENDBRANCH  26  27
ENDBRANCH  24  26
BRANCH  24  33
ATOM     33  C   UNL d   1      -1.627  -1.844   0.524  0.00  0.00     0.261 C 
BRANCH  33  34
ATOM     34  C   UNL d   1      -0.504  -2.786   0.977  0.00  0.00     0.192 C 
BRANCH  34  35
ATOM     35  O   UNL d   1       0.796  -2.344   0.676  0.00  0.00    -0.399 OA
ATOM     36  H   UNL d   1       0.838  -1.857  -0.172  0.00  0.00     0.209 HD
ENDBRANCH  34  35
ENDBRANCH  33  34
ENDBRANCH  24  33
ENDBRANCH  23  24
ENDBRANCH  20  23
ENDBRANCH  19  20
ENDBRANCH   1  19
TORSDOF 14
