REMARK  9 active torsions:
REMARK  status: ('A' for Active; 'I' for Inactive)
REMARK    1  A    between atoms: C_2  and  O_3 
REMARK    2  A    between atoms: O_3  and  C_4 
REMARK    3  A    between atoms: C_7  and  C_8 
REMARK    4  A    between atoms: C_8  and  C_9 
REMARK    5  A    between atoms: C_9  and  N_10 
REMARK       I    between atoms: N_10  and  C_11 
REMARK    6  A    between atoms: C_11  and  C_13 
REMARK    7  A    between atoms: N_16  and  C_17 
REMARK    8  A    between atoms: C_30  and  O_31 
REMARK    9  A    between atoms: O_31  and  C_32 
ROOT
ATOM      1  C   UNL d   1      13.101  -2.215   0.598  0.00  0.00     0.081 C 
ATOM      2  C   UNL d   1      13.607  -2.128  -0.849  0.00  0.00     0.044 C 
ATOM      3  C   UNL d   1      13.356  -3.424  -1.693  0.00  0.00     0.277 C 
ATOM      4  N   UNL d   1      13.861  -4.800  -0.922  0.00  0.00     0.125 N 
ATOM      5  C   UNL d   1      13.153  -4.738   0.420  0.00  0.00     0.277 C 
ATOM      6  C   UNL d   1      13.556  -3.531   1.227  0.00  0.00     0.044 C 
ENDROOT
BRANCH   1   7
ATOM      7  C   UNL d   1      11.595  -1.984   0.818  0.00  0.00     0.221 C 
ATOM      8  N   UNL d   1      10.775  -2.121  -0.286  0.00  0.00    -0.360 N 
ATOM      9  H   UNL d   1      11.146  -1.876  -1.188  0.00  0.00     0.162 HD
ATOM     10  O   UNL d   1      11.149  -1.806   1.948  0.00  0.00    -0.273 OA
BRANCH   8  11
ATOM     11  C   UNL d   1       9.351  -1.876  -0.144  0.00  0.00     0.127 C 
BRANCH  11  12
ATOM     12  C   UNL d   1       8.580  -2.014  -1.470  0.00  0.00     0.058 C 
BRANCH  12  13
ATOM     13  C   UNL d   1       7.096  -1.772  -1.333  0.00  0.00    -0.054 A 
ATOM     14  C   UNL d   1       6.246  -1.785  -2.437  0.00  0.00     0.010 A 
ATOM     15  C   UNL d   1       4.891  -1.425  -2.289  0.00  0.00     0.040 A 
ATOM     16  C   UNL d   1       4.319  -1.117  -1.029  0.00  0.00     0.102 A 
ATOM     17  C   UNL d   1       5.178  -1.184   0.100  0.00  0.00     0.102 A 
ATOM     18  C   UNL d   1       6.532  -1.486  -0.089  0.00  0.00     0.046 A 
BRANCH  16  19
ATOM     19  O   UNL d   1       2.935  -1.012  -1.091  0.00  0.00    -0.349 OA
BRANCH  19  20
ATOM     20  C   UNL d   1       2.276   0.141  -0.563  0.00  0.00     0.171 C 
ATOM     21  C   UNL d   1       0.768   0.070  -0.462  0.00  0.00     0.034 C 
ENDBRANCH  19  20
ENDBRANCH  16  19
BRANCH  17  22
ATOM     22  O   UNL d   1       4.984  -1.060   1.475  0.00  0.00    -0.349 OA
BRANCH  22  23
ATOM     23  C   UNL d   1       3.732  -0.537   1.745  0.00  0.00     0.171 C 
ATOM     24  C   UNL d   1       3.214  -0.176   3.106  0.00  0.00     0.034 C 
ENDBRANCH  22  23
ENDBRANCH  17  22
ENDBRANCH  12  13
ENDBRANCH  11  12
ENDBRANCH   8  11
ENDBRANCH   1   7
BRANCH   4  25
ATOM     25  C   UNL d   1      13.917  -6.140  -1.699  0.00  0.00     0.404 C 
ATOM     26  N   UNL d   1      14.641  -7.648  -1.559  0.00  0.00    -0.347 N 
ATOM     27  C   UNL d   1      13.774  -8.510  -2.023  0.00  0.00     0.052 C 
ATOM     28  H   UNL d   1      15.497  -7.955  -1.073  0.00  0.00     0.163 HD
ATOM     29  C   UNL d   1      13.486  -9.940  -2.388  0.00  0.00     0.033 C 
ATOM     30  C   UNL d   1      12.548  -7.693  -2.169  0.00  0.00     0.039 C 
ATOM     31  C   UNL d   1      12.524 -10.070  -3.354  0.00  0.00     0.026 C 
ATOM     32  C   UNL d   1      11.843  -8.924  -3.973  0.00  0.00     0.035 C 
ATOM     33 CL   UNL d   1      10.796  -9.113  -5.316  0.00  0.00    -0.084 Cl
ATOM     34  C   UNL d   1      11.905  -7.703  -3.455  0.00  0.00     0.049 C 
ATOM     35  N   UNL d   1      12.579  -6.715  -1.412  0.00  0.00    -0.244 NA
ATOM     36  H   UNL d   1      12.835  -6.886  -0.411  0.00  0.00     0.131 HD
ENDBRANCH   4  25
TORSDOF 9
