@<TRIPOS>MOLECULE
*****
 52 55 0 0 0
SMALL
GASTEIGER

@<TRIPOS>ATOM
      1 N           4.0461   -1.3438    1.7824 N.am    1  UNL1       -0.3291
      2 C           3.8160   -0.0563    2.1534 C.2     1  UNL1        0.2151
      3 O           4.1092    0.3004    3.2936 O.2     1  UNL1       -0.2757
      4 C           3.2017    0.8655    1.1107 C.3     1  UNL1        0.0510
      5 C           2.3443    1.9100    1.8506 C.3     1  UNL1       -0.0391
      6 C           1.8205    3.0110    0.9307 C.3     1  UNL1       -0.0365
      7 C           2.9490    3.6419    0.1087 C.3     1  UNL1        0.0122
      8 N           3.6309    2.5655   -0.6036 N.pl3   1  UNL1       -0.3292
      9 C           3.7759    2.5630   -1.9746 C.ar    1  UNL1        0.0297
     10 C           3.3789    1.4647   -2.7437 C.ar    1  UNL1       -0.0399
     11 C           3.5915    1.4219   -4.1338 C.ar    1  UNL1       -0.0479
     12 C           4.1510    2.5113   -4.8214 C.ar    1  UNL1        0.0371
     13 C           4.2334    2.4330   -6.3214 C.2     1  UNL1        0.2483
     14 O           3.8181    1.4035   -6.8656 O.2     1  UNL1       -0.2699
     15 N           4.7924    3.4946   -7.0259 N.am    1  UNL1       -0.2815
     16 C           4.8317    3.5534   -8.4417 C.ar    1  UNL1        0.0343
     17 C           5.9271    4.1311   -9.0903 C.ar    1  UNL1       -0.0404
     18 C           5.9390    4.2525  -10.4871 C.ar    1  UNL1       -0.0594
     19 C           4.8640    3.7836  -11.2441 C.ar    1  UNL1       -0.0525
     20 C           3.7538    3.2328  -10.6017 C.ar    1  UNL1        0.0015
     21 C           2.5542    2.8943  -11.3440 C.ar    1  UNL1        0.0658
     22 C           1.2724    3.3898  -11.2257 C.ar    1  UNL1       -0.0166
     23 C           0.5222    2.6948  -12.1864 C.ar    1  UNL1        0.0497
     24 N           1.2603    1.8181  -12.8711 N.ar    1  UNL1       -0.1818
     25 N           2.4878    1.9494  -12.3324 N.ar    1  UNL1       -0.2770
     26 C           3.7504    3.1110   -9.2064 C.ar    1  UNL1       -0.0313
     27 C           4.5398    3.6201   -4.0669 C.ar    1  UNL1       -0.0479
     28 C           4.3402    3.6425   -2.6684 C.ar    1  UNL1       -0.0399
     29 C           4.2725    1.5543    0.2550 C.3     1  UNL1        0.0233
     30 H           4.3567   -1.9717    2.5158 H       1  UNL1        0.1449
     31 H           3.7430   -1.7449    0.9067 H       1  UNL1        0.1449
     32 H           2.5518    0.2762    0.4506 H       1  UNL1        0.0409
     33 H           2.9317    2.3809    2.6498 H       1  UNL1        0.0273
     34 H           1.5046    1.4044    2.3438 H       1  UNL1        0.0273
     35 H           1.3216    3.7764    1.5352 H       1  UNL1        0.0281
     36 H           1.0687    2.5824    0.2573 H       1  UNL1        0.0281
     37 H           3.6569    4.1486    0.7775 H       1  UNL1        0.0464
     38 H           2.5312    4.3993   -0.5633 H       1  UNL1        0.0464
     39 H           2.8522    0.6381   -2.2721 H       1  UNL1        0.0636
     40 H           3.3055    0.5221   -4.6785 H       1  UNL1        0.0626
     41 H           5.2851    4.2272   -6.5365 H       1  UNL1        0.1551
     42 H           6.8074    4.4390   -8.5328 H       1  UNL1        0.0636
     43 H           6.7790    4.7270  -10.9895 H       1  UNL1        0.0618
     44 H           4.8817    3.8889  -12.3268 H       1  UNL1        0.0624
     45 H           0.9396    4.1564  -10.5403 H       1  UNL1        0.0654
     46 H          -0.5307    2.7958  -12.4140 H       1  UNL1        0.0848
     47 H           3.2342    1.3560  -12.6778 H       1  UNL1        0.1889
     48 H           2.8665    2.7118   -8.7141 H       1  UNL1        0.0643
     49 H           5.0072    4.4843   -4.5230 H       1  UNL1        0.0626
     50 H           4.6634    4.5202   -2.1137 H       1  UNL1        0.0636
     51 H           4.9966    2.0645    0.9069 H       1  UNL1        0.0471
     52 H           4.8525    0.8281   -0.3264 H       1  UNL1        0.0471
@<TRIPOS>BOND
     1     1     2   am
     2     2     3    2
     3     4     5    1
     4     5     6    1
     5     6     7    1
     6     7     8    1
     7     8     9    1
     8     9    10   ar
     9    10    11   ar
    10    11    12   ar
    11    12    13    1
    12    13    14    2
    13    13    15   am
    14    15    16    1
    15    16    17   ar
    16    17    18   ar
    17    18    19   ar
    18    19    20   ar
    19    20    21    1
    20    21    22   ar
    21    22    23   ar
    22    23    24   ar
    23    24    25   ar
    24    21    25   ar
    25    20    26   ar
    26    16    26   ar
    27    12    27   ar
    28    27    28   ar
    29     9    28   ar
    30     8    29    1
    31     4    29    1
    32     4     2    1
    33     1    30    1
    34     1    31    1
    35     4    32    1
    36     5    33    1
    37     5    34    1
    38     6    35    1
    39     6    36    1
    40     7    37    1
    41     7    38    1
    42    10    39    1
    43    11    40    1
    44    15    41    1
    45    17    42    1
    46    18    43    1
    47    19    44    1
    48    22    45    1
    49    23    46    1
    50    25    47    1
    51    26    48    1
    52    27    49    1
    53    28    50    1
    54    29    51    1
    55    29    52    1
