REMARK  13 active torsions:
REMARK  status: ('A' for Active; 'I' for Inactive)
REMARK    1  A    between atoms: C_2  and  C_3 
REMARK    2  A    between atoms: C_3  and  C_4 
REMARK    3  A    between atoms: C_4  and  C_5 
REMARK    4  A    between atoms: C_5  and  C_6 
REMARK    5  A    between atoms: C_6  and  N_7 
REMARK       I    between atoms: N_7  and  C_8 
REMARK    6  A    between atoms: N_7  and  C_12 
REMARK    7  A    between atoms: C_8  and  C_10 
REMARK    8  A    between atoms: C_12  and  C_13 
REMARK    9  A    between atoms: C_12  and  C_22 
REMARK       I    between atoms: C_13  and  N_15 
REMARK   10  A    between atoms: N_15  and  C_16 
REMARK   11  A    between atoms: C_23  and  O_24 
REMARK   12  A    between atoms: C_26  and  O_27 
REMARK   13  A    between atoms: C_29  and  O_30 
ROOT
ATOM      1  C   UNL d   1       8.548  -2.234  -3.998  0.00  0.00     0.218 C 
ENDROOT
BRANCH   1   2
ATOM      2  N   UNL d   1       7.029  -2.135  -3.788  0.00  0.00    -0.334 N 
ATOM      3  C   UNL d   1       6.140  -2.617  -4.785  0.00  0.00     0.220 C 
ATOM      4  O   UNL d   1       6.491  -3.129  -5.856  0.00  0.00    -0.273 OA
BRANCH   2   5
ATOM      5  C   UNL d   1       6.620  -1.415  -2.558  0.00  0.00     0.127 C 
BRANCH   5   6
ATOM      6  C   UNL d   1       5.152  -1.266  -2.327  0.00  0.00     0.020 C 
BRANCH   6   7
ATOM      7  C   UNL d   1       4.657  -0.625  -1.074  0.00  0.00     0.002 C 
BRANCH   7   8
ATOM      8  C   UNL d   1       3.128  -0.682  -1.163  0.00  0.00    -0.000 C 
BRANCH   8   9
ATOM      9  C   UNL d   1       2.551  -0.030   0.068  0.00  0.00    -0.005 C 
ATOM     10  C   UNL d   1       1.040  -0.048   0.035  0.00  0.00     0.005 C 
ENDBRANCH   8   9
ENDBRANCH   7   8
ENDBRANCH   6   7
ENDBRANCH   5   6
ENDBRANCH   2   5
BRANCH   3  11
ATOM     11  C   UNL d   1       4.635  -2.549  -4.646  0.00  0.00     0.098 C 
ATOM     12  C   UNL d   1       3.869  -3.159  -5.798  0.00  0.00     0.014 C 
ENDBRANCH   3  11
ENDBRANCH   1   2
BRANCH   1  13
ATOM     13  C   UNL d   1       9.382  -2.883  -2.814  0.00  0.00     0.245 C 
ATOM     14  O   UNL d   1      10.241  -3.745  -3.032  0.00  0.00    -0.271 OA
ATOM     15  N   UNL d   1       9.161  -2.507  -1.508  0.00  0.00    -0.354 N 
ATOM     16  H   UNL d   1       8.831  -1.572  -1.312  0.00  0.00     0.162 HD
BRANCH  15  17
ATOM     17  C   UNL d   1       9.690  -3.299  -0.391  0.00  0.00     0.084 C 
ATOM     18  C   UNL d   1       9.150  -2.747   0.937  0.00  0.00     0.025 C 
ATOM     19  C   UNL d   1       9.535  -3.616   2.134  0.00  0.00     0.002 C 
ATOM     20  C   UNL d   1       9.116  -5.069   1.938  0.00  0.00     0.000 C 
ATOM     21  C   UNL d   1       9.709  -5.627   0.658  0.00  0.00     0.002 C 
ATOM     22  C   UNL d   1       9.300  -4.787  -0.539  0.00  0.00     0.025 C 
ENDBRANCH  15  17
ENDBRANCH   1  13
BRANCH   1  23
ATOM     23  C   UNL d   1       8.930  -2.935  -5.318  0.00  0.00     0.040 A 
ATOM     24  C   UNL d   1       8.886  -4.348  -5.461  0.00  0.00     0.080 A 
ATOM     25  C   UNL d   1       8.938  -4.964  -6.708  0.00  0.00     0.073 A 
ATOM     26  C   UNL d   1       8.973  -4.180  -7.849  0.00  0.00     0.071 A 
ATOM     27  C   UNL d   1       9.011  -2.793  -7.762  0.00  0.00     0.073 A 
ATOM     28  C   UNL d   1       9.019  -2.176  -6.504  0.00  0.00     0.080 A 
BRANCH  24  29
ATOM     29  O   UNL d   1       8.624  -5.227  -4.437  0.00  0.00    -0.360 OA
ATOM     30  H   UNL d   1       9.007  -4.871  -3.618  0.00  0.00     0.217 HD
ENDBRANCH  24  29
BRANCH  26  31
ATOM     31  O   UNL d   1       8.933  -4.750  -9.089  0.00  0.00    -0.361 OA
ATOM     32  H   UNL d   1       8.871  -5.713  -8.967  0.00  0.00     0.217 HD
ENDBRANCH  26  31
BRANCH  28  33
ATOM     33  O   UNL d   1       8.989  -0.806  -6.434  0.00  0.00    -0.360 OA
ATOM     34  H   UNL d   1       8.957  -0.466  -7.345  0.00  0.00     0.217 HD
ENDBRANCH  28  33
ENDBRANCH   1  23
TORSDOF 13
