@<TRIPOS>MOLECULE
*****
 39 40 0 0 0
SMALL
GASTEIGER

@<TRIPOS>ATOM
      1 C          -2.2006   -0.0397   -0.0118 C.3     1  UNL1       -0.0012
      2 C          -0.7252    0.0152    0.0142 C.ar    1  UNL1        0.1687
      3 N           0.0421   -1.0822    0.0181 N.ar    1  UNL1       -0.0616
      4 O           1.3396   -0.5655   -0.0226 O.2     1  UNL1       -0.3381
      5 C           1.2179    0.7951   -0.0533 C.ar    1  UNL1        0.2274
      6 C           2.4565    1.6186   -0.1715 C.3     1  UNL1        0.0280
      7 C           3.7655    0.8142   -0.1723 C.3     1  UNL1       -0.0289
      8 C           4.9922    1.7240   -0.3117 C.3     1  UNL1        0.0135
      9 N           6.2628    1.0081   -0.3118 N.am    1  UNL1       -0.2994
     10 C           7.4535    1.6932   -0.4324 C.2     1  UNL1        0.2999
     11 O           7.5190    2.9136   -0.5415 O.2     1  UNL1       -0.2529
     12 N           8.5531    0.8794   -0.4244 N.am    1  UNL1       -0.2953
     13 C           9.9143    1.4048   -0.5292 C.3     1  UNL1        0.0383
     14 C          11.0307    0.3691   -0.4948 C.ar    1  UNL1       -0.0301
     15 C          10.7912   -1.0141   -0.5001 C.ar    1  UNL1       -0.0536
     16 C          11.8370   -1.9429   -0.4782 C.ar    1  UNL1       -0.0199
     17 C          13.1498   -1.4979   -0.4675 C.ar    1  UNL1        0.1169
     18 O          14.1979   -2.3692   -0.4653 O.3     1  UNL1       -0.5068
     19 C          13.4281   -0.1383   -0.4650 C.ar    1  UNL1       -0.0199
     20 C          12.3771    0.7916   -0.4798 C.ar    1  UNL1       -0.0536
     21 N          -0.0336    1.2003   -0.0176 N.ar    1  UNL1       -0.1964
     22 H          -2.5729   -1.0607    0.1219 H       1  UNL1        0.0309
     23 H          -2.5706    0.3315   -0.9730 H       1  UNL1        0.0309
     24 H          -2.6266    0.5826    0.7812 H       1  UNL1        0.0309
     25 H           2.4670    2.3428    0.6522 H       1  UNL1        0.0361
     26 H           2.3826    2.1971   -1.1009 H       1  UNL1        0.0361
     27 H           3.7525    0.0901   -0.9967 H       1  UNL1        0.0285
     28 H           3.8410    0.2338    0.7555 H       1  UNL1        0.0285
     29 H           5.0218    2.4458    0.5126 H       1  UNL1        0.0462
     30 H           4.9345    2.2941   -1.2463 H       1  UNL1        0.0462
     31 H           6.2661    0.0021   -0.2342 H       1  UNL1        0.1502
     32 H           8.4053   -0.0990   -0.2670 H       1  UNL1        0.1506
     33 H          10.0589    2.1160    0.2943 H       1  UNL1        0.0512
     34 H           9.9797    1.9676   -1.4690 H       1  UNL1        0.0512
     35 H           9.7860   -1.4146   -0.5277 H       1  UNL1        0.0622
     36 H          11.5948   -3.0006   -0.4732 H       1  UNL1        0.0654
     37 H          13.8529   -3.2768   -0.4968 H       1  UNL1        0.2921
     38 H          14.4633    0.1943   -0.4536 H       1  UNL1        0.0654
     39 H          12.6302    1.8513   -0.4832 H       1  UNL1        0.0622
@<TRIPOS>BOND
     1     1     2    1
     2     2     3   ar
     3     3     4   ar
     4     4     5   ar
     5     5     6    1
     6     6     7    1
     7     7     8    1
     8     8     9    1
     9     9    10   am
    10    10    11    2
    11    10    12   am
    12    12    13    1
    13    13    14    1
    14    14    15   ar
    15    15    16   ar
    16    16    17   ar
    17    17    18    1
    18    17    19   ar
    19    19    20   ar
    20    14    20   ar
    21     5    21   ar
    22     2    21   ar
    23     1    22    1
    24     1    23    1
    25     1    24    1
    26     6    25    1
    27     6    26    1
    28     7    27    1
    29     7    28    1
    30     8    29    1
    31     8    30    1
    32     9    31    1
    33    12    32    1
    34    13    33    1
    35    13    34    1
    36    15    35    1
    37    16    36    1
    38    18    37    1
    39    19    38    1
    40    20    39    1
