REMARK  6 active torsions:
REMARK  status: ('A' for Active; 'I' for Inactive)
REMARK    1  A    between atoms: O_2  and  C_3 
REMARK    2  A    between atoms: C_5  and  O_6 
REMARK    3  A    between atoms: C_9  and  C_10 
REMARK       I    between atoms: C_10  and  N_12 
REMARK       I    between atoms: N_12  and  C_13 
REMARK       I    between atoms: C_13  and  N_14 
REMARK       I    between atoms: C_13  and  N_22 
REMARK    4  A    between atoms: N_14  and  C_15 
REMARK    5  A    between atoms: C_15  and  C_16 
REMARK    6  A    between atoms: N_22  and  C_23 
ROOT
ATOM      1  C   UNL d   1       2.928   4.459  -2.085  0.00  0.00     0.294 C 
ATOM      2  O   UNL d   1       3.543   5.201  -2.841  0.00  0.00    -0.265 OA
ATOM      3  N   UNL d   1       1.838   4.804  -1.323  0.00  0.00    -0.023 NA
ATOM      4  C   UNL d   1       1.325   5.986  -1.455  0.00  0.00     0.704 C 
ATOM      5  N   UNL d   1       0.139   6.271  -0.845  0.00  0.00    -0.220 N 
ATOM      6  N   UNL d   1       1.797   6.991  -2.269  0.00  0.00    -0.190 N 
ATOM      7  H   UNL d   1      -0.177   7.203  -1.038  0.00  0.00     0.178 HD
ATOM      8  H   UNL d   1       2.656   6.744  -2.770  0.00  0.00     0.184 HD
ENDROOT
BRANCH   5   9
ATOM      9  C   UNL d   1      -0.442   5.592   0.301  0.00  0.00     0.178 C 
BRANCH   9  10
ATOM     10  C   UNL d   1      -1.476   6.431   1.045  0.00  0.00    -0.022 A 
ATOM     11  C   UNL d   1      -1.942   7.678   0.606  0.00  0.00     0.012 A 
ATOM     12  C   UNL d   1      -2.855   8.412   1.356  0.00  0.00     0.020 A 
ATOM     13  C   UNL d   1      -3.327   7.863   2.529  0.00  0.00     0.116 A 
ATOM     14  N   UNL d   1      -2.935   6.657   2.990  0.00  0.00    -0.273 NA
ATOM     15  C   UNL d   1      -2.023   5.975   2.248  0.00  0.00     0.124 A 
ENDBRANCH   9  10
ENDBRANCH   5   9
BRANCH   6  16
ATOM     16  C   UNL d   1       1.580   8.386  -2.252  0.00  0.00     0.055 A 
ATOM     17  C   UNL d   1       1.537   9.049  -3.496  0.00  0.00     0.031 A 
ATOM     18  C   UNL d   1       1.286  10.422  -3.585  0.00  0.00     0.009 A 
ATOM     19  C   UNL d   1       0.993  11.150  -2.435  0.00  0.00    -0.061 A 
ATOM     20  C   UNL d   1       0.552  12.581  -2.504  0.00  0.00     0.048 C 
ATOM     21  C   UNL d   1       1.077  10.513  -1.193  0.00  0.00     0.015 A 
ATOM     22  C   UNL d   1       1.403   9.150  -1.081  0.00  0.00    -0.034 A 
ATOM     23  C   UNL d   1       1.599   8.603   0.307  0.00  0.00     0.050 C 
ENDBRANCH   6  16
BRANCH   1  24
ATOM     24  C   UNL d   1       3.342   3.038  -1.966  0.00  0.00     0.040 A 
ATOM     25  C   UNL d   1       4.431   2.598  -2.715  0.00  0.00     0.054 A 
ATOM     26  C   UNL d   1       4.927   1.311  -2.538  0.00  0.00     0.071 A 
ATOM     27  C   UNL d   1       4.235   0.420  -1.704  0.00  0.00     0.073 A 
ATOM     28  C   UNL d   1       3.110   0.847  -0.984  0.00  0.00     0.071 A 
ATOM     29  C   UNL d   1       2.691   2.168  -1.092  0.00  0.00     0.054 A 
BRANCH  26  30
ATOM     30  O   UNL d   1       6.089   0.860  -3.111  0.00  0.00    -0.356 OA
ATOM     31  C   UNL d   1       6.868   1.851  -3.791  0.00  0.00     0.210 C 
ENDBRANCH  26  30
BRANCH  28  32
ATOM     32  O   UNL d   1       2.533  -0.042  -0.115  0.00  0.00    -0.356 OA
ATOM     33  C   UNL d   1       1.108   0.040  -0.036  0.00  0.00     0.210 C 
ENDBRANCH  28  32
ENDBRANCH   1  24
TORSDOF 6
