REMARK  4 active torsions:
REMARK  status: ('A' for Active; 'I' for Inactive)
REMARK       I    between atoms: C_2  and  N_3 
REMARK    1  A    between atoms: C_2  and  C_13 
REMARK    2  A    between atoms: N_3  and  N_4 
REMARK    3  A    between atoms: N_4  and  C_5 
REMARK    4  A    between atoms: C_18  and  O_19 
ROOT
ATOM      1  O   UNL d   1       1.062  -0.227  -0.067  0.00  0.00    -0.266 OA
ATOM      2  C   UNL d   1       2.293  -0.159  -0.011  0.00  0.00     0.272 C 
ATOM      3  N   UNL d   1       3.062  -1.099   0.663  0.00  0.00    -0.265 N 
ATOM      4  H   UNL d   1       4.074  -1.123   0.623  0.00  0.00     0.190 HD
ENDROOT
BRANCH   3   5
ATOM      5  N   UNL d   1       2.397  -2.199   1.218  0.00  0.00    -0.295 N 
ATOM      6  H   UNL d   1       1.377  -2.234   1.140  0.00  0.00     0.187 HD
BRANCH   5   7
ATOM      7  C   UNL d   1       3.107  -3.160   1.946  0.00  0.00     0.086 A 
ATOM      8  C   UNL d   1       4.188  -2.812   2.767  0.00  0.00     0.037 A 
ATOM      9  C   UNL d   1       4.938  -3.793   3.426  0.00  0.00     0.045 A 
ATOM     10  C   UNL d   1       4.627  -5.136   3.252  0.00  0.00     0.119 A 
ATOM     11  F   UNL d   1       5.366  -6.069   3.866  0.00  0.00    -0.206 F 
ATOM     12  C   UNL d   1       3.563  -5.519   2.450  0.00  0.00     0.086 A 
ATOM     13  C   UNL d   1       2.806  -4.532   1.817  0.00  0.00     0.147 A 
ATOM     14  F   UNL d   1       1.788  -4.923   1.035  0.00  0.00    -0.204 F 
ENDBRANCH   5   7
ENDBRANCH   3   5
BRANCH   2  15
ATOM     15  C   UNL d   1       3.020   0.960  -0.684  0.00  0.00     0.066 A 
ATOM     16  C   UNL d   1       4.069   0.724  -1.588  0.00  0.00     0.020 A 
ATOM     17  C   UNL d   1       4.668   1.796  -2.271  0.00  0.00     0.001 A 
ATOM     18  C   UNL d   1       4.230   3.103  -2.056  0.00  0.00     0.003 A 
ATOM     19  C   UNL d   1       3.193   3.348  -1.156  0.00  0.00     0.037 A 
ATOM     20  C   UNL d   1       2.594   2.281  -0.477  0.00  0.00     0.081 A 
BRANCH  20  21
ATOM     21  O   UNL d   1       1.606   2.537   0.433  0.00  0.00    -0.360 OA
ATOM     22  H   UNL d   1       1.320   3.461   0.367  0.00  0.00     0.217 HD
ENDBRANCH  20  21
ENDBRANCH   2  15
TORSDOF 4
