@<TRIPOS>MOLECULE
*****
 44 46 0 0 0
SMALL
GASTEIGER

@<TRIPOS>ATOM
      1 O           1.0625    0.1644   -0.1199 O.2     1  UNL1       -0.2749
      2 C           2.2909    0.0646   -0.0251 C.2     1  UNL1        0.2236
      3 C           3.0195   -0.8759    0.9522 C.3     1  UNL1        0.0777
      4 S           1.8271   -1.8411    1.9292 S.3     1  UNL1       -0.0750
      5 C           2.7961   -2.8617    2.9625 C.ar    1  UNL1        0.2105
      6 N           2.5827   -4.1825    2.9949 N.ar    1  UNL1       -0.1443
      7 N           3.3223   -4.5507    4.0569 N.ar    1  UNL1       -0.2446
      8 C           3.9575   -3.4798    4.6327 C.ar    1  UNL1        0.2317
      9 N           4.7491   -3.6131    5.7385 N.pl3   1  UNL1       -0.2054
     10 N           5.3186   -2.5095    6.3143 N.2     1  UNL1       -0.1875
     11 C           6.1304   -2.6696    7.3121 C.2     1  UNL1        0.0542
     12 C           6.7633   -1.4813    7.9494 C.ar    1  UNL1        0.0143
     13 C           5.9845   -0.3209    8.0795 C.ar    1  UNL1       -0.0516
     14 C           6.5107    0.8267    8.6754 C.ar    1  UNL1       -0.0597
     15 C           7.8205    0.8252    9.1481 C.ar    1  UNL1       -0.0419
     16 C           8.6066   -0.3265    9.0251 C.ar    1  UNL1        0.0599
     17 CL         10.2176   -0.2422    9.6568 Cl      1  UNL1       -0.0820
     18 C           8.0861   -1.4887    8.4215 C.ar    1  UNL1        0.0679
     19 CL          9.0827   -2.8934    8.2195 Cl      1  UNL1       -0.0814
     20 N           3.6400   -2.4014    3.9373 N.ar    1  UNL1       -0.1865
     21 N           3.0364    0.8548   -0.8594 N.am    1  UNL1       -0.3105
     22 C           4.4779    0.9449   -0.9485 C.3     1  UNL1        0.0369
     23 C           4.9022    1.9693   -1.9740 C.ar    1  UNL1       -0.0302
     24 C           5.6079    1.5997   -3.1299 C.ar    1  UNL1       -0.0557
     25 C           5.9430    2.5577   -4.0943 C.ar    1  UNL1       -0.0431
     26 C           5.5781    3.8894   -3.9072 C.ar    1  UNL1        0.0410
     27 CL          5.9687    5.0635   -5.1029 Cl      1  UNL1       -0.0835
     28 C           4.8939    4.2754   -2.7579 C.ar    1  UNL1       -0.0431
     29 C           4.5675    3.3213   -1.7914 C.ar    1  UNL1       -0.0557
     30 H           3.6463   -0.2689    1.6116 H       1  UNL1        0.0475
     31 H           3.6464   -1.5534    0.3640 H       1  UNL1        0.0475
     32 H           3.3271   -5.5254    4.3311 H       1  UNL1        0.1919
     33 H           4.9005   -4.5260    6.1660 H       1  UNL1        0.1774
     34 H           6.3807   -3.6627    7.7269 H       1  UNL1        0.0852
     35 H           4.9552   -0.3118    7.7231 H       1  UNL1        0.0624
     36 H           5.8970    1.7200    8.7725 H       1  UNL1        0.0618
     37 H           8.2233    1.7248    9.6115 H       1  UNL1        0.0633
     38 H           2.4775    1.4387   -1.4741 H       1  UNL1        0.1490
     39 H           4.8599   -0.0501   -1.1977 H       1  UNL1        0.0512
     40 H           4.8691    1.2195    0.0363 H       1  UNL1        0.0512
     41 H           5.8954    0.5637   -3.2987 H       1  UNL1        0.0621
     42 H           6.4766    2.2586   -4.9934 H       1  UNL1        0.0632
     43 H           4.6016    5.3118   -2.6117 H       1  UNL1        0.0632
     44 H           4.0326    3.6347   -0.8966 H       1  UNL1        0.0621
@<TRIPOS>BOND
     1     1     2    2
     2     2     3    1
     3     3     4    1
     4     4     5    1
     5     5     6   ar
     6     6     7   ar
     7     7     8   ar
     8     8     9    1
     9     9    10    1
    10    10    11    2
    11    11    12    1
    12    12    13   ar
    13    13    14   ar
    14    14    15   ar
    15    15    16   ar
    16    16    17    1
    17    16    18   ar
    18    12    18   ar
    19    18    19    1
    20     8    20   ar
    21     5    20   ar
    22     2    21   am
    23    21    22    1
    24    22    23    1
    25    23    24   ar
    26    24    25   ar
    27    25    26   ar
    28    26    27    1
    29    26    28   ar
    30    28    29   ar
    31    23    29   ar
    32     3    30    1
    33     3    31    1
    34     7    32    1
    35     9    33    1
    36    11    34    1
    37    13    35    1
    38    14    36    1
    39    15    37    1
    40    21    38    1
    41    22    39    1
    42    22    40    1
    43    24    41    1
    44    25    42    1
    45    28    43    1
    46    29    44    1
