@<TRIPOS>MOLECULE
*****
 46 48 0 0 0
SMALL
GASTEIGER

@<TRIPOS>ATOM
      1 C           0.9466   -0.0180   -0.0706 C.3     1  UNL1       -0.0444
      2 C           2.4787   -0.0096   -0.0607 C.3     1  UNL1        0.0860
      3 S           3.1099    1.6606   -0.4127 S.3     1  UNL1       -0.0737
      4 C           2.5028    2.1951   -1.9492 C.ar    1  UNL1        0.1900
      5 N           2.5663    3.4422   -2.3582 N.ar    1  UNL1       -0.1224
      6 N           2.1240    3.4920   -3.6603 N.ar    1  UNL1       -0.1284
      7 C           1.7668    2.2760   -4.0237 C.ar    1  UNL1        0.1650
      8 C           1.2531    1.8896   -5.3345 C.ar    1  UNL1        0.0542
      9 C           1.9748    2.2004   -6.4985 C.ar    1  UNL1       -0.0483
     10 C           1.4645    1.8833   -7.7644 C.ar    1  UNL1       -0.0609
     11 C           0.2168    1.2721   -7.8833 C.ar    1  UNL1       -0.0590
     12 C          -0.5153    0.9699   -6.7359 C.ar    1  UNL1       -0.0257
     13 C           0.0085    1.2705   -5.4767 C.ar    1  UNL1        0.1340
     14 F          -0.7193    0.9660   -4.3914 F       1  UNL1       -0.2047
     15 N           1.9895    1.4266   -2.9574 N.ar    1  UNL1       -0.3162
     16 C           2.9816   -0.4918    1.3386 C.2     1  UNL1        0.2265
     17 O           2.1972   -0.8339    2.2320 O.2     1  UNL1       -0.2746
     18 N           4.3403   -0.6095    1.5412 N.am    1  UNL1       -0.3058
     19 C           4.9110   -1.0457    2.8319 C.3     1  UNL1        0.0885
     20 C           6.4512   -1.0058    2.7924 C.2     1  UNL1        0.2344
     21 O           7.0255   -0.6473    1.7576 O.2     1  UNL1       -0.2737
     22 N           7.1244   -1.4241    3.9424 N.am    1  UNL1       -0.2818
     23 C           8.5508   -1.4430    4.0071 C.ar    1  UNL1        0.0721
     24 C           9.2964   -0.3775    3.4837 C.ar    1  UNL1       -0.0348
     25 C          10.6945   -0.3942    3.5086 C.ar    1  UNL1       -0.0217
     26 C          11.3594   -1.4851    4.0529 C.ar    1  UNL1        0.1614
     27 F          12.6998   -1.5006    4.0526 F       1  UNL1       -0.2024
     28 C          10.6412   -2.5445    4.5929 C.ar    1  UNL1        0.1952
     29 F          11.2977   -3.5996    5.0995 F       1  UNL1       -0.1994
     30 C           9.2434   -2.5149    4.5912 C.ar    1  UNL1        0.1823
     31 F           8.5639   -3.5607    5.0890 F       1  UNL1       -0.2004
     32 H           0.5227    0.2909   -1.0294 H       1  UNL1        0.0245
     33 H           0.5343    0.6349    0.7081 H       1  UNL1        0.0245
     34 H           0.5714   -1.0290    0.1266 H       1  UNL1        0.0245
     35 H           2.8590   -0.7056   -0.8163 H       1  UNL1        0.0509
     36 H           2.9389    2.7021   -6.4275 H       1  UNL1        0.0625
     37 H           2.0348    2.1289   -8.6587 H       1  UNL1        0.0618
     38 H          -0.1872    1.0423   -8.8672 H       1  UNL1        0.0618
     39 H          -1.4974    0.5132   -6.8153 H       1  UNL1        0.0646
     40 H           1.8310    0.4329   -2.9574 H       1  UNL1        0.1694
     41 H           5.0011   -0.2915    0.8360 H       1  UNL1        0.1492
     42 H           4.5678   -2.0663    3.0308 H       1  UNL1        0.0558
     43 H           4.5444   -0.3784    3.6187 H       1  UNL1        0.0558
     44 H           6.6285   -1.9898    4.6262 H       1  UNL1        0.1549
     45 H           8.7937    0.4918    3.0660 H       1  UNL1        0.0638
     46 H          11.2614    0.4368    3.0992 H       1  UNL1        0.0648
@<TRIPOS>BOND
     1     1     2    1
     2     2     3    1
     3     3     4    1
     4     4     5   ar
     5     5     6   ar
     6     6     7   ar
     7     7     8    1
     8     8     9   ar
     9     9    10   ar
    10    10    11   ar
    11    11    12   ar
    12    12    13   ar
    13     8    13   ar
    14    13    14    1
    15     7    15   ar
    16     4    15   ar
    17     2    16    1
    18    16    17    2
    19    16    18   am
    20    18    19    1
    21    19    20    1
    22    20    21    2
    23    20    22   am
    24    22    23    1
    25    23    24   ar
    26    24    25   ar
    27    25    26   ar
    28    26    27    1
    29    26    28   ar
    30    28    29    1
    31    28    30   ar
    32    23    30   ar
    33    30    31    1
    34     1    32    1
    35     1    33    1
    36     1    34    1
    37     2    35    1
    38     9    36    1
    39    10    37    1
    40    11    38    1
    41    12    39    1
    42    15    40    1
    43    18    41    1
    44    19    42    1
    45    19    43    1
    46    22    44    1
    47    24    45    1
    48    25    46    1
