@<TRIPOS>MOLECULE
*****
 47 50 0 0 0
SMALL
GASTEIGER

@<TRIPOS>ATOM
      1 O           1.0312    0.0183   -0.2798 O.2     1  UNL1       -0.2737
      2 C           2.2588    0.0170   -0.1629 C.2     1  UNL1        0.2365
      3 C           2.9782    0.0397    1.1837 C.3     1  UNL1        0.0513
      4 C           2.0302    0.1691    2.3751 C.ar    1  UNL1       -0.0308
      5 C           1.5219   -1.0081    2.9460 C.ar    1  UNL1       -0.0565
      6 C           0.6309   -0.9537    4.0128 C.ar    1  UNL1       -0.0469
      7 C           0.2287    0.2818    4.5277 C.ar    1  UNL1        0.0256
      8 BR         -0.9730    0.2163    6.0090 Br      1  UNL1       -0.0497
      9 C           0.7054    1.5011    3.9769 C.ar    1  UNL1       -0.0037
     10 C           0.3329    2.7904    4.4462 C.ar    1  UNL1       -0.0530
     11 C           0.8487    3.9605    3.8818 C.ar    1  UNL1       -0.0611
     12 C           1.7312    3.8797    2.8209 C.ar    1  UNL1       -0.0612
     13 C           2.0914    2.6336    2.3232 C.ar    1  UNL1       -0.0537
     14 C           1.6157    1.4301    2.8825 C.ar    1  UNL1       -0.0132
     15 N           3.0408   -0.0098   -1.3051 N.am    1  UNL1       -0.2066
     16 N           4.4069   -0.0391   -1.2767 N.2     1  UNL1       -0.1846
     17 C           5.0435    0.0167   -2.4139 C.2     1  UNL1        0.0878
     18 C           6.4918   -0.0581   -2.4030 C.ar    1  UNL1        0.1480
     19 C           7.2919   -0.8155   -1.5716 C.ar    1  UNL1       -0.0143
     20 C           8.6259   -0.5200   -1.8958 C.ar    1  UNL1       -0.0152
     21 C           8.6053    0.3950   -2.9296 C.ar    1  UNL1        0.1371
     22 C           9.7299    0.9990   -3.6669 C.ar    1  UNL1        0.0360
     23 C           9.9871    2.3822   -3.6041 C.ar    1  UNL1       -0.0433
     24 C          11.1750    2.9311   -4.1361 C.ar    1  UNL1        0.0163
     25 C          12.1274    2.0947   -4.7351 C.ar    1  UNL1        0.2746
     26 N          13.3744    2.6567   -5.2823 N.pl3   1  UNL1        0.0796
     27 O          13.5456    3.8759   -5.1986 O.2     1  UNL1        0.0414
     28 O          14.1824    1.8644   -5.7988 O.co2   1  UNL1       -0.5760
     29 C          11.8971    0.7215   -4.8103 C.ar    1  UNL1        0.0346
     30 C          10.7097    0.1858   -4.2862 C.ar    1  UNL1        0.0580
     31 CL         10.5232   -1.5329   -4.4283 Cl      1  UNL1       -0.0826
     32 O           7.2939    0.6815   -3.2632 O.2     1  UNL1       -0.4538
     33 H           3.7105    0.8538    1.1917 H       1  UNL1        0.0408
     34 H           3.5679   -0.8774    1.2922 H       1  UNL1        0.0408
     35 H           1.8116   -1.9793    2.5509 H       1  UNL1        0.0621
     36 H           0.2517   -1.8823    4.4338 H       1  UNL1        0.0629
     37 H          -0.3716    2.9052    5.2675 H       1  UNL1        0.0624
     38 H           0.5585    4.9340    4.2663 H       1  UNL1        0.0618
     39 H           2.1450    4.7746    2.3657 H       1  UNL1        0.0618
     40 H           2.7644    2.6318    1.4721 H       1  UNL1        0.0624
     41 H           2.5293   -0.0328   -2.1822 H       1  UNL1        0.1772
     42 H           4.5219    0.0867   -3.3856 H       1  UNL1        0.0883
     43 H           6.9327   -1.5087   -0.8240 H       1  UNL1        0.0656
     44 H           9.5158   -0.9375   -1.4473 H       1  UNL1        0.0656
     45 H           9.2901    3.0487   -3.0973 H       1  UNL1        0.0627
     46 H          11.3522    4.0037   -4.0570 H       1  UNL1        0.0685
     47 H          12.6344    0.0566   -5.2590 H       1  UNL1        0.0700
@<TRIPOS>UNITY_ATOM_ATTR
26 1
charge 1
28 1
charge -1
@<TRIPOS>BOND
     1     1     2    2
     2     2     3    1
     3     3     4    1
     4     4     5   ar
     5     5     6   ar
     6     6     7   ar
     7     7     8    1
     8     7     9   ar
     9     9    10   ar
    10    10    11   ar
    11    11    12   ar
    12    12    13   ar
    13    13    14   ar
    14     4    14   ar
    15     9    14   ar
    16     2    15   am
    17    15    16    1
    18    16    17    2
    19    17    18    1
    20    18    19   ar
    21    19    20   ar
    22    20    21   ar
    23    21    22    1
    24    22    23   ar
    25    23    24   ar
    26    24    25   ar
    27    25    26    1
    28    26    27    2
    29    26    28    1
    30    25    29   ar
    31    29    30   ar
    32    22    30   ar
    33    30    31    1
    34    21    32   ar
    35    18    32   ar
    36     3    33    1
    37     3    34    1
    38     5    35    1
    39     6    36    1
    40    10    37    1
    41    11    38    1
    42    12    39    1
    43    13    40    1
    44    15    41    1
    45    17    42    1
    46    19    43    1
    47    20    44    1
    48    23    45    1
    49    24    46    1
    50    29    47    1
