REMARK  13 active torsions:
REMARK  status: ('A' for Active; 'I' for Inactive)
REMARK    1  A    between atoms: C_2  and  N_3 
REMARK    2  A    between atoms: N_3  and  C_4 
REMARK    3  A    between atoms: N_3  and  C_6 
REMARK    4  A    between atoms: C_6  and  C_7 
REMARK    5  A    between atoms: C_7  and  C_8 
REMARK    6  A    between atoms: C_8  and  N_9 
REMARK       I    between atoms: N_9  and  C_10 
REMARK    7  A    between atoms: C_23  and  N_9 
REMARK    8  A    between atoms: C_10  and  C_12 
REMARK    9  A    between atoms: C_15  and  C_16 
REMARK   10  A    between atoms: C_23  and  C_33 
REMARK   11  A    between atoms: C_23  and  C_24 
REMARK       I    between atoms: C_24  and  N_26 
REMARK   12  A    between atoms: N_26  and  C_27 
REMARK   13  A    between atoms: C_36  and  O_37 
ROOT
ATOM      1  N   UNL d   1       9.174  -1.419  -3.897  0.00  0.00    -0.329 N 
ATOM      2  C   UNL d   1      10.242  -2.119  -4.574  0.00  0.00     0.271 C 
ATOM      3  O   UNL d   1      10.897  -1.639  -5.470  0.00  0.00    -0.266 OA
ENDROOT
BRANCH   1   4
ATOM      4  C   UNL d   1       8.886  -1.532  -2.449  0.00  0.00     0.129 C 
BRANCH   4   5
ATOM      5  C   UNL d   1       9.439  -2.749  -1.788  0.00  0.00     0.048 C 
BRANCH   5   6
ATOM      6  C   UNL d   1       9.004  -3.140  -0.417  0.00  0.00     0.236 C 
BRANCH   6   7
ATOM      7  N   UNL d   1       9.573  -4.549  -0.077  0.00  0.00    -0.072 N 
ATOM      8  H   UNL d   1      10.588  -4.518  -0.281  0.00  0.00     0.279 HD
BRANCH   7   9
ATOM      9  C   UNL d   1       9.328  -4.764   1.385  0.00  0.00     0.230 C 
ATOM     10  C   UNL d   1      10.025  -5.986   1.922  0.00  0.00     0.034 C 
ENDBRANCH   7   9
BRANCH   7  11
ATOM     11  C   UNL d   1       8.952  -5.691  -0.884  0.00  0.00     0.230 C 
ATOM     12  C   UNL d   1       9.712  -7.018  -0.805  0.00  0.00     0.034 C 
ENDBRANCH   7  11
ENDBRANCH   6   7
ENDBRANCH   5   6
ENDBRANCH   4   5
ENDBRANCH   1   4
BRANCH   1  13
ATOM     13  C   UNL d   1       8.524  -0.205  -4.547  0.00  0.00     0.212 C 
BRANCH  13  14
ATOM     14  C   UNL d   1       8.698  -0.120  -6.061  0.00  0.00    -0.026 C 
ATOM     15  C   UNL d   1       8.651  -1.292  -6.838  0.00  0.00     0.012 C 
ATOM     16  C   UNL d   1       9.144  -1.296  -8.134  0.00  0.00     0.037 C 
ATOM     17  C   UNL d   1       9.410  -0.085  -8.751  0.00  0.00     0.065 C 
ATOM     18  C   UNL d   1       9.283   1.113  -8.057  0.00  0.00     0.037 C 
ATOM     19  C   UNL d   1       8.952   1.100  -6.700  0.00  0.00     0.012 C 
BRANCH  17  20
ATOM     20  O   UNL d   1       9.782  -0.045 -10.061  0.00  0.00    -0.361 OA
ATOM     21  H   UNL d   1       9.695  -0.943 -10.423  0.00  0.00     0.217 HD
ENDBRANCH  17  20
ENDBRANCH  13  14
BRANCH  13  22
ATOM     22  C   UNL d   1       6.974  -0.160  -4.254  0.00  0.00     0.245 C 
ATOM     23  O   UNL d   1       6.151  -0.454  -5.121  0.00  0.00    -0.271 OA
ATOM     24  N   UNL d   1       6.551   0.166  -2.964  0.00  0.00    -0.354 N 
ATOM     25  H   UNL d   1       7.210   0.406  -2.239  0.00  0.00     0.162 HD
BRANCH  24  26
ATOM     26  C   UNL d   1       5.123   0.162  -2.625  0.00  0.00     0.084 C 
ATOM     27  C   UNL d   1       4.889   0.489  -1.137  0.00  0.00     0.025 C 
ATOM     28  C   UNL d   1       3.401   0.638  -0.802  0.00  0.00     0.002 C 
ATOM     29  C   UNL d   1       2.715   1.648  -1.718  0.00  0.00     0.000 C 
ATOM     30  C   UNL d   1       2.908   1.267  -3.174  0.00  0.00     0.002 C 
ATOM     31  C   UNL d   1       4.380   1.163  -3.514  0.00  0.00     0.025 C 
ENDBRANCH  24  26
ENDBRANCH  13  22
ENDBRANCH   1  13
BRANCH   2  32
ATOM     32  C   UNL d   1      10.603  -3.483  -4.192  0.00  0.00     0.101 C 
ATOM     33  C   UNL d   1       9.867  -4.625  -3.941  0.00  0.00     0.037 C 
ATOM     34  C   UNL d   1      10.756  -5.559  -3.387  0.00  0.00     0.033 C 
ATOM     35  C   UNL d   1      12.033  -5.090  -3.506  0.00  0.00     0.043 C 
ATOM     36  N   UNL d   1      11.931  -3.891  -4.165  0.00  0.00    -0.351 N 
ATOM     37  H   UNL d   1      12.687  -3.363  -4.581  0.00  0.00     0.166 HD
BRANCH  35  38
ATOM     38  C   UNL d   1      13.226  -5.881  -3.303  0.00  0.00    -0.009 C 
ATOM     39  C   UNL d   1      14.377  -5.371  -2.719  0.00  0.00     0.013 C 
ATOM     40  C   UNL d   1      15.529  -6.154  -2.719  0.00  0.00     0.001 C 
ATOM     41  C   UNL d   1      15.496  -7.471  -3.192  0.00  0.00     0.000 C 
ATOM     42  C   UNL d   1      14.317  -8.014  -3.685  0.00  0.00     0.001 C 
ATOM     43  C   UNL d   1      13.186  -7.219  -3.737  0.00  0.00     0.013 C 
ENDBRANCH  35  38
ENDBRANCH   2  32
TORSDOF 13
