REMARK  9 active torsions:
REMARK  status: ('A' for Active; 'I' for Inactive)
REMARK    1  A    between atoms: C_2  and  N_3 
REMARK    2  A    between atoms: C_2  and  C_31 
REMARK       I    between atoms: N_3  and  C_4 
REMARK    3  A    between atoms: C_4  and  C_6 
REMARK    4  A    between atoms: C_11  and  N_12 
REMARK       I    between atoms: N_12  and  C_13 
REMARK    5  A    between atoms: C_13  and  C_15 
REMARK    6  A    between atoms: C_15  and  O_16 
REMARK    7  A    between atoms: O_16  and  C_17 
REMARK    8  A    between atoms: C_17  and  C_19 
REMARK    9  A    between atoms: C_19  and  C_20 
ROOT
ATOM      1  N   UNL d   1       5.342  -0.671   2.732  0.00  0.00    -0.324 N 
ATOM      2  C   UNL d   1       5.215  -0.006   1.479  0.00  0.00     0.246 C 
ATOM      3  O   UNL d   1       4.670   1.097   1.433  0.00  0.00    -0.271 OA
ATOM      4  H   UNL d   1       6.277  -0.969   2.992  0.00  0.00     0.169 HD
ENDROOT
BRANCH   1   5
ATOM      5  C   UNL d   1       4.483  -0.405   3.895  0.00  0.00     0.050 A 
ATOM      6  C   UNL d   1       5.021  -0.555   5.207  0.00  0.00     0.030 A 
ATOM      7  C   UNL d   1       4.245  -0.342   6.370  0.00  0.00     0.002 A 
ATOM      8  C   UNL d   1       2.917   0.044   6.256  0.00  0.00     0.001 A 
ATOM      9  C   UNL d   1       2.346   0.138   4.987  0.00  0.00     0.019 A 
ATOM     10  C   UNL d   1       3.119  -0.047   3.812  0.00  0.00     0.058 A 
BRANCH  10  11
ATOM     11  C   UNL d   1       2.437   0.327   2.547  0.00  0.00     0.254 C 
ATOM     12  N   UNL d   1       2.542  -0.540   1.464  0.00  0.00    -0.349 N 
ATOM     13  H   UNL d   1       3.161  -1.330   1.556  0.00  0.00     0.163 HD
ATOM     14  O   UNL d   1       1.860   1.410   2.514  0.00  0.00    -0.268 OA
BRANCH  12  15
ATOM     15  C   UNL d   1       2.279  -0.046   0.098  0.00  0.00     0.114 C 
ATOM     16  C   UNL d   1       0.794   0.151  -0.025  0.00  0.00     0.037 C 
BRANCH  15  17
ATOM     17  C   UNL d   1       2.666  -1.073  -0.960  0.00  0.00    -0.036 C 
ATOM     18  C   UNL d   1       2.322  -2.418  -0.838  0.00  0.00     0.009 C 
ATOM     19  C   UNL d   1       2.760  -3.439  -1.710  0.00  0.00     0.001 C 
ATOM     20  C   UNL d   1       3.546  -3.172  -2.766  0.00  0.00     0.000 C 
ATOM     21  C   UNL d   1       3.950  -1.895  -2.779  0.00  0.00     0.001 C 
ATOM     22  C   UNL d   1       3.386  -0.784  -2.082  0.00  0.00     0.009 C 
ENDBRANCH  15  17
ENDBRANCH  12  15
ENDBRANCH  10  11
ENDBRANCH   1   5
BRANCH   2  23
ATOM     23  C   UNL d   1       5.927  -0.579   0.106  0.00  0.00     0.281 C 
BRANCH  23  24
ATOM     24  O   UNL d   1       5.597  -0.121  -1.429  0.00  0.00    -0.312 OA
BRANCH  24  25
ATOM     25  C   UNL d   1       6.252  -0.555  -2.708  0.00  0.00     0.262 C 
ATOM     26  O   UNL d   1       7.342  -1.138  -2.526  0.00  0.00    -0.265 OA
BRANCH  25  27
ATOM     27  C   UNL d   1       5.512  -0.424  -4.437  0.00  0.00     0.153 C 
BRANCH  27  28
ATOM     28  C   UNL d   1       5.952  -1.378  -6.182  0.00  0.00     0.137 C 
ATOM     29  N   UNL d   1       4.906  -0.586  -6.380  0.00  0.00    -0.216 NA
ATOM     30  N   UNL d   1       5.351   0.470  -7.059  0.00  0.00    -0.150 NA
ATOM     31  C   UNL d   1       4.792   0.205  -8.248  0.00  0.00     0.251 C 
ATOM     32  H   UNL d   1       6.396   0.444  -7.051  0.00  0.00     0.158 HD
ATOM     33  O   UNL d   1       3.636   0.002  -8.586  0.00  0.00    -0.272 OA
ATOM     34  C   UNL d   1       5.814  -0.464  -8.932  0.00  0.00     0.037 C 
ATOM     35  C   UNL d   1       5.842   0.094 -10.335  0.00  0.00     0.017 C 
ATOM     36  C   UNL d   1       6.429  -1.451  -8.069  0.00  0.00    -0.008 C 
ATOM     37  C   UNL d   1       6.538  -0.402 -11.388  0.00  0.00     0.001 C 
ATOM     38  C   UNL d   1       7.221  -1.503 -10.936  0.00  0.00     0.001 C 
ATOM     39  C   UNL d   1       7.161  -2.059  -9.355  0.00  0.00     0.011 C 
ENDBRANCH  27  28
ENDBRANCH  25  27
ENDBRANCH  24  25
ENDBRANCH  23  24
ENDBRANCH   2  23
TORSDOF 9
