REMARK  11 active torsions:
REMARK  status: ('A' for Active; 'I' for Inactive)
REMARK    1  A    between atoms: C_2  and  O_3 
REMARK    2  A    between atoms: O_3  and  C_4 
REMARK    3  A    between atoms: C_10  and  C_11 
REMARK       I    between atoms: C_11  and  N_13 
REMARK    4  A    between atoms: N_13  and  C_14 
REMARK    5  A    between atoms: C_14  and  C_15 
REMARK    6  A    between atoms: C_15  and  C_16 
REMARK    7  A    between atoms: C_19  and  O_20 
REMARK    8  A    between atoms: C_22  and  O_23 
REMARK    9  A    between atoms: C_26  and  N_27 
REMARK   10  A    between atoms: N_27  and  N_28 
REMARK       I    between atoms: N_28  and  C_29 
REMARK   11  A    between atoms: C_29  and  C_31 
ROOT
ATOM      1  C   UNL d   1       4.399   1.486   0.145  0.00  0.00     0.103 C 
ATOM      2  C   UNL d   1       5.251   0.842  -0.744  0.00  0.00     0.040 C 
ATOM      3  C   UNL d   1       6.597   1.212  -0.812  0.00  0.00     0.004 C 
ATOM      4  C   UNL d   1       7.064   2.316  -0.097  0.00  0.00     0.014 C 
ATOM      5  C   UNL d   1       6.257   2.888   0.882  0.00  0.00     0.002 A 
ATOM      6  C   UNL d   1       6.774   3.871   1.831  0.00  0.00     0.035 A 
ATOM      7  C   UNL d   1       6.024   4.311   2.860  0.00  0.00     0.085 A 
ATOM      8  C   UNL d   1       4.649   3.790   2.937  0.00  0.00     0.178 A 
ATOM      9  O   UNL d   1       4.112   2.932   2.024  0.00  0.00    -0.288 OA
ATOM     10  C   UNL d   1       4.939   2.451   0.997  0.00  0.00     0.121 A 
ENDROOT
BRANCH   7  11
ATOM     11  C   UNL d   1       6.680   5.281   3.827  0.00  0.00     0.256 C 
ATOM     12  O   UNL d   1       7.846   5.624   3.650  0.00  0.00    -0.268 OA
ATOM     13  N   UNL d   1       5.965   5.770   4.903  0.00  0.00    -0.356 N 
ATOM     14  H   UNL d   1       5.028   5.692   5.199  0.00  0.00     0.162 HD
BRANCH  13  15
ATOM     15  C   UNL d   1       6.512   6.714   5.857  0.00  0.00     0.127 C 
BRANCH  15  16
ATOM     16  C   UNL d   1       5.418   7.011   6.905  0.00  0.00     0.058 C 
BRANCH  16  17
ATOM     17  C   UNL d   1       5.880   8.006   7.909  0.00  0.00    -0.054 A 
ATOM     18  C   UNL d   1       5.446   9.322   7.807  0.00  0.00     0.010 A 
ATOM     19  C   UNL d   1       5.904  10.270   8.709  0.00  0.00     0.040 A 
ATOM     20  C   UNL d   1       6.911   9.947   9.625  0.00  0.00     0.101 A 
ATOM     21  C   UNL d   1       7.361   8.615   9.727  0.00  0.00     0.102 A 
ATOM     22  C   UNL d   1       6.781   7.639   8.914  0.00  0.00     0.046 A 
BRANCH  20  23
ATOM     23  O   UNL d   1       7.508  10.873  10.444  0.00  0.00    -0.353 OA
ATOM     24  C   UNL d   1       7.073  12.222  10.299  0.00  0.00     0.210 C 
ENDBRANCH  20  23
BRANCH  21  25
ATOM     25  O   UNL d   1       8.366   8.359  10.625  0.00  0.00    -0.353 OA
ATOM     26  C   UNL d   1       8.864   7.027  10.685  0.00  0.00     0.210 C 
ENDBRANCH  21  25
ENDBRANCH  16  17
ENDBRANCH  15  16
ENDBRANCH  13  15
ENDBRANCH   7  11
BRANCH   8  27
ATOM     27  N   UNL d   1       3.831   4.101   3.852  0.00  0.00    -0.276 N 
ATOM     28  H   UNL d   1       4.168   4.724   4.558  0.00  0.00     0.189 HD
BRANCH  27  29
ATOM     29  N   UNL d   1       2.530   3.734   4.073  0.00  0.00    -0.262 N 
ATOM     30  C   UNL d   1       1.919   4.326   5.175  0.00  0.00     0.293 C 
ATOM     31  O   UNL d   1       2.538   5.184   5.823  0.00  0.00    -0.264 OA
ATOM     32  H   UNL d   1       2.081   3.069   3.452  0.00  0.00     0.190 HD
BRANCH  30  33
ATOM     33  C   UNL d   1       0.626   3.787   5.464  0.00  0.00     0.144 A 
ATOM     34  C   UNL d   1       0.198   2.481   5.345  0.00  0.00     0.045 A 
ATOM     35  C   UNL d   1      -1.148   2.457   5.753  0.00  0.00     0.027 A 
ATOM     36  C   UNL d   1      -1.474   3.753   6.079  0.00  0.00     0.143 A 
ATOM     37  O   UNL d   1      -0.393   4.571   5.920  0.00  0.00    -0.317 OA
ENDBRANCH  30  33
ENDBRANCH  27  29
ENDBRANCH   8  27
BRANCH   1  38
ATOM     38  O   UNL d   1       3.048   1.289   0.223  0.00  0.00    -0.349 OA
BRANCH  38  39
ATOM     39  C   UNL d   1       2.612  -0.057   0.034  0.00  0.00     0.171 C 
ATOM     40  C   UNL d   1       1.095  -0.057   0.032  0.00  0.00     0.034 C 
ENDBRANCH  38  39
ENDBRANCH   1  38
TORSDOF 11
