@<TRIPOS>MOLECULE
*****
 59 62 0 0 0
SMALL
GASTEIGER

@<TRIPOS>ATOM
      1 C           1.0938    0.1059   -0.0317 C.3     1  UNL1        0.0125
      2 C           2.5877    0.0897    0.0668 C.2     1  UNL1        0.2141
      3 O           3.1242   -0.3922    1.0635 O.2     1  UNL1       -0.2758
      4 N           3.2529    0.6886   -0.9983 N.am    1  UNL1       -0.2857
      5 C           4.6519    0.6417   -1.1019 C.ar    1  UNL1        0.0335
      6 C           5.4298    1.6753   -1.6409 C.ar    1  UNL1       -0.0387
      7 C           6.8398    1.5231   -1.7545 C.ar    1  UNL1       -0.0387
      8 C           7.4442    0.3277   -1.3150 C.ar    1  UNL1        0.0335
      9 N           8.8466    0.0683   -1.3024 N.am    1  UNL1       -0.2848
     10 C           9.4032   -1.1625   -0.7853 C.2     1  UNL1        0.2274
     11 O           8.7605   -2.1034   -0.3424 O.2     1  UNL1       -0.2746
     12 C          10.8899   -1.3271   -0.6335 C.3     1  UNL1        0.0766
     13 S          11.5876   -2.7220    0.3243 S.3     1  UNL1       -0.0932
     14 C          13.3804   -2.3505    0.2892 C.ar    1  UNL1        0.1379
     15 N          14.2191   -2.7714    1.2852 N.ar    1  UNL1       -0.2355
     16 C          15.6207   -2.8863    0.9445 C.ar    1  UNL1        0.0906
     17 C          16.6161   -1.8727    0.5427 C.ar    1  UNL1       -0.0342
     18 C          17.9190   -2.2324   -0.0029 C.ar    1  UNL1       -0.0596
     19 C          18.3322   -3.5077    0.1852 C.ar    1  UNL1       -0.0596
     20 C          17.2369   -4.3269    0.3677 C.ar    1  UNL1       -0.0342
     21 C          15.8452   -3.6806    0.0753 C.ar    1  UNL1        0.0914
     22 N          15.1252   -2.9473   -1.1084 N.ar    1  UNL1       -0.2278
     23 C          14.0032   -1.9795   -0.8637 C.ar    1  UNL1        0.1541
     24 N          13.8290   -0.4579   -1.1743 N.pl3   1  UNL1       -0.3131
     25 C          12.9358    0.5231   -0.3646 C.3     1  UNL1        0.0138
     26 C          11.7656    1.1762   -1.2816 C.3     1  UNL1       -0.0345
     27 C          12.1139    1.8315   -2.5994 C.3     1  UNL1       -0.0410
     28 C          10.8483    1.9285   -3.5579 C.3     1  UNL1       -0.0623
     29 C          13.2133    0.9281   -3.2256 C.3     1  UNL1       -0.0345
     30 C          14.3593    0.3984   -2.2742 C.3     1  UNL1        0.0138
     31 C           6.6151   -0.6614   -0.8320 C.ar    1  UNL1       -0.0387
     32 C           5.2660   -0.5200   -0.7040 C.ar    1  UNL1       -0.0387
     33 H           0.6909   -0.3265    0.8915 H       1  UNL1        0.0323
     34 H           0.7543   -0.5019   -0.8726 H       1  UNL1        0.0323
     35 H           0.7361    1.1327   -0.1165 H       1  UNL1        0.0323
     36 H           2.7432    1.1741   -1.7221 H       1  UNL1        0.1548
     37 H           4.9628    2.6226   -1.9039 H       1  UNL1        0.0637
     38 H           7.4074    2.3463   -2.1890 H       1  UNL1        0.0637
     39 H           9.3817    0.8773   -1.5954 H       1  UNL1        0.1548
     40 H          11.0228   -0.5141    0.0647 H       1  UNL1        0.0475
     41 H          11.3955   -1.3138   -1.6045 H       1  UNL1        0.0475
     42 H          16.2206   -0.9641    0.0900 H       1  UNL1        0.0639
     43 H          18.4657   -1.5879   -0.6899 H       1  UNL1        0.0618
     44 H          19.3871   -3.7938    0.1766 H       1  UNL1        0.0618
     45 H          17.4613   -5.2270    0.9764 H       1  UNL1        0.0639
     46 H          13.4898    1.4046   -0.0105 H       1  UNL1        0.0464
     47 H          12.6142    0.1013    0.5980 H       1  UNL1        0.0464
     48 H          11.0650    1.7776   -0.6842 H       1  UNL1        0.0283
     49 H          11.1627    0.4229   -1.7475 H       1  UNL1        0.0283
     50 H          12.4242    2.8608   -2.3936 H       1  UNL1        0.0299
     51 H          10.4914    0.9425   -3.8960 H       1  UNL1        0.0232
     52 H          11.0665    2.5058   -4.4644 H       1  UNL1        0.0232
     53 H           9.9805    2.4129   -3.0834 H       1  UNL1        0.0232
     54 H          13.6449    1.5266   -4.0305 H       1  UNL1        0.0283
     55 H          12.7303    0.0515   -3.6716 H       1  UNL1        0.0283
     56 H          14.7459    1.3297   -1.8134 H       1  UNL1        0.0464
     57 H          15.1945   -0.0326   -2.8181 H       1  UNL1        0.0464
     58 H           6.9426   -1.6293   -0.5154 H       1  UNL1        0.0637
     59 H           4.7419   -1.3819   -0.3076 H       1  UNL1        0.0637
@<TRIPOS>BOND
     1     1     2    1
     2     2     3    2
     3     2     4   am
     4     4     5    1
     5     5     6   ar
     6     6     7   ar
     7     7     8   ar
     8     8     9    1
     9     9    10   am
    10    10    11    2
    11    10    12    1
    12    12    13    1
    13    13    14    1
    14    14    15   ar
    15    15    16   ar
    16    16    17   ar
    17    17    18   ar
    18    18    19   ar
    19    19    20   ar
    20    20    21   ar
    21    16    21   ar
    22    21    22   ar
    23    22    23   ar
    24    14    23   ar
    25    23    24    1
    26    24    25    1
    27    25    26    1
    28    26    27    1
    29    27    28    1
    30    27    29    1
    31    29    30    1
    32    24    30    1
    33     8    31   ar
    34    31    32   ar
    35     5    32   ar
    36     1    33    1
    37     1    34    1
    38     1    35    1
    39     4    36    1
    40     6    37    1
    41     7    38    1
    42     9    39    1
    43    12    40    1
    44    12    41    1
    45    17    42    1
    46    18    43    1
    47    19    44    1
    48    20    45    1
    49    25    46    1
    50    25    47    1
    51    26    48    1
    52    26    49    1
    53    27    50    1
    54    28    51    1
    55    28    52    1
    56    28    53    1
    57    29    54    1
    58    29    55    1
    59    30    56    1
    60    30    57    1
    61    31    58    1
    62    32    59    1
