@<TRIPOS>MOLECULE
*****
 63 68 0 0 0
SMALL
GASTEIGER

@<TRIPOS>ATOM
      1 O           0.9490    0.1518    0.0910 O.2     1  UNL1       -0.2701
      2 C           2.1406    0.0903    0.0846 C.2     1  UNL1        0.2459
      3 N           2.8570   -1.0928   -0.0331 N.am    1  UNL1       -0.3110
      4 C           2.2084   -2.3788   -0.0194 C.3     1  UNL1        0.0159
      5 C           3.1454   -3.5930   -0.0274 C.3     1  UNL1       -0.0120
      6 C           2.4077   -4.9149   -0.0168 C.ar    1  UNL1       -0.0459
      7 C           1.0315   -4.9874    0.2470 C.ar    1  UNL1       -0.0585
      8 C           0.4021   -6.2093    0.4403 C.ar    1  UNL1       -0.0615
      9 C           1.1119   -7.3860    0.2470 C.ar    1  UNL1       -0.0617
     10 C           2.4714   -7.3384   -0.0602 C.ar    1  UNL1       -0.0615
     11 C           3.1230   -6.1088   -0.1776 C.ar    1  UNL1       -0.0585
     12 C           3.0037    1.3180    0.2058 C.ar    1  UNL1        0.0578
     13 C           2.5422    2.4166    0.9157 C.ar    1  UNL1       -0.0478
     14 C           3.3579    3.5485    1.0306 C.ar    1  UNL1       -0.0607
     15 C           4.4280    3.7256    0.1631 C.ar    1  UNL1       -0.0562
     16 C           4.8199    2.6615   -0.6283 C.ar    1  UNL1       -0.0186
     17 C           4.2895    1.3984   -0.3258 C.ar    1  UNL1        0.0436
     18 N           5.3007    0.4287    0.1414 N.pl3   1  UNL1       -0.3357
     19 C           6.3087    0.2996   -0.9299 C.3     1  UNL1        0.0538
     20 C           7.4593   -0.6775   -0.5986 C.ar    1  UNL1        0.0220
     21 C           7.1581   -1.9182    0.0349 C.ar    1  UNL1        0.1224
     22 O           5.9353   -2.3463    0.4627 O.3     1  UNL1       -0.5064
     23 C           8.1225   -2.8915    0.1741 C.ar    1  UNL1       -0.0193
     24 C           9.3670   -2.6899   -0.3959 C.ar    1  UNL1       -0.0506
     25 C           9.7433   -1.4625   -0.9684 C.ar    1  UNL1       -0.0173
     26 C          11.0958   -1.2184   -1.2679 C.ar    1  UNL1       -0.0540
     27 C          11.6148    0.0129   -1.6451 C.ar    1  UNL1       -0.0612
     28 C          10.8594    0.4842   -2.6204 C.ar    1  UNL1       -0.0612
     29 C           9.6129    0.6446   -1.9814 C.ar    1  UNL1       -0.0536
     30 C           8.8644   -0.4293   -1.1766 C.ar    1  UNL1       -0.0095
     31 C           6.8753    1.6250   -1.4587 C.3     1  UNL1       -0.0047
     32 C           7.3367    1.3656   -2.9280 C.3     1  UNL1       -0.0291
     33 C           6.2660    1.8679   -3.7786 C.2     1  UNL1       -0.0870
     34 C           5.4883    2.6802   -3.0668 C.2     1  UNL1       -0.0801
     35 C           5.9175    2.7857   -1.6214 C.3     1  UNL1        0.0090
     36 H           3.8475   -0.9908   -0.0818 H       1  UNL1        0.1490
     37 H           1.5463   -2.4206   -0.8902 H       1  UNL1        0.0465
     38 H           1.5882   -2.4002    0.8847 H       1  UNL1        0.0465
     39 H           3.7734   -3.5717    0.8730 H       1  UNL1        0.0328
     40 H           3.8097   -3.5511   -0.8995 H       1  UNL1        0.0328
     41 H           0.4148   -4.0961    0.3212 H       1  UNL1        0.0620
     42 H          -0.6379   -6.2278    0.7520 H       1  UNL1        0.0618
     43 H           0.5985   -8.3380    0.3329 H       1  UNL1        0.0618
     44 H           3.0288   -8.2625   -0.1833 H       1  UNL1        0.0618
     45 H           4.1903   -6.0873   -0.3901 H       1  UNL1        0.0620
     46 H           1.6056    2.3508    1.4562 H       1  UNL1        0.0626
     47 H           3.1571    4.2947    1.7897 H       1  UNL1        0.0618
     48 H           4.9999    4.6504    0.1594 H       1  UNL1        0.0621
     49 H           5.6754    0.8389    1.0161 H       1  UNL1        0.1467
     50 H           5.7283   -0.1827   -1.7221 H       1  UNL1        0.0552
     51 H           5.3068   -1.6266    0.3480 H       1  UNL1        0.2921
     52 H           7.9017   -3.8115    0.7133 H       1  UNL1        0.0654
     53 H          10.0896   -3.4968   -0.3387 H       1  UNL1        0.0625
     54 H          11.7505   -2.0659   -1.3972 H       1  UNL1        0.0624
     55 H          11.5884    0.9714   -1.0332 H       1  UNL1        0.0618
     56 H          11.5687    1.1059   -3.1890 H       1  UNL1        0.0618
     57 H           9.3392    1.6770   -1.7355 H       1  UNL1        0.0624
     58 H           7.6319    1.9568   -0.7269 H       1  UNL1        0.0334
     59 H           7.4960    0.3027   -3.1497 H       1  UNL1        0.0311
     60 H           8.2049    1.9573   -3.2332 H       1  UNL1        0.0311
     61 H           6.2499    1.6303   -4.8317 H       1  UNL1        0.0569
     62 H           4.6795    3.2288   -3.5149 H       1  UNL1        0.0575
     63 H           6.4691    3.7283   -1.4841 H       1  UNL1        0.0395
@<TRIPOS>BOND
     1     1     2    2
     2     2     3   am
     3     3     4    1
     4     4     5    1
     5     5     6    1
     6     6     7   ar
     7     7     8   ar
     8     8     9   ar
     9     9    10   ar
    10    10    11   ar
    11     6    11   ar
    12    12    13   ar
    13    13    14   ar
    14    14    15   ar
    15    15    16   ar
    16    16    17   ar
    17    12    17   ar
    18    17    18    1
    19    18    19    1
    20    20    21   ar
    21    21    22    1
    22    21    23   ar
    23    23    24   ar
    24    24    25   ar
    25    25    26   ar
    26    26    27   ar
    27    27    28   ar
    28    28    29   ar
    29    29    30   ar
    30    20    30   ar
    31    25    30   ar
    32    19    31    1
    33    31    32    1
    34    32    33    1
    35    33    34    2
    36    34    35    1
    37    16    35    1
    38    31    35    1
    39     2    12    1
    40    19    20    1
    41     3    36    1
    42     4    37    1
    43     4    38    1
    44     5    39    1
    45     5    40    1
    46     7    41    1
    47     8    42    1
    48     9    43    1
    49    10    44    1
    50    11    45    1
    51    13    46    1
    52    14    47    1
    53    15    48    1
    54    18    49    1
    55    19    50    1
    56    22    51    1
    57    23    52    1
    58    24    53    1
    59    26    54    1
    60    27    55    1
    61    28    56    1
    62    29    57    1
    63    31    58    1
    64    32    59    1
    65    32    60    1
    66    33    61    1
    67    34    62    1
    68    35    63    1
