@<TRIPOS>MOLECULE
*****
 38 39 0 0 0
SMALL
GASTEIGER

@<TRIPOS>ATOM
      1 O           1.0112    0.0472    0.0357 O.2     1  UNL1       -0.2525
      2 C           2.2375    0.0547   -0.0565 C.2     1  UNL1        0.3053
      3 N           2.8934    0.0972   -1.2595 N.am    1  UNL1       -0.2991
      4 C           2.2039    0.1962   -2.5369 C.3     1  UNL1        0.0145
      5 C           3.1736    0.2676   -3.7248 C.3     1  UNL1       -0.0217
      6 C           2.4405    0.3530   -5.0687 C.3     1  UNL1        0.0133
      7 N           3.3446    0.3924   -6.2168 N.am    1  UNL1       -0.3113
      8 C           2.8537    0.5313   -7.5046 C.2     1  UNL1        0.2442
      9 O           1.6519    0.6039   -7.7630 O.2     1  UNL1       -0.2702
     10 C           3.8475    0.6178   -8.6128 C.ar    1  UNL1        0.0401
     11 C           4.9599   -0.2311   -8.6647 C.ar    1  UNL1       -0.0494
     12 C           5.8518   -0.1534   -9.7436 C.ar    1  UNL1       -0.0576
     13 C           5.6386    0.7660  -10.7749 C.ar    1  UNL1       -0.0201
     14 C           4.5218    1.5948  -10.7258 C.ar    1  UNL1        0.1176
     15 O           4.2606    2.5008  -11.7127 O.3     1  UNL1       -0.5067
     16 C           3.6254    1.5233   -9.6600 C.ar    1  UNL1       -0.0081
     17 N           3.0036   -0.1082    1.0640 N.am    1  UNL1       -0.2485
     18 C           4.3624    0.0036    1.0950 C.ar    1  UNL1        0.1655
     19 N           5.1051    0.7366    0.3019 N.ar    1  UNL1       -0.2330
     20 C           6.4297    0.5755    0.6510 C.ar    1  UNL1        0.0368
     21 C           6.6802   -0.3988    1.5948 C.ar    1  UNL1       -0.0030
     22 S           5.1841   -0.9683    2.2304 S.2     1  UNL1       -0.0605
     23 H           3.9002    0.2228   -1.2209 H       1  UNL1        0.1502
     24 H           1.5623    1.0835   -2.5046 H       1  UNL1        0.0463
     25 H           1.5517   -0.6804   -2.6273 H       1  UNL1        0.0463
     26 H           3.8290   -0.6121   -3.7192 H       1  UNL1        0.0295
     27 H           3.8292    1.1399   -3.6085 H       1  UNL1        0.0295
     28 H           1.8085    1.2486   -5.1028 H       1  UNL1        0.0462
     29 H           1.7851   -0.5155   -5.2019 H       1  UNL1        0.0462
     30 H           4.3422    0.4575   -6.0598 H       1  UNL1        0.1490
     31 H           5.1187   -0.9813   -7.8955 H       1  UNL1        0.0625
     32 H           6.7089   -0.8222   -9.7871 H       1  UNL1        0.0619
     33 H           6.3418    0.8131  -11.6023 H       1  UNL1        0.0654
     34 H           4.9345    2.4299  -12.4087 H       1  UNL1        0.2921
     35 H           2.7538    2.1731   -9.6505 H       1  UNL1        0.0661
     36 H           2.5144   -0.3537    1.9118 H       1  UNL1        0.1583
     37 H           7.1823    1.1747    0.1536 H       1  UNL1        0.0835
     38 H           7.6380   -0.7549    1.9493 H       1  UNL1        0.0709
@<TRIPOS>BOND
     1     1     2    2
     2     2     3   am
     3     3     4    1
     4     4     5    1
     5     5     6    1
     6     6     7    1
     7     7     8   am
     8     8     9    2
     9     8    10    1
    10    10    11   ar
    11    11    12   ar
    12    12    13   ar
    13    13    14   ar
    14    14    15    1
    15    14    16   ar
    16    10    16   ar
    17     2    17   am
    18    17    18    1
    19    18    19   ar
    20    19    20   ar
    21    20    21   ar
    22    21    22   ar
    23    18    22   ar
    24     3    23    1
    25     4    24    1
    26     4    25    1
    27     5    26    1
    28     5    27    1
    29     6    28    1
    30     6    29    1
    31     7    30    1
    32    11    31    1
    33    12    32    1
    34    13    33    1
    35    15    34    1
    36    16    35    1
    37    17    36    1
    38    20    37    1
    39    21    38    1
