@<TRIPOS>MOLECULE
*****
 38 38 0 0 0
SMALL
GASTEIGER

@<TRIPOS>ATOM
      1 C           9.2334    7.8705   -5.0547 C.3     1  UNL1       -0.0468
      2 C           8.4327    7.8317   -3.7449 C.3     1  UNL1        0.0190
      3 C           6.9592    7.6106   -4.0970 C.3     1  UNL1       -0.0468
      4 N           8.9210    6.8060   -2.8061 N.am    1  UNL1       -0.2959
      5 C           8.3915    6.6592   -1.5405 C.2     1  UNL1        0.3162
      6 O           7.4895    7.3705   -1.0908 O.2     1  UNL1       -0.2513
      7 N           8.9161    5.6179   -0.8007 N.am    1  UNL1       -0.2181
      8 N           8.3509    5.3433    0.4790 N.am    1  UNL1       -0.2301
      9 C           8.8559    4.3125    1.2543 C.2     1  UNL1        0.2696
     10 O           9.7368    3.5549    0.8370 O.2     1  UNL1       -0.2702
     11 C           8.3252    4.2215    2.7166 C.3     1  UNL1        0.1741
     12 C           6.8187    3.9403    2.6523 C.3     1  UNL1       -0.0190
     13 O           8.5267    5.3449    3.5889 O.3     1  UNL1       -0.4798
     14 C           9.8294    5.6747    3.8778 C.ar    1  UNL1        0.1230
     15 C          10.8257    5.7811    2.9065 C.ar    1  UNL1       -0.0198
     16 C          12.1219    6.1787    3.2221 C.ar    1  UNL1       -0.0569
     17 C          12.4391    6.5115    4.5284 C.ar    1  UNL1       -0.0432
     18 C          11.4501    6.4410    5.5088 C.ar    1  UNL1        0.0444
     19 CL         11.8597    6.8648    7.1271 Cl      1  UNL1       -0.0834
     20 C          10.1450    6.0357    5.1915 C.ar    1  UNL1       -0.0016
     21 H           8.8482    8.6540   -5.7219 H       1  UNL1        0.0247
     22 H           9.1616    6.9202   -5.5959 H       1  UNL1        0.0247
     23 H          10.2929    8.0800   -4.8804 H       1  UNL1        0.0247
     24 H           8.5380    8.8044   -3.2480 H       1  UNL1        0.0493
     25 H           6.8204    6.6423   -4.5896 H       1  UNL1        0.0247
     26 H           6.5931    8.3938   -4.7699 H       1  UNL1        0.0247
     27 H           6.3219    7.6242   -3.2099 H       1  UNL1        0.0247
     28 H           9.7000    6.2277   -3.0864 H       1  UNL1        0.1505
     29 H           9.6929    5.0338   -1.0948 H       1  UNL1        0.1744
     30 H           7.6684    6.0211    0.8203 H       1  UNL1        0.1729
     31 H           8.7861    3.3412    3.1894 H       1  UNL1        0.0829
     32 H           6.2774    4.7851    2.2132 H       1  UNL1        0.0270
     33 H           6.3937    3.7802    3.6495 H       1  UNL1        0.0270
     34 H           6.6126    3.0536    2.0418 H       1  UNL1        0.0270
     35 H          10.6446    5.6056    1.8587 H       1  UNL1        0.0654
     36 H          12.8640    6.2385    2.4306 H       1  UNL1        0.0619
     37 H          13.4482    6.8355    4.7648 H       1  UNL1        0.0632
     38 H           9.3868    6.0083    5.9697 H       1  UNL1        0.0669
@<TRIPOS>BOND
     1     1     2    1
     2     2     3    1
     3     2     4    1
     4     4     5   am
     5     5     6    2
     6     5     7   am
     7     7     8    1
     8     8     9   am
     9     9    10    2
    10    11    13    1
    11    13    14    1
    12    14    15   ar
    13    15    16   ar
    14    16    17   ar
    15    17    18   ar
    16    18    19    1
    17    18    20   ar
    18    14    20   ar
    19    11    12    1
    20    11     9    1
    21     1    21    1
    22     1    22    1
    23     1    23    1
    24     2    24    1
    25     3    25    1
    26     3    26    1
    27     3    27    1
    28     4    28    1
    29     7    29    1
    30     8    30    1
    31    11    31    1
    32    12    32    1
    33    12    33    1
    34    12    34    1
    35    15    35    1
    36    16    36    1
    37    17    37    1
    38    20    38    1
