REMARK  8 active torsions:
REMARK  status: ('A' for Active; 'I' for Inactive)
REMARK    1  A    between atoms: C_8  and  N_9 
REMARK       I    between atoms: N_9  and  C_10 
REMARK    2  A    between atoms: C_10  and  C_12 
REMARK    3  A    between atoms: C_12  and  S_13 
REMARK    4  A    between atoms: S_13  and  C_14 
REMARK    5  A    between atoms: C_17  and  C_18 
REMARK    6  A    between atoms: N_19  and  N_20 
REMARK       I    between atoms: N_20  and  C_21 
REMARK    7  A    between atoms: C_21  and  C_23 
REMARK    8  A    between atoms: C_32  and  O_33 
ROOT
ATOM      1  C   UNL d   1       2.893   7.242  -0.170  0.00  0.00     0.113 A 
ATOM      2  C   UNL d   1       3.310   7.978   0.918  0.00  0.00     0.047 A 
ATOM      3  C   UNL d   1       3.233   9.331   0.533  0.00  0.00     0.042 A 
ATOM      4  C   UNL d   1       2.813   9.354  -0.783  0.00  0.00     0.096 A 
ATOM      5  O   UNL d   1       2.612   8.074  -1.218  0.00  0.00    -0.302 OA
ENDROOT
BRANCH   4   6
ATOM      6  C   UNL d   1       2.567  10.467  -1.666  0.00  0.00     0.175 C 
ATOM      7  N   UNL d   1       2.705  11.667  -1.196  0.00  0.00    -0.181 NA
BRANCH   7   8
ATOM      8  N   UNL d   1       2.440  12.744  -2.001  0.00  0.00    -0.243 N 
ATOM      9  C   UNL d   1       2.612  14.025  -1.475  0.00  0.00     0.274 C 
ATOM     10  O   UNL d   1       3.005  14.270  -0.336  0.00  0.00    -0.266 OA
ATOM     11  H   UNL d   1       2.110  12.614  -2.951  0.00  0.00     0.192 HD
BRANCH   9  12
ATOM     12  C   UNL d   1       2.370  15.174  -2.395  0.00  0.00     0.067 A 
ATOM     13  C   UNL d   1       3.324  16.207  -2.409  0.00  0.00     0.032 A 
ATOM     14  C   UNL d   1       3.188  17.325  -3.255  0.00  0.00    -0.025 A 
ATOM     15  C   UNL d   1       4.172  18.329  -3.313  0.00  0.00     0.012 A 
ATOM     16  C   UNL d   1       2.042  17.437  -4.074  0.00  0.00    -0.023 A 
ATOM     17  C   UNL d   1       4.034  19.429  -4.163  0.00  0.00     0.001 A 
ATOM     18  C   UNL d   1       2.902  19.548  -4.961  0.00  0.00     0.001 A 
ATOM     19  C   UNL d   1       1.912  18.561  -4.916  0.00  0.00     0.012 A 
ATOM     20  C   UNL d   1       1.069  16.416  -4.027  0.00  0.00     0.049 A 
ATOM     21  C   UNL d   1       1.239  15.291  -3.203  0.00  0.00     0.082 A 
BRANCH  21  22
ATOM     22  O   UNL d   1       0.285  14.311  -3.193  0.00  0.00    -0.360 OA
ATOM     23  H   UNL d   1      -0.484  14.607  -3.710  0.00  0.00     0.217 HD
ENDBRANCH  21  22
ENDBRANCH   9  12
ENDBRANCH   7   8
ENDBRANCH   4   6
BRANCH   1  24
ATOM     24  S   UNL d   1       2.919   5.537  -0.333  0.00  0.00    -0.096 SA
BRANCH  24  25
ATOM     25  C   UNL d   1       1.152   4.933  -0.127  0.00  0.00     0.184 C 
BRANCH  25  26
ATOM     26  C   UNL d   1       1.260   3.405  -0.031  0.00  0.00     0.231 C 
ATOM     27  N   UNL d   1       0.140   2.577  -0.044  0.00  0.00    -0.326 N 
ATOM     28  H   UNL d   1      -0.767   3.028  -0.055  0.00  0.00     0.169 HD
ATOM     29  O   UNL d   1       2.415   2.998   0.087  0.00  0.00    -0.272 OA
BRANCH  27  30
ATOM     30  C   UNL d   1       0.108   1.108  -0.013  0.00  0.00     0.046 A 
ATOM     31  C   UNL d   1      -1.152   0.430  -0.007  0.00  0.00    -0.035 A 
ATOM     32  C   UNL d   1      -1.209  -0.993  -0.003  0.00  0.00     0.009 A 
ATOM     33  C   UNL d   1      -2.495   1.117  -0.006  0.00  0.00     0.050 C 
ATOM     34  C   UNL d   1      -0.066  -1.773  -0.000  0.00  0.00     0.001 A 
ATOM     35  C   UNL d   1       1.154  -1.143   0.004  0.00  0.00     0.009 A 
ATOM     36  C   UNL d   1       1.259   0.263  -0.003  0.00  0.00    -0.035 A 
ATOM     37  C   UNL d   1       2.689   0.699   0.003  0.00  0.00     0.050 C 
ENDBRANCH  27  30
ENDBRANCH  25  26
ENDBRANCH  24  25
ENDBRANCH   1  24
TORSDOF 8
