REMARK  9 active torsions:
REMARK  status: ('A' for Active; 'I' for Inactive)
REMARK    1  A    between atoms: C_3  and  N_4 
REMARK       I    between atoms: N_4  and  C_5 
REMARK    2  A    between atoms: C_5  and  C_7 
REMARK    3  A    between atoms: C_7  and  C_8 
REMARK    4  A    between atoms: C_8  and  N_9 
REMARK       I    between atoms: N_9  and  C_10 
REMARK       I    between atoms: C_10  and  N_12 
REMARK    5  A    between atoms: N_12  and  C_13 
REMARK    6  A    between atoms: C_13  and  C_14 
REMARK    7  A    between atoms: C_14  and  N_15 
REMARK    8  A    between atoms: N_15  and  C_16 
REMARK    9  A    between atoms: C_21  and  N_22 
ROOT
ATOM      1  C   UNL d   1       1.038   0.083   0.042  0.00  0.00     0.014 C 
ATOM      2  C   UNL d   1       2.341   0.083   0.042  0.00  0.00    -0.098 C 
ATOM      3  C   UNL d   1       3.861   0.083   0.042  0.00  0.00     0.216 C 
ENDROOT
BRANCH   3   4
ATOM      4  N   UNL d   1       4.417   1.329  -0.516  0.00  0.00    -0.351 N 
ATOM      5  C   UNL d   1       5.790   1.524  -0.603  0.00  0.00     0.219 C 
ATOM      6  O   UNL d   1       6.577   0.662  -0.218  0.00  0.00    -0.274 OA
ATOM      7  H   UNL d   1       3.775   2.042  -0.833  0.00  0.00     0.163 HD
BRANCH   5   8
ATOM      8  C   UNL d   1       6.274   2.864  -1.201  0.00  0.00     0.122 C 
BRANCH   8   9
ATOM      9  C   UNL d   1       7.819   2.948  -1.238  0.00  0.00     0.133 C 
BRANCH   9  10
ATOM     10  N   UNL d   1       8.395   4.182  -1.800  0.00  0.00    -0.343 N 
ATOM     11  C   UNL d   1       9.769   4.327  -1.882  0.00  0.00     0.316 C 
ATOM     12  O   UNL d   1      10.559   3.487  -1.481  0.00  0.00    -0.247 OA
ATOM     13  N   UNL d   1      10.177   5.488  -2.500  0.00  0.00    -0.342 N 
ATOM     14  H   UNL d   1       9.511   6.231  -2.639  0.00  0.00     0.164 HD
ATOM     15  H   UNL d   1       7.794   4.922  -2.124  0.00  0.00     0.164 HD
BRANCH  13  16
ATOM     16  C   UNL d   1      11.611   5.793  -2.637  0.00  0.00     0.144 C 
BRANCH  16  17
ATOM     17  C   UNL d   1      11.875   7.092  -3.414  0.00  0.00     0.139 C 
BRANCH  17  18
ATOM     18  N   UNL d   1      13.292   7.458  -3.496  0.00  0.00    -0.386 N 
ATOM     19  H   UNL d   1      13.974   6.867  -3.022  0.00  0.00     0.159 HD
BRANCH  18  20
ATOM     20  C   UNL d   1      13.713   8.752  -3.799  0.00  0.00     0.061 A 
ATOM     21  C   UNL d   1      14.796   8.871  -4.702  0.00  0.00     0.031 A 
ATOM     22  C   UNL d   1      15.291  10.116  -5.122  0.00  0.00     0.002 A 
ATOM     23  C   UNL d   1      14.682  11.286  -4.691  0.00  0.00     0.003 A 
ATOM     24  C   UNL d   1      13.635  11.211  -3.780  0.00  0.00     0.038 A 
ATOM     25  C   UNL d   1      13.179   9.962  -3.308  0.00  0.00     0.129 A 
BRANCH  25  26
ATOM     26  N   UNL d   1      12.184  10.025  -2.231  0.00  0.00    -0.113 N 
ATOM     27  O   UNL d   1      11.403  10.991  -2.238  0.00  0.00    -0.532 OA
ATOM     28  O   UNL d   1      12.185   9.147  -1.357  0.00  0.00    -0.532 OA
ENDBRANCH  25  26
ENDBRANCH  18  20
ENDBRANCH  17  18
ENDBRANCH  16  17
ENDBRANCH  13  16
ENDBRANCH   9  10
ENDBRANCH   8   9
ENDBRANCH   5   8
ENDBRANCH   3   4
TORSDOF 9
