REMARK  6 active torsions:
REMARK  status: ('A' for Active; 'I' for Inactive)
REMARK    1  A    between atoms: C_6  and  O_7 
REMARK    2  A    between atoms: O_7  and  C_8 
REMARK    3  A    between atoms: C_8  and  C_9 
REMARK       I    between atoms: C_9  and  N_11 
REMARK    4  A    between atoms: N_11  and  N_12 
REMARK       I    between atoms: N_12  and  C_13 
REMARK    5  A    between atoms: C_13  and  C_15 
REMARK    6  A    between atoms: C_15  and  C_16 
ROOT
ATOM      1  N   UNL d   1      -2.675   7.208   0.118  0.00  0.00    -0.267 N 
ATOM      2  C   UNL d   1      -2.083   8.440   0.042  0.00  0.00     0.240 C 
ATOM      3  O   UNL d   1      -0.858   8.362  -0.082  0.00  0.00    -0.272 OA
ATOM      4  H   UNL d   1      -3.665   6.989   0.067  0.00  0.00     0.190 HD
ENDROOT
BRANCH   1   5
ATOM      5  N   UNL d   1      -1.743   6.101   0.070  0.00  0.00    -0.266 N 
ATOM      6  C   UNL d   1      -2.220   4.811   0.041  0.00  0.00     0.260 C 
ATOM      7  O   UNL d   1      -3.436   4.611   0.035  0.00  0.00    -0.269 OA
ATOM      8  H   UNL d   1      -0.755   6.378   0.052  0.00  0.00     0.190 HD
BRANCH   6   9
ATOM      9  C   UNL d   1      -1.161   3.687   0.027  0.00  0.00     0.280 C 
BRANCH   9  10
ATOM     10  O   UNL d   1      -1.830   2.419   0.005  0.00  0.00    -0.342 OA
BRANCH  10  11
ATOM     11  C   UNL d   1      -1.078   1.276   0.003  0.00  0.00     0.069 A 
ATOM     12  C   UNL d   1      -1.792   0.071  -0.005  0.00  0.00     0.037 A 
ATOM     13  C   UNL d   1      -1.124  -1.158  -0.000  0.00  0.00     0.003 A 
ATOM     14  C   UNL d   1       0.269  -1.192   0.004  0.00  0.00     0.007 A 
ATOM     15  C   UNL d   1       0.996   0.002   0.002  0.00  0.00    -0.059 A 
ATOM     16  C   UNL d   1       2.495  -0.004  -0.013  0.00  0.00     0.048 C 
ATOM     17  C   UNL d   1       0.315   1.231   0.005  0.00  0.00     0.043 A 
ENDBRANCH  10  11
ENDBRANCH   9  10
ENDBRANCH   6   9
ENDBRANCH   1   5
BRANCH   2  18
ATOM     18  C   UNL d   1      -2.893   9.743   0.089  0.00  0.00     0.145 C 
BRANCH  18  19
ATOM     19  C   UNL d   1      -2.110  11.074   0.116  0.00  0.00    -0.021 A 
ATOM     20  C   UNL d   1      -2.709  12.334   0.075  0.00  0.00     0.097 A 
ATOM     21  N   UNL d   1      -1.737  13.304   0.139  0.00  0.00    -0.365 N 
ATOM     22  C   UNL d   1      -0.491  12.728   0.169  0.00  0.00     0.044 A 
ATOM     23  H   UNL d   1      -1.903  14.303   0.138  0.00  0.00     0.165 HD
ATOM     24  C   UNL d   1       0.792  13.320   0.198  0.00  0.00     0.054 A 
ATOM     25  C   UNL d   1      -0.681  11.342   0.165  0.00  0.00    -0.001 A 
ATOM     26  C   UNL d   1       1.917  12.487   0.189  0.00  0.00     0.036 A 
ATOM     27 CL   UNL d   1       3.508  13.133   0.183  0.00  0.00    -0.084 Cl
ATOM     28  C   UNL d   1       1.780  11.125   0.184  0.00  0.00     0.025 A 
ATOM     29  C   UNL d   1       0.508  10.580   0.200  0.00  0.00     0.016 A 
ENDBRANCH  18  19
ENDBRANCH   2  18
TORSDOF 6
