@<TRIPOS>MOLECULE
*****
 48 51 0 0 0
SMALL
GASTEIGER

@<TRIPOS>ATOM
      1 C           0.9800    0.0367   -0.0405 C.3     1  UNL1       -0.0135
      2 S           2.8055   -0.0480   -0.0927 S.3     1  UNL1       -0.1286
      3 C           3.3032    1.6699   -0.0589 C.ar    1  UNL1        0.0077
      4 C           4.6293    2.0048    0.2578 C.ar    1  UNL1       -0.0466
      5 C           5.0407    3.3526    0.3746 C.ar    1  UNL1       -0.0394
      6 C           4.1490    4.3912    0.0814 C.ar    1  UNL1        0.0337
      7 N           4.5914    5.7457    0.0843 N.am    1  UNL1       -0.2815
      8 C           3.7673    6.8322   -0.2474 C.2     1  UNL1        0.2483
      9 O           2.6021    6.7995   -0.5570 O.2     1  UNL1       -0.2699
     10 C           4.3738    8.1865   -0.2634 C.ar    1  UNL1        0.0389
     11 C           3.5786    9.2515    0.1924 C.ar    1  UNL1       -0.0495
     12 C           3.9699   10.5713   -0.0231 C.ar    1  UNL1       -0.0592
     13 C           5.1787   10.8299   -0.6596 C.ar    1  UNL1       -0.0350
     14 C           5.9558    9.7632   -1.1413 C.ar    1  UNL1        0.1092
     15 S           7.4187   10.1941   -2.0458 S.O2    1  UNL1        0.0724
     16 O           7.0060   11.0026   -3.1702 O.2     1  UNL1       -0.1500
     17 O           8.3084   10.7174   -1.0295 O.2     1  UNL1       -0.1500
     18 N           8.0191    8.7425   -2.6948 N.pl3   1  UNL1       -0.2161
     19 C           9.3445    8.7318   -3.2053 C.ar    1  UNL1        0.0517
     20 C           9.6879    8.0294   -4.3505 C.ar    1  UNL1       -0.0356
     21 C          11.0187    8.1397   -4.8114 C.ar    1  UNL1       -0.0144
     22 C          11.9706    8.7536   -3.9745 C.ar    1  UNL1        0.1663
     23 C          11.6832    8.8121   -2.6482 C.ar    1  UNL1        0.1680
     24 C          10.3721    9.1337   -2.3741 C.ar    1  UNL1        0.0062
     25 O          12.6741    9.4305   -1.9254 O.3     1  UNL1       -0.4525
     26 C          12.7476   10.5494   -2.7977 C.3     1  UNL1        0.2332
     27 O          12.5509   10.0660   -4.1878 O.3     1  UNL1       -0.4526
     28 C           5.5674    8.4375   -0.9329 C.ar    1  UNL1       -0.0230
     29 C           2.8395    4.0378   -0.2421 C.ar    1  UNL1       -0.0394
     30 C           2.4220    2.7086   -0.3187 C.ar    1  UNL1       -0.0466
     31 H           0.5784   -0.9802   -0.0016 H       1  UNL1        0.0344
     32 H           0.5801    0.5115   -0.9414 H       1  UNL1        0.0344
     33 H           0.6260    0.5730    0.8462 H       1  UNL1        0.0344
     34 H           5.3603    1.2130    0.4191 H       1  UNL1        0.0629
     35 H           6.0577    3.5530    0.7022 H       1  UNL1        0.0636
     36 H           5.5556    5.9122    0.3323 H       1  UNL1        0.1551
     37 H           2.6273    9.0481    0.6816 H       1  UNL1        0.0625
     38 H           3.3160   11.3897    0.2698 H       1  UNL1        0.0618
     39 H           5.5029   11.8622   -0.7951 H       1  UNL1        0.0637
     40 H           7.7432    7.8606   -2.2829 H       1  UNL1        0.1737
     41 H           8.9552    7.4097   -4.8653 H       1  UNL1        0.0638
     42 H          11.3225    7.3996   -5.5606 H       1  UNL1        0.0656
     43 H          10.2163    9.8845   -1.6138 H       1  UNL1        0.0674
     44 H          13.6777   11.1031   -2.6274 H       1  UNL1        0.1166
     45 H          11.9415   11.2337   -2.4612 H       1  UNL1        0.1166
     46 H           6.1209    7.6023   -1.3323 H       1  UNL1        0.0645
     47 H           2.0739    4.7751   -0.4447 H       1  UNL1        0.0636
     48 H           1.3898    2.5374   -0.5993 H       1  UNL1        0.0629
@<TRIPOS>BOND
     1     1     2    1
     2     2     3    1
     3     3     4   ar
     4     4     5   ar
     5     5     6   ar
     6     6     7    1
     7     7     8   am
     8     8     9    2
     9     8    10    1
    10    10    11   ar
    11    11    12   ar
    12    12    13   ar
    13    13    14   ar
    14    14    15    1
    15    15    16    2
    16    15    17    2
    17    15    18    1
    18    18    19    1
    19    19    20   ar
    20    20    21   ar
    21    21    22   ar
    22    22    23   ar
    23    23    24   ar
    24    19    24   ar
    25    23    25    1
    26    25    26    1
    27    26    27    1
    28    22    27    1
    29    14    28   ar
    30    10    28   ar
    31     6    29   ar
    32    29    30   ar
    33     3    30   ar
    34     1    31    1
    35     1    32    1
    36     1    33    1
    37     4    34    1
    38     5    35    1
    39     7    36    1
    40    11    37    1
    41    12    38    1
    42    13    39    1
    43    18    40    1
    44    20    41    1
    45    21    42    1
    46    24    43    1
    47    26    44    1
    48    26    45    1
    49    28    46    1
    50    29    47    1
    51    30    48    1
