@<TRIPOS>MOLECULE
*****
 41 41 0 0 0
SMALL
GASTEIGER

@<TRIPOS>ATOM
      1 C           0.9911    0.0756   -0.0676 C.3     1  UNL1       -0.0253
      2 C           2.5379    0.0756   -0.0407 C.3     1  UNL1        0.1068
      3 C           2.9706    1.3420    0.7142 C.3     1  UNL1       -0.0253
      4 C           2.9707   -1.1912    0.7134 C.3     1  UNL1       -0.0253
      5 O           3.0536    0.0760   -1.4197 O.3     1  UNL1       -0.4447
      6 C           4.4126    0.0762   -1.6058 C.2     1  UNL1        0.4008
      7 O           5.2402    0.0761   -0.6979 O.2     1  UNL1       -0.2265
      8 N           4.7894    0.0771   -2.9332 N.am    1  UNL1       -0.2806
      9 C           6.2170    0.0777   -3.2827 C.3     1  UNL1        0.0230
     10 C           6.5442    0.0858   -4.7871 C.3     1  UNL1        0.0410
     11 C           8.0621    0.1079   -5.0447 C.2     1  UNL1        0.2305
     12 O           8.8875    0.0542   -4.1327 O.2     1  UNL1       -0.2742
     13 N           8.4466    0.2133   -6.3877 N.am    1  UNL1       -0.2365
     14 N           9.8042   -0.0382   -6.6782 N.pl3   1  UNL1       -0.2644
     15 C          10.2973    0.0764   -7.9907 C.ar    1  UNL1        0.0458
     16 C           9.7375    0.9162   -8.9624 C.ar    1  UNL1       -0.0393
     17 C          10.2285    0.9402  -10.2791 C.ar    1  UNL1       -0.0586
     18 C          11.2695    0.0960  -10.6582 C.ar    1  UNL1       -0.0433
     19 C          11.8303   -0.7520   -9.7099 C.ar    1  UNL1        0.0428
     20 CL         13.0914   -1.8272  -10.1830 Cl      1  UNL1       -0.0835
     21 C          11.3657   -0.7499   -8.3875 C.ar    1  UNL1       -0.0210
     22 H           0.5812    0.0753    0.9534 H       1  UNL1        0.0268
     23 H           0.5921   -0.8054   -0.5812 H       1  UNL1        0.0268
     24 H           0.5921    0.9570   -0.5807 H       1  UNL1        0.0268
     25 H           2.5734    1.3514    1.7357 H       1  UNL1        0.0268
     26 H           2.6195    2.2415    0.1971 H       1  UNL1        0.0268
     27 H           4.0559    1.4277    0.7929 H       1  UNL1        0.0268
     28 H           2.5734   -1.2014    1.7349 H       1  UNL1        0.0268
     29 H           4.0560   -1.2770    0.7920 H       1  UNL1        0.0268
     30 H           2.6195   -2.0904    0.1957 H       1  UNL1        0.0268
     31 H           4.0603    0.0757   -3.6328 H       1  UNL1        0.1520
     32 H           6.6661   -0.8026   -2.8042 H       1  UNL1        0.0468
     33 H           6.6659    0.9552   -2.7995 H       1  UNL1        0.0468
     34 H           6.0960    0.9686   -5.2543 H       1  UNL1        0.0374
     35 H           6.1145   -0.8060   -5.2574 H       1  UNL1        0.0374
     36 H           7.7966    0.0243   -7.1444 H       1  UNL1        0.1727
     37 H          10.4608    0.0004   -5.8931 H       1  UNL1        0.1700
     38 H           8.9377    1.6012   -8.6971 H       1  UNL1        0.0636
     39 H           9.7980    1.6206  -11.0106 H       1  UNL1        0.0619
     40 H          11.6369    0.1047  -11.6823 H       1  UNL1        0.0632
     41 H          11.8214   -1.4284   -7.6701 H       1  UNL1        0.0651
@<TRIPOS>BOND
     1     1     2    1
     2     2     3    1
     3     2     4    1
     4     2     5    1
     5     5     6    1
     6     6     7    2
     7     6     8   am
     8     8     9    1
     9     9    10    1
    10    10    11    1
    11    11    12    2
    12    11    13   am
    13    13    14    1
    14    14    15    1
    15    15    16   ar
    16    16    17   ar
    17    17    18   ar
    18    18    19   ar
    19    19    20    1
    20    19    21   ar
    21    15    21   ar
    22     1    22    1
    23     1    23    1
    24     1    24    1
    25     3    25    1
    26     3    26    1
    27     3    27    1
    28     4    28    1
    29     4    29    1
    30     4    30    1
    31     8    31    1
    32     9    32    1
    33     9    33    1
    34    10    34    1
    35    10    35    1
    36    13    36    1
    37    14    37    1
    38    16    38    1
    39    17    39    1
    40    18    40    1
    41    21    41    1
