REMARK  4 active torsions:
REMARK  status: ('A' for Active; 'I' for Inactive)
REMARK    1  A    between atoms: C_3  and  C_16 
REMARK    2  A    between atoms: C_3  and  N_4 
REMARK       I    between atoms: N_4  and  C_5 
REMARK    3  A    between atoms: C_5  and  C_7 
REMARK       I    between atoms: C_7  and  N_9 
REMARK    4  A    between atoms: N_9  and  C_10 
ROOT
ATOM      1  N   UNL d   1       4.527  -1.637  -1.809  0.00  0.00    -0.195 NA
ATOM      2  C   UNL d   1       4.145  -0.887  -0.998  0.00  0.00     0.089 C 
ATOM      3  C   UNL d   1       3.700   0.092   0.030  0.00  0.00     0.229 C 
ENDROOT
BRANCH   3   4
ATOM      4  C   UNL d   1       4.246   1.491  -0.289  0.00  0.00     0.017 C 
ATOM      5  C   UNL d   1       5.624   1.721  -0.491  0.00  0.00     0.016 C 
ATOM      6  C   UNL d   1       6.118   3.033  -0.552  0.00  0.00     0.043 C 
ATOM      7  C   UNL d   1       5.249   4.114  -0.443  0.00  0.00     0.119 C 
ATOM      8  F   UNL d   1       5.703   5.363  -0.595  0.00  0.00    -0.206 F 
ATOM      9  C   UNL d   1       3.901   3.917  -0.270  0.00  0.00     0.085 C 
ATOM     10  C   UNL d   1       3.418   2.625  -0.289  0.00  0.00     0.128 C 
ATOM     11  F   UNL d   1       2.088   2.525  -0.394  0.00  0.00    -0.205 F 
ENDBRANCH   3   4
BRANCH   3  12
ATOM     12  N   UNL d   1       2.243   0.029   0.233  0.00  0.00    -0.332 N 
ATOM     13  C   UNL d   1       1.555   0.815   1.161  0.00  0.00     0.311 C 
ATOM     14  O   UNL d   1       2.078   1.511   2.023  0.00  0.00    -0.262 OA
ATOM     15  H   UNL d   1       1.680  -0.495  -0.433  0.00  0.00     0.164 HD
BRANCH  13  16
ATOM     16  C   UNL d   1       0.021   0.883   0.945  0.00  0.00     0.314 C 
ATOM     17  O   UNL d   1      -0.476   0.077   0.164  0.00  0.00    -0.262 OA
ATOM     18  N   UNL d   1      -0.649   1.913   1.609  0.00  0.00    -0.319 N 
ATOM     19  H   UNL d   1      -0.099   2.666   2.014  0.00  0.00     0.169 HD
BRANCH  18  20
ATOM     20  C   UNL d   1      -2.060   2.023   1.607  0.00  0.00     0.035 A 
ATOM     21  C   UNL d   1      -2.689   3.267   1.491  0.00  0.00     0.029 A 
ATOM     22  C   UNL d   1      -4.091   3.352   1.520  0.00  0.00     0.002 A 
ATOM     23  C   UNL d   1      -4.866   2.197   1.621  0.00  0.00     0.000 A 
ATOM     24  C   UNL d   1      -4.243   0.963   1.772  0.00  0.00     0.002 A 
ATOM     25  C   UNL d   1      -2.849   0.880   1.767  0.00  0.00     0.029 A 
ENDBRANCH  18  20
ENDBRANCH  13  16
ENDBRANCH   3  12
TORSDOF 4
