REMARK  9 active torsions:
REMARK  status: ('A' for Active; 'I' for Inactive)
REMARK    1  A    between atoms: O_1  and  C_2 
REMARK    2  A    between atoms: C_2  and  C_3 
REMARK    3  A    between atoms: C_2  and  C_24 
REMARK    4  A    between atoms: C_3  and  N_4 
REMARK    5  A    between atoms: C_6  and  N_7 
REMARK    6  A    between atoms: N_7  and  C_8 
REMARK    7  A    between atoms: C_12  and  O_13 
REMARK    8  A    between atoms: O_13  and  C_14 
REMARK    9  A    between atoms: C_24  and  N_25 
ROOT
ATOM      1  N   UNL d   1       2.144  -0.756  -2.386  0.00  0.00    -0.277 N 
ATOM      2  C   UNL d   1       2.568  -2.039  -2.285  0.00  0.00     0.143 C 
ATOM      3  C   UNL d   1       2.130  -2.655  -3.419  0.00  0.00     0.085 C 
ATOM      4  C   UNL d   1       1.592  -1.625  -4.211  0.00  0.00     0.170 C 
ATOM      5  N   UNL d   1       1.639  -0.443  -3.582  0.00  0.00    -0.183 NA
ENDROOT
BRANCH   3   6
ATOM      6  N   UNL d   1       2.258  -3.974  -3.691  0.00  0.00    -0.185 N 
ATOM      7  H   UNL d   1       2.171  -4.343  -4.624  0.00  0.00     0.184 HD
BRANCH   6   8
ATOM      8  C   UNL d   1       2.819  -4.905  -2.816  0.00  0.00     0.729 A 
ATOM      9  N   UNL d   1       3.929  -5.540  -3.218  0.00  0.00    -0.075 NA
ATOM     10  C   UNL d   1       4.557  -6.292  -2.300  0.00  0.00     0.141 A 
ATOM     11  C   UNL d   1       4.089  -6.489  -1.026  0.00  0.00     0.079 A 
ATOM     12  C   UNL d   1       2.931  -5.823  -0.701  0.00  0.00     0.190 A 
ATOM     13  N   UNL d   1       2.314  -5.010  -1.573  0.00  0.00    -0.038 NA
BRANCH  12  14
ATOM     14  O   UNL d   1       2.296  -5.893   0.521  0.00  0.00    -0.291 OA
BRANCH  14  15
ATOM     15  C   UNL d   1       2.846  -6.632   1.540  0.00  0.00     0.078 A 
ATOM     16  C   UNL d   1       4.111  -6.348   2.068  0.00  0.00     0.040 A 
ATOM     17  C   UNL d   1       4.612  -7.114   3.120  0.00  0.00     0.045 A 
ATOM     18  C   UNL d   1       3.821  -8.113   3.676  0.00  0.00     0.116 A 
ATOM     19  F   UNL d   1       4.292  -8.822   4.709  0.00  0.00    -0.206 F 
ATOM     20  C   UNL d   1       2.546  -8.376   3.185  0.00  0.00     0.045 A 
ATOM     21  C   UNL d   1       2.056  -7.634   2.109  0.00  0.00     0.040 A 
ENDBRANCH  14  15
ENDBRANCH  12  14
ENDBRANCH   6   8
ENDBRANCH   3   6
BRANCH   1  22
ATOM     22  C   UNL d   1       2.432   0.293  -1.452  0.00  0.00     0.183 C 
BRANCH  22  23
ATOM     23  C   UNL d   1       2.186  -0.054   0.004  0.00  0.00     0.164 C 
BRANCH  23  24
ATOM     24  O   UNL d   1       0.779  -0.030   0.236  0.00  0.00    -0.392 OA
ATOM     25  H   UNL d   1       0.360  -0.634  -0.417  0.00  0.00     0.210 HD
ENDBRANCH  23  24
BRANCH  23  26
ATOM     26  C   UNL d   1       2.911   0.951   0.925  0.00  0.00     0.268 C 
BRANCH  26  27
ATOM     27  N   UNL d   1       4.457   0.992   0.819  0.00  0.00    -0.069 N 
ATOM     28  C   UNL d   1       5.011   2.334   0.348  0.00  0.00     0.235 C 
ATOM     29  C   UNL d   1       5.153   2.150  -1.144  0.00  0.00     0.029 C 
ATOM     30  C   UNL d   1       5.673   0.719  -1.284  0.00  0.00     0.029 C 
ATOM     31  C   UNL d   1       5.200  -0.039  -0.032  0.00  0.00     0.235 C 
ATOM     32  H   UNL d   1       4.785   0.869   1.789  0.00  0.00     0.280 HD
ENDBRANCH  26  27
ENDBRANCH  23  26
ENDBRANCH  22  23
ENDBRANCH   1  22
TORSDOF 9
