@<TRIPOS>MOLECULE
*****
 65 67 0 0 0
SMALL
GASTEIGER

@<TRIPOS>ATOM
      1 C           0.9312   -0.0218    0.0692 C.3     1  UNL1        0.0365
      2 O           2.3549   -0.0448    0.0849 O.3     1  UNL1       -0.3814
      3 C           2.8387   -1.1537    0.8434 C.3     1  UNL1        0.0628
      4 C           4.3667   -1.1706    0.8590 C.3     1  UNL1        0.0353
      5 N           4.9151   -2.2857    1.6249 N.am    1  UNL1       -0.3092
      6 C           6.2810   -2.4179    1.7915 C.2     1  UNL1        0.2441
      7 O           7.0948   -1.6268    1.3266 O.2     1  UNL1       -0.2702
      8 C           6.7794   -3.6054    2.5409 C.ar    1  UNL1        0.0368
      9 C           7.9709   -3.5253    3.2792 C.ar    1  UNL1       -0.0479
     10 C           8.5969   -4.6902    3.7799 C.ar    1  UNL1       -0.0398
     11 C           7.9948   -5.9449    3.6122 C.ar    1  UNL1        0.0335
     12 N           8.5757   -7.1181    4.1857 N.am    1  UNL1       -0.2842
     13 C           7.9948   -8.3865    4.1365 C.2     1  UNL1        0.2343
     14 O           6.9274   -8.6617    3.5808 O.2     1  UNL1       -0.2738
     15 C           8.7314   -9.5237    4.8664 C.3     1  UNL1        0.0861
     16 N           8.0641  -10.7878    4.5298 N.pl3   1  UNL1       -0.3354
     17 C           8.2407  -11.9937    5.1650 C.ar    1  UNL1        0.0283
     18 C           7.9877  -13.1673    4.4495 C.ar    1  UNL1       -0.0394
     19 C           8.1081  -14.4185    5.0456 C.ar    1  UNL1       -0.0409
     20 C           8.5540  -14.5259    6.3589 C.ar    1  UNL1        0.0532
     21 CL          8.7578  -16.1618    6.9052 Cl      1  UNL1       -0.0828
     22 C           8.8256  -13.3574    7.1033 C.ar    1  UNL1        0.0567
     23 C           9.2088  -13.4348    8.5322 C.2     1  UNL1        0.2458
     24 O           9.3805  -14.5560    9.0091 O.2     1  UNL1       -0.2701
     25 N           9.3224  -12.2832    9.3013 N.am    1  UNL1       -0.3085
     26 C           9.6822  -12.3145   10.7276 C.3     1  UNL1        0.0234
     27 C           9.1160  -11.0731   11.4439 C.3     1  UNL1       -0.0345
     28 C           9.3395  -11.1224   12.9580 C.3     1  UNL1       -0.0514
     29 C           8.7983  -12.4080   13.5745 C.3     1  UNL1       -0.0529
     30 C           9.4227  -13.6149   12.9124 C.3     1  UNL1       -0.0514
     31 C           9.1846  -13.5880   11.4244 C.3     1  UNL1       -0.0345
     32 C           8.6765  -12.1050    6.4829 C.ar    1  UNL1       -0.0273
     33 C           6.8008   -5.9900    2.8822 C.ar    1  UNL1       -0.0398
     34 C           6.1878   -4.8471    2.3621 C.ar    1  UNL1       -0.0479
     35 H           0.5968    0.8372   -0.5186 H       1  UNL1        0.0523
     36 H           0.5422    0.0777    1.0874 H       1  UNL1        0.0523
     37 H           0.5422   -0.9349   -0.3922 H       1  UNL1        0.0523
     38 H           2.4630   -2.0835    0.4011 H       1  UNL1        0.0575
     39 H           2.4619   -1.0787    1.8698 H       1  UNL1        0.0575
     40 H           4.7515   -0.2337    1.2794 H       1  UNL1        0.0485
     41 H           4.7547   -1.2285   -0.1656 H       1  UNL1        0.0485
     42 H           4.2821   -2.9275    2.0831 H       1  UNL1        0.1491
     43 H           8.4256   -2.5488    3.4440 H       1  UNL1        0.0626
     44 H           9.5651   -4.5804    4.2645 H       1  UNL1        0.0636
     45 H           9.4319   -6.9930    4.7154 H       1  UNL1        0.1549
     46 H           8.7100   -9.3111    5.9392 H       1  UNL1        0.0557
     47 H           9.7613   -9.5854    4.5076 H       1  UNL1        0.0557
     48 H           7.1576  -10.6610    4.0642 H       1  UNL1        0.1466
     49 H           7.7258  -13.1179    3.3953 H       1  UNL1        0.0636
     50 H           7.8579  -15.3138    4.4818 H       1  UNL1        0.0633
     51 H           9.3145  -11.3721    8.8705 H       1  UNL1        0.1493
     52 H          10.7786  -12.2749   10.7725 H       1  UNL1        0.0498
     53 H           8.0386  -10.9960   11.2443 H       1  UNL1        0.0283
     54 H           9.5683  -10.1584   11.0397 H       1  UNL1        0.0283
     55 H           8.8557  -10.2632   13.4340 H       1  UNL1        0.0266
     56 H          10.4137  -11.0467   13.1669 H       1  UNL1        0.0266
     57 H           7.7084  -12.4479   13.4560 H       1  UNL1        0.0265
     58 H           9.0139  -12.4388   14.6465 H       1  UNL1        0.0265
     59 H           9.0019  -14.5421   13.3157 H       1  UNL1        0.0266
     60 H          10.5032  -13.6389   13.0965 H       1  UNL1        0.0266
     61 H           8.1155  -13.7201   11.2077 H       1  UNL1        0.0283
     62 H           9.7198  -14.4637   11.0548 H       1  UNL1        0.0283
     63 H           8.8627  -11.1937    7.0302 H       1  UNL1        0.0644
     64 H           6.3086   -6.9233    2.6441 H       1  UNL1        0.0636
     65 H           5.2866   -4.9764    1.7722 H       1  UNL1        0.0626
@<TRIPOS>BOND
     1     1     2    1
     2     2     3    1
     3     3     4    1
     4     4     5    1
     5     5     6   am
     6     6     7    2
     7     6     8    1
     8     8     9   ar
     9     9    10   ar
    10    10    11   ar
    11    11    12    1
    12    12    13   am
    13    13    14    2
    14    13    15    1
    15    15    16    1
    16    16    17    1
    17    17    18   ar
    18    18    19   ar
    19    19    20   ar
    20    20    21    1
    21    20    22   ar
    22    22    23    1
    23    23    24    2
    24    23    25   am
    25    25    26    1
    26    26    27    1
    27    27    28    1
    28    28    29    1
    29    29    30    1
    30    30    31    1
    31    26    31    1
    32    22    32   ar
    33    17    32   ar
    34    11    33   ar
    35    33    34   ar
    36     8    34   ar
    37     1    35    1
    38     1    36    1
    39     1    37    1
    40     3    38    1
    41     3    39    1
    42     4    40    1
    43     4    41    1
    44     5    42    1
    45     9    43    1
    46    10    44    1
    47    12    45    1
    48    15    46    1
    49    15    47    1
    50    16    48    1
    51    18    49    1
    52    19    50    1
    53    25    51    1
    54    26    52    1
    55    27    53    1
    56    27    54    1
    57    28    55    1
    58    28    56    1
    59    29    57    1
    60    29    58    1
    61    30    59    1
    62    30    60    1
    63    31    61    1
    64    31    62    1
    65    32    63    1
    66    33    64    1
    67    34    65    1
