REMARK  8 active torsions:
REMARK  status: ('A' for Active; 'I' for Inactive)
REMARK    1  A    between atoms: C_2  and  O_3 
REMARK    2  A    between atoms: O_3  and  C_4 
REMARK    3  A    between atoms: C_9  and  N_10 
REMARK    4  A    between atoms: C_11  and  N_12 
REMARK    5  A    between atoms: C_20  and  S_21 
REMARK    6  A    between atoms: S_21  and  C_22 
REMARK    7  A    between atoms: C_22  and  C_23 
REMARK       I    between atoms: C_23  and  N_25 
REMARK    8  A    between atoms: N_25  and  C_26 
ROOT
ATOM      1  N   UNL d   1       4.803  -1.563   0.003  0.00  0.00    -0.296 N 
ATOM      2  C   UNL d   1       5.233  -1.258   1.278  0.00  0.00     0.141 A 
ATOM      3  C   UNL d   1       4.597  -1.960   2.346  0.00  0.00     0.085 A 
ATOM      4  C   UNL d   1       4.695  -1.966   3.671  0.00  0.00     0.071 A 
ATOM      5  C   UNL d   1       5.669  -1.167   4.465  0.00  0.00     0.073 C 
ATOM      6  N   UNL d   1       3.761  -2.793   4.232  0.00  0.00    -0.152 NA
ATOM      7  N   UNL d   1       3.044  -3.309   3.313  0.00  0.00    -0.129 NA
ATOM      8  C   UNL d   1       3.499  -2.844   2.096  0.00  0.00     0.185 A 
ATOM      9  N   UNL d   1       3.002  -3.133   0.945  0.00  0.00    -0.232 NA
ATOM     10  C   UNL d   1       3.705  -2.540  -0.246  0.00  0.00     0.281 A 
ENDROOT
BRANCH  10  11
ATOM     11  S   UNL d   1       4.258  -3.889  -1.365  0.00  0.00    -0.111 SA
BRANCH  11  12
ATOM     12  C   UNL d   1       4.992  -3.022  -2.819  0.00  0.00     0.181 C 
BRANCH  12  13
ATOM     13  C   UNL d   1       5.535  -4.059  -3.786  0.00  0.00     0.231 C 
ATOM     14  O   UNL d   1       5.432  -5.264  -3.561  0.00  0.00    -0.272 OA
ATOM     15  N   UNL d   1       6.248  -3.552  -4.872  0.00  0.00    -0.327 N 
ATOM     16  H   UNL d   1       6.580  -2.595  -4.861  0.00  0.00     0.169 HD
BRANCH  15  17
ATOM     17  C   UNL d   1       6.849  -4.448  -5.786  0.00  0.00     0.034 A 
ATOM     18  C   UNL d   1       8.149  -4.237  -6.242  0.00  0.00     0.030 A 
ATOM     19  C   UNL d   1       8.731  -5.155  -7.128  0.00  0.00     0.009 A 
ATOM     20  C   UNL d   1       8.037  -6.305  -7.528  0.00  0.00    -0.062 A 
ATOM     21  C   UNL d   1       8.705  -7.369  -8.348  0.00  0.00     0.048 C 
ATOM     22  C   UNL d   1       6.722  -6.488  -7.097  0.00  0.00     0.009 A 
ATOM     23  C   UNL d   1       6.138  -5.566  -6.233  0.00  0.00     0.030 A 
ENDBRANCH  15  17
ENDBRANCH  12  13
ENDBRANCH  11  12
ENDBRANCH  10  11
BRANCH   1  24
ATOM     24  C   UNL d   1       5.161  -0.649  -0.992  0.00  0.00     0.072 A 
ATOM     25  C   UNL d   1       6.540  -0.655  -1.344  0.00  0.00     0.033 A 
ATOM     26  C   UNL d   1       7.047   0.166  -2.330  0.00  0.00     0.002 A 
ATOM     27  C   UNL d   1       6.179   1.041  -2.961  0.00  0.00     0.003 A 
ATOM     28  C   UNL d   1       4.830   1.120  -2.569  0.00  0.00     0.039 A 
ATOM     29  C   UNL d   1       4.299   0.273  -1.588  0.00  0.00     0.095 A 
BRANCH  29  30
ATOM     30  O   UNL d   1       2.947   0.365  -1.380  0.00  0.00    -0.349 OA
BRANCH  30  31
ATOM     31  C   UNL d   1       2.457   0.338  -0.034  0.00  0.00     0.171 C 
ATOM     32  C   UNL d   1       0.946   0.191  -0.061  0.00  0.00     0.034 C 
ENDBRANCH  30  31
ENDBRANCH  29  30
ENDBRANCH   1  24
BRANCH   2  33
ATOM     33  N   UNL d   1       6.109  -0.355   1.602  0.00  0.00    -0.283 NA
ATOM     34  H   UNL d   1       6.479   0.132   0.788  0.00  0.00     0.188 HD
ENDBRANCH   2  33
TORSDOF 8
