@<TRIPOS>MOLECULE
*****
 39 40 0 0 0
SMALL
GASTEIGER

@<TRIPOS>ATOM
      1 C           1.0900    0.0451    0.1381 C.3     1  UNL1       -0.0469
      2 C           2.6253    0.0754    0.1148 C.3     1  UNL1        0.0179
      3 C           3.0754    0.3989   -1.3116 C.3     1  UNL1       -0.0469
      4 N           3.1917    1.0273    1.0842 N.am    1  UNL1       -0.3052
      5 C           4.5657    1.1682    1.2914 C.2     1  UNL1        0.3006
      6 O           5.4293    0.5199    0.7117 O.2     1  UNL1       -0.2651
      7 C           5.0126    2.2413    2.3342 C.2     1  UNL1        0.3150
      8 O           4.1785    2.8772    2.9723 O.2     1  UNL1       -0.2636
      9 N           6.3940    2.3952    2.4632 N.am    1  UNL1       -0.2263
     10 N           6.9390    3.3101    3.4141 N.am    1  UNL1       -0.2287
     11 C           8.3209    3.4938    3.5268 C.2     1  UNL1        0.2818
     12 O           9.1183    2.8892    2.8004 O.2     1  UNL1       -0.2669
     13 C           8.7470    4.4122    4.6030 C.ar    1  UNL1        0.1696
     14 C           8.1472    4.5529    5.8809 C.ar    1  UNL1        0.0176
     15 C           8.9340    5.4421    6.5685 C.ar    1  UNL1        0.1680
     16 C           8.9462    5.8802    7.9554 C.ar    1  UNL1        0.0200
     17 C           8.9204    7.2306    8.3211 C.ar    1  UNL1       -0.0510
     18 C           8.9728    7.5965    9.6732 C.ar    1  UNL1       -0.0611
     19 C           8.9812    6.6191   10.6690 C.ar    1  UNL1       -0.0617
     20 C           8.9624    5.2732   10.3172 C.ar    1  UNL1       -0.0611
     21 C           8.9483    4.9085    8.9696 C.ar    1  UNL1       -0.0510
     22 O           9.9426    5.8549    5.7510 O.2     1  UNL1       -0.3539
     23 N           9.8389    5.1986    4.5219 N.ar    1  UNL1       -0.0729
     24 H           0.7037   -0.6868   -0.5850 H       1  UNL1        0.0247
     25 H           0.6663    1.0198   -0.1296 H       1  UNL1        0.0247
     26 H           0.7022   -0.2310    1.1232 H       1  UNL1        0.0247
     27 H           2.9936   -0.9220    0.3857 H       1  UNL1        0.0493
     28 H           2.7275    1.3933   -1.6112 H       1  UNL1        0.0247
     29 H           2.6808   -0.3321   -2.0261 H       1  UNL1        0.0247
     30 H           4.1639    0.3875   -1.4045 H       1  UNL1        0.0247
     31 H           2.5694    1.5941    1.6538 H       1  UNL1        0.1494
     32 H           7.0467    1.8352    1.9081 H       1  UNL1        0.1733
     33 H           6.2705    3.8719    3.9369 H       1  UNL1        0.1732
     34 H           7.3024    4.0195    6.2808 H       1  UNL1        0.0679
     35 H           8.8414    8.0094    7.5660 H       1  UNL1        0.0625
     36 H           9.0131    8.6468    9.9532 H       1  UNL1        0.0618
     37 H           8.9999    6.9057   11.7181 H       1  UNL1        0.0618
     38 H           8.9740    4.5059   11.0873 H       1  UNL1        0.0618
     39 H           8.9488    3.8509    8.7145 H       1  UNL1        0.0625
@<TRIPOS>BOND
     1     1     2    1
     2     2     3    1
     3     2     4    1
     4     4     5   am
     5     5     6    2
     6     5     7    1
     7     7     8    2
     8     7     9   am
     9     9    10    1
    10    10    11   am
    11    11    12    2
    12    11    13    1
    13    13    14   ar
    14    14    15   ar
    15    15    16    1
    16    16    17   ar
    17    17    18   ar
    18    18    19   ar
    19    19    20   ar
    20    20    21   ar
    21    16    21   ar
    22    15    22   ar
    23    22    23   ar
    24    13    23   ar
    25     1    24    1
    26     1    25    1
    27     1    26    1
    28     2    27    1
    29     3    28    1
    30     3    29    1
    31     3    30    1
    32     4    31    1
    33     9    32    1
    34    10    33    1
    35    14    34    1
    36    17    35    1
    37    18    36    1
    38    19    37    1
    39    20    38    1
    40    21    39    1
