@<TRIPOS>MOLECULE
*****
 71 72 0 0 0
SMALL
GASTEIGER

@<TRIPOS>ATOM
      1 C           8.3198    6.6757   -3.4941 C.3     1  UNL1       -0.0653
      2 C           7.5449    5.9664   -2.4104 C.3     1  UNL1       -0.0559
      3 C           8.4748    5.4120   -1.3647 C.3     1  UNL1       -0.0533
      4 C           7.6317    4.7102   -0.3021 C.3     1  UNL1       -0.0516
      5 C           8.6163    4.1934    0.6861 C.3     1  UNL1       -0.0371
      6 C           8.1005    3.4304    1.8519 C.3     1  UNL1        0.0158
      7 N           9.0956    2.8974    2.8046 N.am    1  UNL1       -0.2859
      8 C          10.4732    3.2320    2.8099 C.2     1  UNL1        0.2164
      9 O          11.1985    3.0764    3.7944 O.2     1  UNL1       -0.2756
     10 C          11.1443    3.8578    1.5890 C.3     1  UNL1        0.0239
     11 C          12.6560    3.9739    1.5764 C.3     1  UNL1       -0.0476
     12 C          13.0712    4.7496    0.3255 C.3     1  UNL1       -0.0648
     13 C           8.4605    2.1606    3.9800 C.3     1  UNL1        0.1274
     14 C           6.8543    2.0790    3.8005 C.2     1  UNL1        0.2393
     15 O           6.2990    1.3620    2.9596 O.2     1  UNL1       -0.2734
     16 N           6.0669    2.9556    4.5038 N.am    1  UNL1       -0.2943
     17 C           4.6014    2.9577    4.3004 C.3     1  UNL1        0.1356
     18 S           3.7051    4.2252    5.2083 S.O2    1  UNL1        0.0129
     19 O           3.9012    3.9723    6.6204 O.2     1  UNL1       -0.1678
     20 O           4.0854    5.5115    4.6388 O.2     1  UNL1       -0.1678
     21 C           1.9855    3.9538    4.8467 C.ar    1  UNL1        0.0899
     22 C           1.3026    2.9425    5.5268 C.ar    1  UNL1       -0.0366
     23 C          -0.0445    2.7046    5.2420 C.ar    1  UNL1       -0.0570
     24 C          -0.7235    3.4846    4.2974 C.ar    1  UNL1       -0.0503
     25 C          -2.1600    3.1975    3.9618 C.3     1  UNL1       -0.0397
     26 C          -0.0421    4.5336    3.6635 C.ar    1  UNL1       -0.0570
     27 C           1.3083    4.7767    3.9421 C.ar    1  UNL1       -0.0366
     28 C           9.0385    0.7367    4.1749 C.ar    1  UNL1       -0.0178
     29 C          10.3851    0.5339    4.5228 C.ar    1  UNL1       -0.0499
     30 C          10.9790   -0.7267    4.5295 C.ar    1  UNL1        0.0159
     31 C          10.1849   -1.8445    4.3144 C.ar    1  UNL1        0.2732
     32 N          10.7755   -3.1776    4.3678 N.pl3   1  UNL1        0.0796
     33 O          11.9956   -3.2609    4.5663 O.2     1  UNL1        0.0414
     34 O          10.0180   -4.1468    4.2180 O.co2   1  UNL1       -0.5760
     35 C           8.8183   -1.7014    4.0934 C.ar    1  UNL1        0.0159
     36 C           8.2624   -0.4246    4.0226 C.ar    1  UNL1       -0.0499
     37 H           7.6244    7.0680   -4.2384 H       1  UNL1        0.0230
     38 H           9.0138    5.9886   -3.9883 H       1  UNL1        0.0230
     39 H           8.8965    7.5076   -3.0778 H       1  UNL1        0.0230
     40 H           6.9629    5.1439   -2.8392 H       1  UNL1        0.0263
     41 H           6.8455    6.6594   -1.9312 H       1  UNL1        0.0263
     42 H           9.0788    6.2142   -0.9139 H       1  UNL1        0.0265
     43 H           9.1944    4.7111   -1.8147 H       1  UNL1        0.0265
     44 H           7.0642    3.8799   -0.7308 H       1  UNL1        0.0266
     45 H           6.9452    5.4077    0.1855 H       1  UNL1        0.0266
     46 H           9.1132    5.0833    1.0659 H       1  UNL1        0.0280
     47 H           9.2467    3.5188    0.1116 H       1  UNL1        0.0280
     48 H           7.5418    2.5816    1.4527 H       1  UNL1        0.0465
     49 H           7.4247    4.0895    2.4115 H       1  UNL1        0.0465
     50 H          10.8204    4.8976    1.5522 H       1  UNL1        0.0358
     51 H          10.9197    3.2763    0.6961 H       1  UNL1        0.0358
     52 H          13.1013    2.9751    1.5680 H       1  UNL1        0.0267
     53 H          12.9966    4.5013    2.4712 H       1  UNL1        0.0267
     54 H          12.7383    4.2398   -0.5869 H       1  UNL1        0.0230
     55 H          14.1564    4.8571    0.2855 H       1  UNL1        0.0230
     56 H          12.6253    5.7522    0.3167 H       1  UNL1        0.0230
     57 H           8.6632    2.7485    4.8860 H       1  UNL1        0.0648
     58 H           6.4708    3.6890    5.0752 H       1  UNL1        0.1503
     59 H           4.2203    1.9790    4.6147 H       1  UNL1        0.0710
     60 H           4.3845    3.0860    3.2325 H       1  UNL1        0.0710
     61 H           1.8008    2.3396    6.2824 H       1  UNL1        0.0637
     62 H          -0.5637    1.9022    5.7629 H       1  UNL1        0.0621
     63 H          -2.5467    2.3573    4.5491 H       1  UNL1        0.0278
     64 H          -2.2535    2.9313    2.9037 H       1  UNL1        0.0278
     65 H          -2.7884    4.0685    4.1722 H       1  UNL1        0.0278
     66 H          -0.5629    5.1656    2.9453 H       1  UNL1        0.0621
     67 H           1.8108    5.6083    3.4518 H       1  UNL1        0.0637
     68 H          11.0339    1.3501    4.8097 H       1  UNL1        0.0623
     69 H          12.0485   -0.7982    4.7141 H       1  UNL1        0.0685
     70 H           8.1637   -2.5586    3.9619 H       1  UNL1        0.0685
     71 H           7.1925   -0.3965    3.8462 H       1  UNL1        0.0623
@<TRIPOS>UNITY_ATOM_ATTR
32 1
charge 1
34 1
charge -1
@<TRIPOS>BOND
     1     1     2    1
     2     2     3    1
     3     3     4    1
     4     4     5    1
     5     5     6    1
     6     6     7    1
     7     7     8   am
     8     8     9    2
     9     8    10    1
    10    10    11    1
    11    11    12    1
    12    14    15    2
    13    14    16   am
    14    16    17    1
    15    17    18    1
    16    18    19    2
    17    18    20    2
    18    18    21    1
    19    21    22   ar
    20    22    23   ar
    21    23    24   ar
    22    24    25    1
    23    24    26   ar
    24    26    27   ar
    25    21    27   ar
    26    13    28    1
    27    28    29   ar
    28    29    30   ar
    29    30    31   ar
    30    31    32    1
    31    32    33    2
    32    32    34    1
    33    31    35   ar
    34    35    36   ar
    35    28    36   ar
    36    13    14    1
    37    13     7    1
    38     1    37    1
    39     1    38    1
    40     1    39    1
    41     2    40    1
    42     2    41    1
    43     3    42    1
    44     3    43    1
    45     4    44    1
    46     4    45    1
    47     5    46    1
    48     5    47    1
    49     6    48    1
    50     6    49    1
    51    10    50    1
    52    10    51    1
    53    11    52    1
    54    11    53    1
    55    12    54    1
    56    12    55    1
    57    12    56    1
    58    13    57    1
    59    16    58    1
    60    17    59    1
    61    17    60    1
    62    22    61    1
    63    23    62    1
    64    25    63    1
    65    25    64    1
    66    25    65    1
    67    26    66    1
    68    27    67    1
    69    29    68    1
    70    30    69    1
    71    35    70    1
    72    36    71    1
