@<TRIPOS>MOLECULE
*****
 44 46 0 0 0
SMALL
GASTEIGER

@<TRIPOS>ATOM
      1 N           1.2421    0.1134   -0.1097 N.am    1  UNL1       -0.3134
      2 C           2.5884    0.0511   -0.0445 C.2     1  UNL1        0.2973
      3 O           3.1412   -0.5876    0.8532 O.2     1  UNL1       -0.2531
      4 N           3.2476    0.7285   -1.0217 N.am    1  UNL1       -0.2955
      5 C           4.7028    0.7493   -1.0367 C.3     1  UNL1        0.0383
      6 C           5.3118    1.6854   -2.0543 C.ar    1  UNL1       -0.0302
      7 C           6.2730    1.2931   -3.0004 C.ar    1  UNL1       -0.0553
      8 C           6.8508    2.2381   -3.8931 C.ar    1  UNL1       -0.0402
      9 C           6.4105    3.5775   -3.9082 C.ar    1  UNL1        0.0337
     10 N           6.7096    4.4320   -5.0293 N.am    1  UNL1       -0.2815
     11 C           6.0615    5.6426   -5.3026 C.2     1  UNL1        0.2489
     12 O           5.2981    6.2583   -4.5593 O.2     1  UNL1       -0.2698
     13 C           6.2417    6.2773   -6.6332 C.ar    1  UNL1        0.0478
     14 C           6.6021    7.6474   -6.5793 C.ar    1  UNL1       -0.0489
     15 C           6.7504    8.4131   -7.7367 C.ar    1  UNL1       -0.0610
     16 C           6.5901    7.8091   -8.9730 C.ar    1  UNL1       -0.0610
     17 C           6.1779    6.4743   -9.0405 C.ar    1  UNL1       -0.0502
     18 C           5.9525    5.6923   -7.8780 C.ar    1  UNL1        0.0349
     19 C           5.4246    4.3054   -8.1276 C.2     1  UNL1        0.2004
     20 O           5.5580    3.8644   -9.2746 O.2     1  UNL1       -0.2861
     21 C           4.8042    3.5089   -7.0900 C.ar    1  UNL1        0.0594
     22 C           3.8772    3.8578   -6.1266 C.ar    1  UNL1       -0.0438
     23 C           3.6515    2.8081   -5.1914 C.ar    1  UNL1       -0.0540
     24 C           4.3530    1.6683   -5.5131 C.ar    1  UNL1       -0.0236
     25 S           5.2709    1.8594   -6.9438 S.2     1  UNL1       -0.0934
     26 C           5.4862    3.9516   -2.9308 C.ar    1  UNL1       -0.0402
     27 C           4.9489    3.0304   -2.0258 C.ar    1  UNL1       -0.0553
     28 H           0.7298   -0.3919    0.6031 H       1  UNL1        0.1465
     29 H           0.7182    0.6180   -0.8060 H       1  UNL1        0.1465
     30 H           2.7237    1.2491   -1.7082 H       1  UNL1        0.1506
     31 H           5.0539   -0.2798   -1.1670 H       1  UNL1        0.0512
     32 H           5.0379    1.0848   -0.0473 H       1  UNL1        0.0512
     33 H           6.4995    0.2331   -3.1332 H       1  UNL1        0.0621
     34 H           7.5144    1.8567   -4.6694 H       1  UNL1        0.0636
     35 H           7.2039    3.9828   -5.7922 H       1  UNL1        0.1551
     36 H           6.7577    8.1318   -5.6142 H       1  UNL1        0.0625
     37 H           6.9926    9.4726   -7.6725 H       1  UNL1        0.0618
     38 H           6.7723    8.3748   -9.8852 H       1  UNL1        0.0618
     39 H           6.0168    6.0469  -10.0316 H       1  UNL1        0.0625
     40 H           3.4802    4.8582   -6.0024 H       1  UNL1        0.0630
     41 H           3.1106    2.9332   -4.2607 H       1  UNL1        0.0623
     42 H           4.4585    0.7754   -4.9103 H       1  UNL1        0.0693
     43 H           5.0342    4.9342   -2.9190 H       1  UNL1        0.0636
     44 H           4.1735    3.3706   -1.3442 H       1  UNL1        0.0621
@<TRIPOS>BOND
     1     1     2   am
     2     2     3    2
     3     2     4   am
     4     4     5    1
     5     5     6    1
     6     6     7   ar
     7     7     8   ar
     8     8     9   ar
     9     9    10    1
    10    10    11   am
    11    11    12    2
    12    11    13    1
    13    13    14   ar
    14    14    15   ar
    15    15    16   ar
    16    16    17   ar
    17    17    18   ar
    18    13    18   ar
    19    18    19    1
    20    19    20    2
    21    19    21    1
    22    21    22   ar
    23    22    23   ar
    24    23    24   ar
    25    24    25   ar
    26    21    25   ar
    27     9    26   ar
    28    26    27   ar
    29     6    27   ar
    30     1    28    1
    31     1    29    1
    32     4    30    1
    33     5    31    1
    34     5    32    1
    35     7    33    1
    36     8    34    1
    37    10    35    1
    38    14    36    1
    39    15    37    1
    40    16    38    1
    41    17    39    1
    42    22    40    1
    43    23    41    1
    44    24    42    1
    45    26    43    1
    46    27    44    1
