@<TRIPOS>MOLECULE
*****
 40 42 0 0 0
SMALL
GASTEIGER

@<TRIPOS>ATOM
      1 O          -1.5819   -0.0616    0.6687 O.3     1  UNL1       -0.3899
      2 C          -0.8083    0.0289   -0.5288 C.3     1  UNL1        0.0752
      3 C           0.1394   -1.1444   -0.6081 C.3     1  UNL1       -0.0066
      4 C           1.2777   -0.8014    0.3639 C.3     1  UNL1        0.0248
      5 N           1.1538   -1.4426    1.6771 N.pl3   1  UNL1       -0.3408
      6 C           0.9552   -2.8093    1.8580 C.ar    1  UNL1        0.0273
      7 C           1.0297   -3.7418    0.8120 C.ar    1  UNL1       -0.0408
      8 C           0.7327   -5.0936    1.0109 C.ar    1  UNL1       -0.0600
      9 C           0.4943   -5.5680    2.2878 C.ar    1  UNL1       -0.0616
     10 C           0.5191   -4.6832    3.3649 C.ar    1  UNL1       -0.0600
     11 C           0.7363   -3.3147    3.1425 C.ar    1  UNL1       -0.0408
     12 C           1.2503    0.7461    0.4696 C.3     1  UNL1       -0.0137
     13 C           0.1521    1.2159   -0.5091 C.3     1  UNL1        0.0483
     14 N          -0.3915    2.5263   -0.1390 N.pl3   1  UNL1       -0.3384
     15 C          -1.4858    3.0680   -0.8192 C.ar    1  UNL1        0.0274
     16 C          -1.4197    4.4220   -1.1627 C.ar    1  UNL1       -0.0408
     17 C          -2.4920    5.0695   -1.7870 C.ar    1  UNL1       -0.0600
     18 C          -3.6526    4.3700   -2.0921 C.ar    1  UNL1       -0.0616
     19 C          -3.7635    3.0375   -1.7165 C.ar    1  UNL1       -0.0600
     20 C          -2.7025    2.4164   -1.0470 C.ar    1  UNL1       -0.0408
     21 H          -2.0935   -0.8883    0.6244 H       1  UNL1        0.2099
     22 H          -1.4707    0.0260   -1.3991 H       1  UNL1        0.0612
     23 H           0.5575   -1.2161   -1.6210 H       1  UNL1        0.0309
     24 H          -0.4030   -2.0673   -0.4018 H       1  UNL1        0.0309
     25 H           2.2398   -1.1171   -0.0560 H       1  UNL1        0.0499
     26 H           0.8170   -0.8559    2.4376 H       1  UNL1        0.1463
     27 H           1.2808   -3.4341   -0.1942 H       1  UNL1        0.0636
     28 H           0.6934   -5.7630    0.1541 H       1  UNL1        0.0618
     29 H           0.3040   -6.6261    2.4496 H       1  UNL1        0.0618
     30 H           0.3592   -5.0530    4.3714 H       1  UNL1        0.0618
     31 H           0.7289   -2.6454    4.0014 H       1  UNL1        0.0636
     32 H           2.2175    1.1653    0.1671 H       1  UNL1        0.0302
     33 H           1.0600    1.0904    1.4931 H       1  UNL1        0.0302
     34 H           0.6081    1.3198   -1.5032 H       1  UNL1        0.0523
     35 H          -0.4370    2.7029    0.8618 H       1  UNL1        0.1464
     36 H          -0.5064    4.9737   -0.9626 H       1  UNL1        0.0636
     37 H          -2.4102    6.1240   -2.0348 H       1  UNL1        0.0618
     38 H          -4.4760    4.8613   -2.6024 H       1  UNL1        0.0618
     39 H          -4.6746    2.4828   -1.9207 H       1  UNL1        0.0618
     40 H          -2.8893    1.4084   -0.6985 H       1  UNL1        0.0636
@<TRIPOS>BOND
     1     1     2    1
     2     2     3    1
     3     3     4    1
     4     5     6    1
     5     6     7   ar
     6     7     8   ar
     7     8     9   ar
     8     9    10   ar
     9    10    11   ar
    10     6    11   ar
    11     4    12    1
    12    12    13    1
    13     2    13    1
    14    13    14    1
    15    14    15    1
    16    15    16   ar
    17    16    17   ar
    18    17    18   ar
    19    18    19   ar
    20    19    20   ar
    21    15    20   ar
    22     4     5    1
    23     1    21    1
    24     2    22    1
    25     3    23    1
    26     3    24    1
    27     4    25    1
    28     5    26    1
    29     7    27    1
    30     8    28    1
    31     9    29    1
    32    10    30    1
    33    11    31    1
    34    12    32    1
    35    12    33    1
    36    13    34    1
    37    14    35    1
    38    16    36    1
    39    17    37    1
    40    18    38    1
    41    19    39    1
    42    20    40    1
