@<TRIPOS>MOLECULE
*****
 51 54 0 0 0
SMALL
GASTEIGER

@<TRIPOS>ATOM
      1 O           1.1911   -0.2199   -0.4920 O.2     1  UNL1       -0.2739
      2 C           2.3814   -0.1440   -0.1808 C.2     1  UNL1        0.2335
      3 C           3.0488    1.0932    0.4263 C.3     1  UNL1        0.0540
      4 C           2.1163    2.1946    0.8922 C.ar    1  UNL1        0.0028
      5 C           2.4798    3.5407    0.7085 C.ar    1  UNL1       -0.0547
      6 C           1.6319    4.5725    1.1231 C.ar    1  UNL1       -0.0613
      7 C           0.4009    4.2743    1.7044 C.ar    1  UNL1       -0.0583
      8 C           0.0353    2.9474    1.9153 C.ar    1  UNL1       -0.0199
      9 C           0.9170    1.9285    1.5630 C.ar    1  UNL1        0.1205
     10 O           0.6323    0.6489    1.9465 O.3     1  UNL1       -0.5065
     11 N           3.1713   -1.2379   -0.4398 N.am    1  UNL1       -0.2339
     12 N           4.5702   -1.2907   -0.3909 N.am    1  UNL1       -0.2303
     13 C           5.1827   -2.4331   -0.8836 C.2     1  UNL1        0.2637
     14 O           4.5332   -3.3844   -1.3268 O.2     1  UNL1       -0.2685
     15 C           6.6332   -2.4091   -0.8889 C.ar    1  UNL1        0.0838
     16 C           7.4936   -1.9746    0.1020 C.ar    1  UNL1        0.0440
     17 N           8.7747   -2.1307   -0.3807 N.ar    1  UNL1       -0.2385
     18 C           9.9805   -1.8832    0.3220 C.ar    1  UNL1        0.0654
     19 C          10.9847   -1.0940   -0.2534 C.ar    1  UNL1       -0.0363
     20 C          12.2117   -0.9433    0.4041 C.ar    1  UNL1       -0.0598
     21 C          12.4250   -1.5505    1.6422 C.ar    1  UNL1       -0.0616
     22 C          11.4200   -2.3290    2.2174 C.ar    1  UNL1       -0.0598
     23 C          10.1907   -2.4876    1.5679 C.ar    1  UNL1       -0.0363
     24 N           8.7835   -2.6176   -1.6442 N.ar    1  UNL1       -0.1656
     25 C           7.4936   -2.8650   -1.9292 C.ar    1  UNL1        0.1053
     26 C           7.0653   -3.3837   -3.2258 C.ar    1  UNL1        0.0029
     27 C           7.3460   -4.6916   -3.6365 C.ar    1  UNL1       -0.0525
     28 C           6.9100   -5.1355   -4.8910 C.ar    1  UNL1       -0.0611
     29 C           6.1283   -4.3066   -5.6983 C.ar    1  UNL1       -0.0617
     30 C           5.8246   -3.0137   -5.2813 C.ar    1  UNL1       -0.0611
     31 C           6.3028   -2.5514   -4.0574 C.ar    1  UNL1       -0.0525
     32 H           3.7067    1.4959   -0.3557 H       1  UNL1        0.0409
     33 H           3.6758    0.8030    1.2771 H       1  UNL1        0.0409
     34 H           3.4333    3.8015    0.2537 H       1  UNL1        0.0622
     35 H           1.9312    5.6099    0.9933 H       1  UNL1        0.0618
     36 H          -0.2600    5.0755    2.0235 H       1  UNL1        0.0619
     37 H          -0.9140    2.7188    2.3894 H       1  UNL1        0.0654
     38 H          -0.3258    0.5123    1.8484 H       1  UNL1        0.2921
     39 H           2.6973   -2.0462   -0.8487 H       1  UNL1        0.1728
     40 H           5.1035   -0.4576   -0.1737 H       1  UNL1        0.1731
     41 H           7.3179   -1.5604    1.0833 H       1  UNL1        0.0838
     42 H          10.8132   -0.5637   -1.1874 H       1  UNL1        0.0639
     43 H          13.0116   -0.3661   -0.0551 H       1  UNL1        0.0618
     44 H          13.3769   -1.4234    2.1546 H       1  UNL1        0.0618
     45 H          11.6089   -2.8380    3.1601 H       1  UNL1        0.0618
     46 H           9.4429   -3.1418    2.0082 H       1  UNL1        0.0639
     47 H           7.8806   -5.3775   -2.9835 H       1  UNL1        0.0624
     48 H           7.1747   -6.1303   -5.2412 H       1  UNL1        0.0618
     49 H           5.7480   -4.6705   -6.6493 H       1  UNL1        0.0618
     50 H           5.2196   -2.3619   -5.9049 H       1  UNL1        0.0618
     51 H           6.0619   -1.5397   -3.7437 H       1  UNL1        0.0624
@<TRIPOS>BOND
     1     1     2    2
     2     2     3    1
     3     3     4    1
     4     4     5   ar
     5     5     6   ar
     6     6     7   ar
     7     7     8   ar
     8     8     9   ar
     9     4     9   ar
    10     9    10    1
    11     2    11   am
    12    11    12    1
    13    12    13   am
    14    13    14    2
    15    13    15    1
    16    15    16   ar
    17    16    17   ar
    18    17    18    1
    19    18    19   ar
    20    19    20   ar
    21    20    21   ar
    22    21    22   ar
    23    22    23   ar
    24    18    23   ar
    25    17    24   ar
    26    24    25   ar
    27    15    25   ar
    28    25    26    1
    29    26    27   ar
    30    27    28   ar
    31    28    29   ar
    32    29    30   ar
    33    30    31   ar
    34    26    31   ar
    35     3    32    1
    36     3    33    1
    37     5    34    1
    38     6    35    1
    39     7    36    1
    40     8    37    1
    41    10    38    1
    42    11    39    1
    43    12    40    1
    44    16    41    1
    45    19    42    1
    46    20    43    1
    47    21    44    1
    48    22    45    1
    49    23    46    1
    50    27    47    1
    51    28    48    1
    52    29    49    1
    53    30    50    1
    54    31    51    1
