REMARK  3 active torsions:
REMARK  status: ('A' for Active; 'I' for Inactive)
REMARK    1  A    between atoms: C_2  and  C_3 
REMARK    2  A    between atoms: C_8  and  C_9 
REMARK       I    between atoms: C_9  and  N_11 
REMARK    3  A    between atoms: N_11  and  N_12 
ROOT
ATOM      1  C   UNL d   1       3.028   1.176   0.980  0.00  0.00    -0.010 C 
ATOM      2  C   UNL d   1       2.297   1.276   2.344  0.00  0.00     0.009 C 
ATOM      3  C   UNL d   1       0.865   1.836   2.272  0.00  0.00     0.040 C 
ATOM      4  C   UNL d   1       0.769   2.986   1.318  0.00  0.00    -0.043 A 
ATOM      5  C   UNL d   1      -0.355   3.848   1.165  0.00  0.00     0.032 A 
ATOM      6  C   UNL d   1      -0.154   4.855   0.236  0.00  0.00     0.074 A 
ATOM      7  S   UNL d   1       1.380   4.685  -0.513  0.00  0.00    -0.089 SA
ATOM      8  C   UNL d   1       1.763   3.299   0.412  0.00  0.00    -0.010 A 
ATOM      9  C   UNL d   1       3.057   2.550   0.254  0.00  0.00     0.051 C 
ENDROOT
BRANCH   6  10
ATOM     10  C   UNL d   1      -1.108   5.917  -0.076  0.00  0.00     0.272 C 
ATOM     11  O   UNL d   1      -2.213   5.995   0.478  0.00  0.00    -0.266 OA
ATOM     12  N   UNL d   1      -0.741   6.864  -1.034  0.00  0.00    -0.289 N 
ATOM     13  H   UNL d   1       0.200   6.850  -1.421  0.00  0.00     0.183 HD
BRANCH  12  14
ATOM     14  N   UNL d   1      -1.586   7.981  -1.293  0.00  0.00    -0.247 NA
ATOM     15  H   UNL d   1      -2.440   7.848  -0.730  0.00  0.00     0.143 HD
ATOM     16  H   UNL d   1      -1.911   7.927  -2.261  0.00  0.00     0.143 HD
ENDBRANCH  12  14
ENDBRANCH   6  10
BRANCH   1  17
ATOM     17  C   UNL d   1       2.531   0.036   0.056  0.00  0.00     0.000 C 
ATOM     18  C   UNL d   1       1.027  -0.107  -0.075  0.00  0.00     0.005 C 
ENDBRANCH   1  17
TORSDOF 3
