REMARK  11 active torsions:
REMARK  status: ('A' for Active; 'I' for Inactive)
REMARK    1  A    between atoms: C_2  and  O_3 
REMARK    2  A    between atoms: O_3  and  C_4 
REMARK    3  A    between atoms: C_7  and  C_8 
REMARK       I    between atoms: C_8  and  N_10 
REMARK    4  A    between atoms: N_10  and  N_11 
REMARK       I    between atoms: N_11  and  C_12 
REMARK    5  A    between atoms: C_14  and  C_12 
REMARK    6  A    between atoms: C_14  and  N_19 
REMARK    7  A    between atoms: C_14  and  C_15 
REMARK    8  A    between atoms: C_15  and  C_16 
REMARK    9  A    between atoms: C_16  and  S_17 
REMARK       I    between atoms: N_19  and  C_20 
REMARK   10  A    between atoms: C_20  and  C_22 
REMARK   11  A    between atoms: C_30  and  O_31 
ROOT
ATOM      1  N   UNL d   1      13.003   0.367   1.776  0.00  0.00    -0.265 N 
ATOM      2  C   UNL d   1      13.822   0.863   0.771  0.00  0.00     0.259 C 
ATOM      3  O   UNL d   1      14.880   0.287   0.504  0.00  0.00    -0.269 OA
ATOM      4  H   UNL d   1      12.044   0.661   1.938  0.00  0.00     0.190 HD
ENDROOT
BRANCH   2   5
ATOM      5  C   UNL d   1      13.341   2.184   0.074  0.00  0.00     0.179 C 
BRANCH   5   6
ATOM      6  N   UNL d   1      14.055   2.354  -1.211  0.00  0.00    -0.344 N 
ATOM      7  C   UNL d   1      15.414   2.642  -1.260  0.00  0.00     0.254 C 
ATOM      8  O   UNL d   1      16.125   2.736  -0.281  0.00  0.00    -0.268 OA
ATOM      9  H   UNL d   1      13.518   2.468  -2.060  0.00  0.00     0.163 HD
BRANCH   7  10
ATOM     10  C   UNL d   1      16.011   2.865  -2.609  0.00  0.00     0.053 A 
ATOM     11  C   UNL d   1      17.237   2.233  -2.898  0.00  0.00     0.019 A 
ATOM     12  C   UNL d   1      17.940   2.548  -4.068  0.00  0.00     0.001 A 
ATOM     13  C   UNL d   1      17.399   3.447  -4.983  0.00  0.00     0.002 A 
ATOM     14  C   UNL d   1      16.176   4.061  -4.712  0.00  0.00     0.025 A 
ATOM     15  C   UNL d   1      15.483   3.778  -3.527  0.00  0.00     0.049 A 
ATOM     16 CL   UNL d   1      14.003   4.630  -3.263  0.00  0.00    -0.083 Cl
ENDBRANCH   7  10
ENDBRANCH   5   6
BRANCH   5  17
ATOM     17  C   UNL d   1      11.812   2.153  -0.166  0.00  0.00     0.045 C 
BRANCH  17  18
ATOM     18  C   UNL d   1      11.018   2.916   0.913  0.00  0.00     0.076 C 
BRANCH  18  19
ATOM     19  S   UNL d   1       9.236   2.660   0.587  0.00  0.00    -0.173 SA
ATOM     20  C   UNL d   1       8.483   3.602   1.942  0.00  0.00     0.089 C 
ENDBRANCH  18  19
ENDBRANCH  17  18
ENDBRANCH   5  17
ENDBRANCH   2   5
BRANCH   1  21
ATOM     21  N   UNL d   1      13.328  -0.890   2.321  0.00  0.00    -0.263 N 
ATOM     22  C   UNL d   1      12.438  -1.491   3.204  0.00  0.00     0.270 C 
ATOM     23  O   UNL d   1      11.343  -0.994   3.450  0.00  0.00    -0.266 OA
ATOM     24  H   UNL d   1      14.257  -1.228   2.080  0.00  0.00     0.190 HD
BRANCH  22  25
ATOM     25  C   UNL d   1      12.880  -2.753   3.893  0.00  0.00     0.036 A 
ATOM     26  C   UNL d   1      12.065  -3.361   4.851  0.00  0.00     0.020 A 
ATOM     27  C   UNL d   1      12.531  -4.472   5.595  0.00  0.00     0.040 A 
ATOM     28  C   UNL d   1      13.795  -5.064   5.360  0.00  0.00     0.102 A 
ATOM     29  C   UNL d   1      14.582  -4.483   4.337  0.00  0.00     0.102 A 
ATOM     30  C   UNL d   1      14.117  -3.338   3.645  0.00  0.00     0.056 A 
BRANCH  28  31
ATOM     31  O   UNL d   1      13.958  -6.271   6.028  0.00  0.00    -0.349 OA
BRANCH  31  32
ATOM     32  C   UNL d   1      15.117  -6.489   6.833  0.00  0.00     0.171 C 
ATOM     33  C   UNL d   1      15.325  -7.902   7.349  0.00  0.00     0.034 C 
ENDBRANCH  31  32
ENDBRANCH  28  31
BRANCH  29  34
ATOM     34  O   UNL d   1      15.778  -4.834   3.753  0.00  0.00    -0.353 OA
ATOM     35  C   UNL d   1      16.515  -5.815   4.408  0.00  0.00     0.210 C 
ENDBRANCH  29  34
ENDBRANCH  22  25
ENDBRANCH   1  21
TORSDOF 11
