@<TRIPOS>MOLECULE
*****
 56 59 0 0 0
SMALL
GASTEIGER

@<TRIPOS>ATOM
      1 C           0.9396    0.4229   -0.1303 C.3     1  UNL1       -0.0259
      2 C           2.3954    0.0788   -0.0717 C.2     1  UNL1        0.0181
      3 C           2.9572   -1.1567    0.0213 C.2     1  UNL1        0.0601
      4 C           2.2947   -2.5280    0.0714 C.2     1  UNL1        0.2481
      5 O           3.0173   -3.5073   -0.0133 O.2     1  UNL1       -0.2701
      6 N           0.9194   -2.6322    0.1632 N.am    1  UNL1       -0.2814
      7 C           0.1610   -3.7987    0.2911 C.ar    1  UNL1        0.0366
      8 C          -1.0109   -3.8751   -0.4898 C.ar    1  UNL1       -0.0402
      9 C          -1.8479   -4.9777   -0.3847 C.ar    1  UNL1       -0.0600
     10 C          -1.5382   -5.9688    0.5401 C.ar    1  UNL1       -0.0614
     11 C          -0.4273   -5.8355    1.3834 C.ar    1  UNL1       -0.0571
     12 C           0.4302   -4.7375    1.2830 C.ar    1  UNL1       -0.0292
     13 C           1.4987   -4.5098    2.3148 C.3     1  UNL1       -0.0380
     14 C           4.5263   -1.2668    0.0250 C.3     1  UNL1        0.1123
     15 C           5.0645   -1.8397   -1.2902 C.ar    1  UNL1       -0.0182
     16 C           4.7634   -1.2137   -2.5136 C.ar    1  UNL1       -0.0528
     17 C           5.2915   -1.6895   -3.7128 C.ar    1  UNL1       -0.0198
     18 C           6.1190   -2.8054   -3.6966 C.ar    1  UNL1        0.1169
     19 O           6.6862   -3.2894   -4.8382 O.3     1  UNL1       -0.5068
     20 C           6.4012   -3.4649   -2.5065 C.ar    1  UNL1       -0.0198
     21 C           5.8764   -2.9866   -1.3034 C.ar    1  UNL1       -0.0528
     22 N           5.1681    0.0468    0.2487 N.ar    1  UNL1       -0.2205
     23 N           6.4738    0.2506    0.5450 N.ar    1  UNL1       -0.1526
     24 C           6.5434    1.5952    0.5195 C.ar    1  UNL1        0.1530
     25 C           7.7935    2.3781    0.7817 C.3     1  UNL1        0.0112
     26 C           9.0264    1.5042    1.0048 C.3     1  UNL1       -0.0228
     27 C          10.2811    2.3187    1.2795 C.3     1  UNL1        0.0446
     28 O          11.3902    1.4477    1.4705 O.3     1  UNL1       -0.3950
     29 N           5.3495    2.2294    0.2528 N.ar    1  UNL1       -0.1978
     30 C           4.5134    1.2339    0.1061 C.ar    1  UNL1        0.2187
     31 N           3.1949    1.2192   -0.1392 N.pl3   1  UNL1       -0.2872
     32 H           0.2609   -0.3909   -0.1384 H       1  UNL1        0.0290
     33 H           0.6917    0.9307   -1.0632 H       1  UNL1        0.0290
     34 H           0.6414    0.9979    0.7490 H       1  UNL1        0.0290
     35 H           0.2858   -1.8891    0.0391 H       1  UNL1        0.1551
     36 H          -1.2617   -3.0971   -1.2098 H       1  UNL1        0.0636
     37 H          -2.7240   -5.0674   -1.0229 H       1  UNL1        0.0618
     38 H          -2.1718   -6.8465    0.6214 H       1  UNL1        0.0618
     39 H          -0.2400   -6.5915    2.1397 H       1  UNL1        0.0621
     40 H           1.5282   -5.3141    3.0502 H       1  UNL1        0.0278
     41 H           1.3176   -3.5657    2.8458 H       1  UNL1        0.0278
     42 H           2.4922   -4.4791    1.8742 H       1  UNL1        0.0278
     43 H           4.8537   -1.8723    0.8832 H       1  UNL1        0.0648
     44 H           4.1226   -0.3355   -2.5364 H       1  UNL1        0.0622
     45 H           5.0511   -1.1703   -4.6339 H       1  UNL1        0.0654
     46 H           6.4429   -2.7090   -5.5770 H       1  UNL1        0.2921
     47 H           7.0356   -4.3466   -2.5161 H       1  UNL1        0.0654
     48 H           6.1044   -3.5206   -0.3828 H       1  UNL1        0.0622
     49 H           7.6329    3.0146    1.6622 H       1  UNL1        0.0345
     50 H           7.9737    3.0581   -0.0616 H       1  UNL1        0.0345
     51 H           9.1985    0.8658    0.1292 H       1  UNL1        0.0291
     52 H           8.8535    0.8206    1.8456 H       1  UNL1        0.0291
     53 H          10.1723    2.9342    2.1778 H       1  UNL1        0.0557
     54 H          10.5152    2.9760    0.4367 H       1  UNL1        0.0557
     55 H          11.1726    0.8486    2.2057 H       1  UNL1        0.2094
     56 H           2.7308    2.1099   -0.2948 H       1  UNL1        0.1547
@<TRIPOS>BOND
     1     1     2    1
     2     2     3    2
     3     3     4    1
     4     4     5    2
     5     4     6   am
     6     6     7    1
     7     7     8   ar
     8     8     9   ar
     9     9    10   ar
    10    10    11   ar
    11    11    12   ar
    12     7    12   ar
    13    12    13    1
    14     3    14    1
    15    14    15    1
    16    15    16   ar
    17    16    17   ar
    18    17    18   ar
    19    18    19    1
    20    18    20   ar
    21    20    21   ar
    22    15    21   ar
    23    14    22    1
    24    22    23   ar
    25    23    24   ar
    26    24    25    1
    27    25    26    1
    28    26    27    1
    29    27    28    1
    30    24    29   ar
    31    29    30   ar
    32    22    30   ar
    33    30    31    1
    34     2    31    1
    35     1    32    1
    36     1    33    1
    37     1    34    1
    38     6    35    1
    39     8    36    1
    40     9    37    1
    41    10    38    1
    42    11    39    1
    43    13    40    1
    44    13    41    1
    45    13    42    1
    46    14    43    1
    47    16    44    1
    48    17    45    1
    49    19    46    1
    50    20    47    1
    51    21    48    1
    52    25    49    1
    53    25    50    1
    54    26    51    1
    55    26    52    1
    56    27    53    1
    57    27    54    1
    58    28    55    1
    59    31    56    1
