@<TRIPOS>MOLECULE
*****
 64 66 0 0 0
SMALL
GASTEIGER

@<TRIPOS>ATOM
      1 C           0.9658   -0.0812   -0.1145 C.3     1  UNL1       -0.0652
      2 C           2.4570   -0.3622   -0.1752 C.3     1  UNL1       -0.0528
      3 C           3.0345   -0.5672    1.2232 C.3     1  UNL1       -0.0189
      4 C           4.5493   -0.7931    1.1812 C.3     1  UNL1        0.0897
      5 O           5.0220   -0.8333    2.5276 O.3     1  UNL1       -0.4901
      6 C           6.3472   -0.5844    2.7688 C.ar    1  UNL1        0.1416
      7 C           6.9190   -1.5075    3.6675 C.ar    1  UNL1       -0.0181
      8 C           8.2526   -1.4113    4.0633 C.ar    1  UNL1       -0.0582
      9 C           9.0521   -0.4196    3.5117 C.ar    1  UNL1       -0.0598
     10 C           8.4948    0.5167    2.6251 C.ar    1  UNL1       -0.0369
     11 C           7.1251    0.4843    2.2803 C.ar    1  UNL1        0.0756
     12 N           6.6414    1.5335    1.4400 N.am    1  UNL1       -0.2813
     13 C           5.3385    2.0236    1.4584 C.2     1  UNL1        0.2344
     14 O           4.5649    1.8969    2.4084 O.2     1  UNL1       -0.2737
     15 C           4.8563    2.6917    0.1395 C.3     1  UNL1        0.0861
     16 N           3.4047    2.5389    0.0105 N.pl3   1  UNL1       -0.3354
     17 C           2.5835    3.0783   -0.9529 C.ar    1  UNL1        0.0283
     18 C           1.2758    3.4154   -0.5956 C.ar    1  UNL1       -0.0394
     19 C           0.4326    4.0742   -1.4834 C.ar    1  UNL1       -0.0409
     20 C           0.8969    4.4474   -2.7454 C.ar    1  UNL1        0.0532
     21 CL         -0.1698    5.4946   -3.6211 Cl      1  UNL1       -0.0828
     22 C           2.1716    4.0327   -3.1803 C.ar    1  UNL1        0.0567
     23 C           2.6459    4.3075   -4.5742 C.2     1  UNL1        0.2458
     24 O           1.9362    4.9319   -5.3734 O.2     1  UNL1       -0.2701
     25 N           3.8897    3.8488   -4.9758 N.am    1  UNL1       -0.3085
     26 C           4.3896    4.1601   -6.3115 C.3     1  UNL1        0.0234
     27 C           4.6761    5.6645   -6.4442 C.3     1  UNL1       -0.0345
     28 C           5.2237    6.0181   -7.8201 C.3     1  UNL1       -0.0514
     29 C           6.4696    5.2053   -8.1438 C.3     1  UNL1       -0.0529
     30 C           6.1909    3.7095   -8.0285 C.3     1  UNL1       -0.0514
     31 C           5.6458    3.3449   -6.6470 C.3     1  UNL1       -0.0345
     32 C           2.9979    3.3454   -2.2613 C.ar    1  UNL1       -0.0273
     33 H           0.5866    0.1889   -1.1049 H       1  UNL1        0.0230
     34 H           0.7256    0.7407    0.5701 H       1  UNL1        0.0230
     35 H           0.4386   -0.9718    0.2334 H       1  UNL1        0.0230
     36 H           2.9519    0.4469   -0.7078 H       1  UNL1        0.0264
     37 H           2.6650   -1.2355   -0.7955 H       1  UNL1        0.0264
     38 H           2.5546   -1.4263    1.7021 H       1  UNL1        0.0298
     39 H           2.7807    0.2796    1.8773 H       1  UNL1        0.0298
     40 H           5.0074   -0.0263    0.5633 H       1  UNL1        0.0696
     41 H           4.7961   -1.7308    0.6795 H       1  UNL1        0.0696
     42 H           6.3108   -2.3208    4.0590 H       1  UNL1        0.0655
     43 H           8.6595   -2.1075    4.7945 H       1  UNL1        0.0619
     44 H          10.1047   -0.3678    3.7862 H       1  UNL1        0.0618
     45 H           9.1486    1.3042    2.2584 H       1  UNL1        0.0637
     46 H           7.3376    2.1006    0.9743 H       1  UNL1        0.1550
     47 H           5.3564    2.2372   -0.7236 H       1  UNL1        0.0557
     48 H           5.0960    3.7511    0.2162 H       1  UNL1        0.0557
     49 H           2.9529    2.1055    0.8165 H       1  UNL1        0.1466
     50 H           0.9112    3.2026    0.4073 H       1  UNL1        0.0636
     51 H          -0.5763    4.3316   -1.1680 H       1  UNL1        0.0633
     52 H           4.4858    3.3114   -4.3667 H       1  UNL1        0.1493
     53 H           3.5972    3.8825   -7.0201 H       1  UNL1        0.0498
     54 H           5.3899    5.9712   -5.6689 H       1  UNL1        0.0283
     55 H           3.7686    6.2528   -6.2740 H       1  UNL1        0.0283
     56 H           5.4533    7.0883   -7.8581 H       1  UNL1        0.0266
     57 H           4.4536    5.8267   -8.5778 H       1  UNL1        0.0266
     58 H           7.2779    5.4838   -7.4563 H       1  UNL1        0.0265
     59 H           6.8113    5.4447   -9.1566 H       1  UNL1        0.0265
     60 H           7.1090    3.1468   -8.2287 H       1  UNL1        0.0266
     61 H           5.4615    3.4181   -8.7948 H       1  UNL1        0.0266
     62 H           6.4218    3.5244   -5.8912 H       1  UNL1        0.0283
     63 H           5.4213    2.2719   -6.6139 H       1  UNL1        0.0283
     64 H           3.9735    2.9803   -2.5511 H       1  UNL1        0.0644
@<TRIPOS>BOND
     1     1     2    1
     2     2     3    1
     3     3     4    1
     4     4     5    1
     5     5     6    1
     6     6     7   ar
     7     7     8   ar
     8     8     9   ar
     9     9    10   ar
    10    10    11   ar
    11     6    11   ar
    12    11    12    1
    13    12    13   am
    14    13    14    2
    15    13    15    1
    16    15    16    1
    17    16    17    1
    18    17    18   ar
    19    18    19   ar
    20    19    20   ar
    21    20    21    1
    22    20    22   ar
    23    22    23    1
    24    23    24    2
    25    23    25   am
    26    25    26    1
    27    26    27    1
    28    27    28    1
    29    28    29    1
    30    29    30    1
    31    30    31    1
    32    26    31    1
    33    22    32   ar
    34    17    32   ar
    35     1    33    1
    36     1    34    1
    37     1    35    1
    38     2    36    1
    39     2    37    1
    40     3    38    1
    41     3    39    1
    42     4    40    1
    43     4    41    1
    44     7    42    1
    45     8    43    1
    46     9    44    1
    47    10    45    1
    48    12    46    1
    49    15    47    1
    50    15    48    1
    51    16    49    1
    52    18    50    1
    53    19    51    1
    54    25    52    1
    55    26    53    1
    56    27    54    1
    57    27    55    1
    58    28    56    1
    59    28    57    1
    60    29    58    1
    61    29    59    1
    62    30    60    1
    63    30    61    1
    64    31    62    1
    65    31    63    1
    66    32    64    1
