REMARK  10 active torsions:
REMARK  status: ('A' for Active; 'I' for Inactive)
REMARK    1  A    between atoms: C_2  and  C_3 
REMARK    2  A    between atoms: C_4  and  C_3 
REMARK    3  A    between atoms: C_4  and  N_15 
REMARK    4  A    between atoms: C_4  and  C_5 
REMARK       I    between atoms: C_5  and  N_7 
REMARK    5  A    between atoms: N_7  and  C_8 
REMARK    6  A    between atoms: C_8  and  C_9 
REMARK       I    between atoms: N_15  and  C_16 
REMARK    7  A    between atoms: N_15  and  C_27 
REMARK    8  A    between atoms: C_16  and  C_18 
REMARK    9  A    between atoms: C_21  and  C_22 
REMARK       I    between atoms: C_22  and  N_23 
REMARK   10  A    between atoms: C_25  and  N_26 
ROOT
ATOM      1  N   UNL d   1       4.982   2.441   1.398  0.00  0.00    -0.296 N 
ATOM      2  C   UNL d   1       4.084   3.395   2.019  0.00  0.00     0.269 C 
ATOM      3  O   UNL d   1       4.519   4.466   2.450  0.00  0.00    -0.266 OA
ENDROOT
BRANCH   1   4
ATOM      4  C   UNL d   1       4.540   1.222   0.589  0.00  0.00     0.185 C 
BRANCH   4   5
ATOM      5  C   UNL d   1       3.068   0.704   0.415  0.00  0.00     0.241 C 
ATOM      6  O   UNL d   1       2.604  -0.131   1.154  0.00  0.00    -0.271 OA
ATOM      7  N   UNL d   1       2.327   1.206  -0.639  0.00  0.00    -0.355 N 
ATOM      8  H   UNL d   1       2.731   1.117  -1.564  0.00  0.00     0.162 HD
BRANCH   7   9
ATOM      9  C   UNL d   1       0.900   1.087  -0.646  0.00  0.00     0.161 C 
BRANCH   9  10
ATOM     10  C   UNL d   1       0.361   1.200  -2.022  0.00  0.00    -0.041 A 
ATOM     11  C   UNL d   1      -0.116   0.069  -2.678  0.00  0.00     0.009 A 
ATOM     12  C   UNL d   1      -0.478   0.174  -4.011  0.00  0.00     0.001 A 
ATOM     13  C   UNL d   1      -0.441   1.417  -4.649  0.00  0.00     0.000 A 
ATOM     14  C   UNL d   1      -0.004   2.557  -3.975  0.00  0.00     0.001 A 
ATOM     15  C   UNL d   1       0.406   2.446  -2.660  0.00  0.00     0.009 A 
ENDBRANCH   9  10
ENDBRANCH   7   9
ENDBRANCH   4   5
BRANCH   4  16
ATOM     16  C   UNL d   1       5.056   1.154  -0.840  0.00  0.00     0.035 C 
BRANCH  16  17
ATOM     17  C   UNL d   1       4.772   2.498  -1.545  0.00  0.00    -0.002 C 
ATOM     18  C   UNL d   1       5.230   2.446  -2.974  0.00  0.00     0.005 C 
ENDBRANCH  16  17
ENDBRANCH   4  16
ENDBRANCH   1   4
BRANCH   1  19
ATOM     19  C   UNL d   1       6.465   2.699   1.525  0.00  0.00     0.077 A 
ATOM     20  C   UNL d   1       7.016   3.171   2.732  0.00  0.00     0.033 A 
ATOM     21  C   UNL d   1       8.384   3.536   2.844  0.00  0.00     0.002 A 
ATOM     22  C   UNL d   1       9.279   3.341   1.797  0.00  0.00     0.003 A 
ATOM     23  C   UNL d   1       8.793   2.833   0.621  0.00  0.00     0.044 A 
ATOM     24  C   UNL d   1       7.428   2.572   0.489  0.00  0.00     0.143 A 
ATOM     25  F   UNL d   1       7.129   2.371  -0.789  0.00  0.00    -0.204 F 
ENDBRANCH   1  19
BRANCH   2  26
ATOM     26  C   UNL d   1       2.649   3.127   2.116  0.00  0.00     0.115 C 
ATOM     27  S   UNL d   1       1.497   4.249   1.511  0.00  0.00     0.019 SA
ATOM     28  N   UNL d   1       0.137   3.294   1.754  0.00  0.00    -0.203 NA
ATOM     29  C   UNL d   1       0.523   2.136   2.317  0.00  0.00     0.155 C 
ATOM     30  C   UNL d   1       1.929   2.104   2.699  0.00  0.00     0.065 C 
BRANCH  29  31
ATOM     31  C   UNL d   1      -0.352   0.925   2.343  0.00  0.00     0.270 C 
ATOM     32  N   UNL d   1      -1.657   1.035   1.938  0.00  0.00    -0.365 N 
ATOM     33  H   UNL d   1      -2.071   1.904   1.637  0.00  0.00     0.159 HD
ATOM     34  H   UNL d   1      -2.214   0.190   1.981  0.00  0.00     0.159 HD
ATOM     35  O   UNL d   1       0.060  -0.200   2.620  0.00  0.00    -0.266 OA
ENDBRANCH  29  31
BRANCH  30  36
ATOM     36  N   UNL d   1       2.505   1.036   3.315  0.00  0.00    -0.299 NA
ATOM     37  H   UNL d   1       2.015   0.157   3.056  0.00  0.00     0.124 HD
ATOM     38  H   UNL d   1       3.474   0.841   3.077  0.00  0.00     0.124 HD
ENDBRANCH  30  36
ENDBRANCH   2  26
TORSDOF 10
