@<TRIPOS>MOLECULE
*****
 52 56 0 0 0
SMALL
GASTEIGER

@<TRIPOS>ATOM
      1 O           0.9152    0.1573   -0.0800 O.2     1  UNL1       -0.2671
      2 C           2.1311    0.0614   -0.0288 C.2     1  UNL1        0.2764
      3 N           2.7901    0.1397    1.2096 N.am    1  UNL1       -0.2292
      4 N           1.9826    0.3453    2.4319 N.am    1  UNL1       -0.2337
      5 C           2.6080    0.6078    3.6283 C.2     1  UNL1        0.2353
      6 O           3.8525    0.5986    3.6315 O.2     1  UNL1       -0.2737
      7 C           1.8195    0.7797    5.0339 C.3     1  UNL1        0.0492
      8 C           0.2458    1.0778    5.3408 C.3     1  UNL1       -0.0361
      9 C           0.0113    1.1883    6.9021 C.3     1  UNL1       -0.0396
     10 C           0.3820   -0.1902    7.4740 C.3     1  UNL1       -0.0473
     11 C           1.8740   -0.4360    7.2990 C.3     1  UNL1       -0.0396
     12 C           2.6549    0.7245    7.9314 C.3     1  UNL1       -0.0473
     13 C           2.3377    2.0468    7.2198 C.3     1  UNL1       -0.0396
     14 C           0.8629    2.3759    7.3805 C.3     1  UNL1       -0.0473
     15 C           2.6311    1.9298    5.7249 C.3     1  UNL1       -0.0361
     16 C           2.1780   -0.5328    5.7985 C.3     1  UNL1       -0.0361
     17 C           2.9493   -0.1462   -1.2362 C.ar    1  UNL1        0.1043
     18 C           4.0290   -0.9863   -1.4407 C.ar    1  UNL1       -0.0241
     19 C           4.3831   -0.9715   -2.8205 C.ar    1  UNL1        0.0006
     20 C           5.3505   -1.6606   -3.5713 C.ar    1  UNL1       -0.0491
     21 C           5.4445   -1.4630   -4.9516 C.ar    1  UNL1       -0.0189
     22 C           4.5956   -0.5781   -5.6115 C.ar    1  UNL1        0.1320
     23 O           4.6310   -0.3507   -6.9684 O.3     1  UNL1       -0.4057
     24 C           5.5941   -1.0890   -7.7242 C.3     1  UNL1        0.5752
     25 F           6.8544   -0.8030   -7.3249 F       1  UNL1       -0.1328
     26 F           5.3859   -2.4216   -7.6202 F       1  UNL1       -0.1328
     27 F           5.4934   -0.7590   -9.0318 F       1  UNL1       -0.1328
     28 C           3.6221    0.1374   -4.8727 C.ar    1  UNL1        0.0043
     29 C           3.5266   -0.0891   -3.4730 C.ar    1  UNL1        0.0505
     30 N           2.6677    0.4006   -2.4932 N.ar    1  UNL1       -0.3504
     31 H           3.8050    0.1746    1.3055 H       1  UNL1        0.1732
     32 H           0.9801    0.3308    2.2979 H       1  UNL1        0.1728
     33 H          -0.4309    0.2858    4.9868 H       1  UNL1        0.0278
     34 H          -0.1358    2.0115    4.9030 H       1  UNL1        0.0278
     35 H          -1.0248    1.3954    7.2080 H       1  UNL1        0.0301
     36 H          -0.1763   -0.9582    6.9179 H       1  UNL1        0.0271
     37 H           0.0896   -0.3116    8.5227 H       1  UNL1        0.0271
     38 H           2.1497   -1.3792    7.7839 H       1  UNL1        0.0301
     39 H           3.7300    0.5205    7.8790 H       1  UNL1        0.0271
     40 H           2.3934    0.8090    8.9937 H       1  UNL1        0.0271
     41 H           2.9468    2.8537    7.6433 H       1  UNL1        0.0301
     42 H           0.6189    3.2506    6.7583 H       1  UNL1        0.0271
     43 H           0.6474    2.6750    8.4117 H       1  UNL1        0.0271
     44 H           3.7120    1.7742    5.6243 H       1  UNL1        0.0278
     45 H           2.4176    2.8778    5.2121 H       1  UNL1        0.0278
     46 H           1.6366   -1.3757    5.3492 H       1  UNL1        0.0278
     47 H           3.2445   -0.7666    5.6876 H       1  UNL1        0.0278
     48 H           4.4821   -1.6255   -0.6952 H       1  UNL1        0.0646
     49 H           6.0236   -2.3622   -3.0888 H       1  UNL1        0.0625
     50 H           6.2059   -2.0391   -5.4696 H       1  UNL1        0.0654
     51 H           2.9559    0.8329   -5.3793 H       1  UNL1        0.0675
     52 H           1.9149    1.0524   -2.6706 H       1  UNL1        0.1660
@<TRIPOS>BOND
     1     1     2    2
     2     2     3   am
     3     3     4    1
     4     4     5   am
     5     5     6    2
     6     5     7    1
     7     7     8    1
     8     8     9    1
     9     9    10    1
    10    10    11    1
    11    11    12    1
    12    12    13    1
    13    13    14    1
    14     9    14    1
    15    13    15    1
    16     7    15    1
    17    11    16    1
    18     7    16    1
    19     2    17    1
    20    17    18   ar
    21    18    19   ar
    22    19    20   ar
    23    20    21   ar
    24    21    22   ar
    25    22    23    1
    26    23    24    1
    27    24    25    1
    28    24    26    1
    29    24    27    1
    30    22    28   ar
    31    28    29   ar
    32    19    29   ar
    33    29    30   ar
    34    17    30   ar
    35     3    31    1
    36     4    32    1
    37     8    33    1
    38     8    34    1
    39     9    35    1
    40    10    36    1
    41    10    37    1
    42    11    38    1
    43    12    39    1
    44    12    40    1
    45    13    41    1
    46    14    42    1
    47    14    43    1
    48    15    44    1
    49    15    45    1
    50    16    46    1
    51    16    47    1
    52    18    48    1
    53    20    49    1
    54    21    50    1
    55    28    51    1
    56    30    52    1
