@<TRIPOS>MOLECULE
*****
 54 56 0 0 0
SMALL
GASTEIGER

@<TRIPOS>ATOM
      1 O           1.1372   -0.0888   -0.1825 O.2     1  UNL1       -0.2704
      2 C           2.3519    0.0510   -0.0306 C.2     1  UNL1        0.2424
      3 C           2.8877    1.0833    0.8884 C.2     1  UNL1        0.0011
      4 C           2.2431    1.9736    1.6533 C.2     1  UNL1       -0.0497
      5 C           3.0176    2.9988    2.3955 C.ar    1  UNL1       -0.0245
      6 C           2.6052    3.4134    3.6662 C.ar    1  UNL1       -0.0482
      7 C           3.2120    4.5141    4.2912 C.ar    1  UNL1        0.0161
      8 C           4.3044    5.1494    3.6848 C.ar    1  UNL1        0.2732
      9 N           4.9985    6.2428    4.3783 N.pl3   1  UNL1        0.0796
     10 O           4.5678    6.5877    5.4873 O.2     1  UNL1        0.0414
     11 O           5.9865    6.7446    3.8212 O.co2   1  UNL1       -0.5760
     12 C           4.7643    4.7194    2.4393 C.ar    1  UNL1        0.0161
     13 C           4.1181    3.6545    1.8034 C.ar    1  UNL1       -0.0482
     14 N           3.2679   -0.7561   -0.7432 N.am    1  UNL1       -0.2632
     15 C           4.6806   -0.8420   -0.8360 C.2     1  UNL1        0.1533
     16 S           5.8245    0.1135   -0.0323 S.2     1  UNL1       -0.0170
     17 N           5.1640   -1.8367   -1.6922 N.am    1  UNL1       -0.2454
     18 N           6.5903   -1.9251   -1.8358 N.am    1  UNL1       -0.2323
     19 C           7.2049   -2.8249   -2.6788 C.2     1  UNL1        0.2667
     20 O           6.5519   -3.6513   -3.3234 O.2     1  UNL1       -0.2705
     21 C           8.7461   -2.7119   -2.6942 C.3     1  UNL1        0.1666
     22 O           9.3265   -3.7079   -3.5369 O.3     1  UNL1       -0.4821
     23 C          10.6853   -3.9138   -3.5436 C.ar    1  UNL1        0.1289
     24 C          11.2223   -4.2257   -4.8033 C.ar    1  UNL1       -0.0193
     25 C          12.5639   -4.6043   -4.9531 C.ar    1  UNL1       -0.0583
     26 C          13.4082   -4.6286   -3.8521 C.ar    1  UNL1       -0.0610
     27 C          12.8908   -4.3235   -2.5996 C.ar    1  UNL1       -0.0505
     28 C          11.5295   -3.9798   -2.4222 C.ar    1  UNL1        0.0238
     29 C          11.0797   -3.7656   -1.0528 C.ar    1  UNL1       -0.0144
     30 C          11.6315   -2.7225   -0.2959 C.ar    1  UNL1       -0.0539
     31 C          11.2272   -2.5256    1.0178 C.ar    1  UNL1       -0.0612
     32 C          10.1880   -3.2921    1.5447 C.ar    1  UNL1       -0.0617
     33 C           9.5896   -4.2945    0.7826 C.ar    1  UNL1       -0.0612
     34 C          10.0643   -4.5614   -0.4964 C.ar    1  UNL1       -0.0539
     35 H           3.9454    1.1516    0.9555 H       1  UNL1        0.0670
     36 H           1.1606    2.0084    1.7079 H       1  UNL1        0.0625
     37 H           1.8090    2.8841    4.1860 H       1  UNL1        0.0626
     38 H           2.8146    4.8690    5.2400 H       1  UNL1        0.0685
     39 H           5.6005    5.2064    1.9407 H       1  UNL1        0.0685
     40 H           4.4886    3.3528    0.8248 H       1  UNL1        0.0626
     41 H           2.7435   -1.4036   -1.3230 H       1  UNL1        0.1568
     42 H           4.6215   -2.4936   -2.2542 H       1  UNL1        0.1718
     43 H           7.1224   -1.2898   -1.2356 H       1  UNL1        0.1729
     44 H           9.0187   -2.7927   -1.6480 H       1  UNL1        0.0795
     45 H           9.0621   -1.7179   -3.0274 H       1  UNL1        0.0795
     46 H          10.5875   -4.1839   -5.6853 H       1  UNL1        0.0654
     47 H          12.9466   -4.8980   -5.9272 H       1  UNL1        0.0619
     48 H          14.4561   -4.8982   -3.9561 H       1  UNL1        0.0618
     49 H          13.5472   -4.3933   -1.7318 H       1  UNL1        0.0625
     50 H          12.3675   -2.0543   -0.7418 H       1  UNL1        0.0624
     51 H          11.7205   -1.7716    1.6236 H       1  UNL1        0.0618
     52 H           9.8372   -3.0994    2.5536 H       1  UNL1        0.0618
     53 H           8.7520   -4.8641    1.1745 H       1  UNL1        0.0618
     54 H           9.5785   -5.3233   -1.1065 H       1  UNL1        0.0624
@<TRIPOS>UNITY_ATOM_ATTR
9 1
charge 1
11 1
charge -1
@<TRIPOS>BOND
     1     1     2    2
     2     2     3    1
     3     3     4    2
     4     4     5    1
     5     5     6   ar
     6     6     7   ar
     7     7     8   ar
     8     8     9    1
     9     9    10    2
    10     9    11    1
    11     8    12   ar
    12    12    13   ar
    13     5    13   ar
    14     2    14   am
    15    14    15    1
    16    15    16    2
    17    15    17    1
    18    17    18    1
    19    18    19   am
    20    19    20    2
    21    19    21    1
    22    21    22    1
    23    22    23    1
    24    23    24   ar
    25    24    25   ar
    26    25    26   ar
    27    26    27   ar
    28    27    28   ar
    29    23    28   ar
    30    28    29    1
    31    29    30   ar
    32    30    31   ar
    33    31    32   ar
    34    32    33   ar
    35    33    34   ar
    36    29    34   ar
    37     3    35    1
    38     4    36    1
    39     6    37    1
    40     7    38    1
    41    12    39    1
    42    13    40    1
    43    14    41    1
    44    17    42    1
    45    18    43    1
    46    21    44    1
    47    21    45    1
    48    24    46    1
    49    25    47    1
    50    26    48    1
    51    27    49    1
    52    30    50    1
    53    31    51    1
    54    32    52    1
    55    33    53    1
    56    34    54    1
