REMARK  11 active torsions:
REMARK  status: ('A' for Active; 'I' for Inactive)
REMARK    1  A    between atoms: C_2  and  C_3 
REMARK    2  A    between atoms: C_4  and  C_3 
REMARK    3  A    between atoms: C_4  and  N_13 
REMARK    4  A    between atoms: C_4  and  C_5 
REMARK       I    between atoms: C_5  and  N_7 
REMARK    5  A    between atoms: N_7  and  C_8 
REMARK    6  A    between atoms: C_8  and  C_9 
REMARK    7  A    between atoms: C_9  and  C_10 
REMARK       I    between atoms: N_13  and  C_14 
REMARK    8  A    between atoms: N_13  and  C_25 
REMARK    9  A    between atoms: C_14  and  C_16 
REMARK   10  A    between atoms: C_19  and  C_20 
REMARK       I    between atoms: C_20  and  N_21 
REMARK   11  A    between atoms: C_23  and  N_24 
ROOT
ATOM      1  N   UNL d   1       4.931   2.587  -1.405  0.00  0.00    -0.300 N 
ATOM      2  C   UNL d   1       4.062   3.653  -1.946  0.00  0.00     0.269 C 
ATOM      3  O   UNL d   1       4.572   4.675  -2.424  0.00  0.00    -0.266 OA
ENDROOT
BRANCH   1   4
ATOM      4  C   UNL d   1       4.540   1.142  -0.811  0.00  0.00     0.179 C 
BRANCH   4   5
ATOM      5  C   UNL d   1       3.096   0.798  -0.498  0.00  0.00     0.220 C 
ATOM      6  O   UNL d   1       2.404  -0.134  -1.025  0.00  0.00    -0.278 OA
ATOM      7  N   UNL d   1       2.644   1.643   0.456  0.00  0.00    -0.261 NA
ATOM      8  H   UNL d   1       3.092   2.453   0.071  0.00  0.00     0.130 HD
BRANCH   7   9
ATOM      9  C   UNL d   1       1.201   1.810   0.640  0.00  0.00     0.095 C 
BRANCH   9  10
ATOM     10  C   UNL d   1       0.205   3.443   1.159  0.00  0.00     0.018 C 
BRANCH  10  11
ATOM     11  C   UNL d   1      -1.396   3.860   0.969  0.00  0.00    -0.022 C 
ATOM     12  C   UNL d   1      -2.198   3.091   1.995  0.00  0.00     0.009 C 
ATOM     13  C   UNL d   1      -1.785   5.351   1.113  0.00  0.00     0.009 C 
ENDBRANCH  10  11
ENDBRANCH   9  10
ENDBRANCH   7   9
ENDBRANCH   4   5
BRANCH   4  14
ATOM     14  C   UNL d   1       4.888  -0.188  -1.485  0.00  0.00     0.034 C 
BRANCH  14  15
ATOM     15  C   UNL d   1       6.110  -0.108  -2.245  0.00  0.00    -0.002 C 
ATOM     16  C   UNL d   1       6.533  -1.204  -3.134  0.00  0.00     0.005 C 
ENDBRANCH  14  15
ENDBRANCH   4  14
ENDBRANCH   1   4
BRANCH   1  17
ATOM     17  C   UNL d   1       6.406   2.936  -1.320  0.00  0.00     0.039 C 
ATOM     18  C   UNL d   1       7.429   2.129  -1.839  0.00  0.00     0.030 C 
ATOM     19  C   UNL d   1       8.808   2.230  -1.763  0.00  0.00     0.003 C 
ATOM     20  C   UNL d   1       9.272   3.433  -1.383  0.00  0.00     0.007 C 
ATOM     21  C   UNL d   1       8.337   4.393  -0.964  0.00  0.00    -0.060 C 
ATOM     22  C   UNL d   1       8.887   5.730  -0.617  0.00  0.00     0.048 C 
ATOM     23  C   UNL d   1       6.923   4.143  -0.884  0.00  0.00     0.036 C 
ENDBRANCH   1  17
BRANCH   2  24
ATOM     24  C   UNL d   1       2.596   3.603  -1.878  0.00  0.00     0.115 C 
ATOM     25  S   UNL d   1       1.562   3.632  -3.239  0.00  0.00     0.019 SA
ATOM     26  N   UNL d   1       0.081   3.223  -2.583  0.00  0.00    -0.204 NA
ATOM     27  C   UNL d   1       0.208   3.040  -1.272  0.00  0.00     0.149 C 
ATOM     28  C   UNL d   1       1.802   3.720  -0.765  0.00  0.00     0.065 C 
BRANCH  27  29
ATOM     29  C   UNL d   1      -0.933   1.883  -0.506  0.00  0.00     0.249 C 
ATOM     30  N   UNL d   1      -2.230   1.608  -0.802  0.00  0.00    -0.267 NA
ATOM     31  H   UNL d   1      -2.764   2.368  -1.153  0.00  0.00     0.127 HD
ATOM     32  H   UNL d   1      -2.603   1.226   0.092  0.00  0.00     0.127 HD
ATOM     33  O   UNL d   1      -0.841   1.280   0.594  0.00  0.00    -0.272 OA
ENDBRANCH  27  29
BRANCH  28  34
ATOM     34  N   UNL d   1       2.530   3.907   0.615  0.00  0.00    -0.299 NA
ATOM     35  H   UNL d   1       2.128   3.408   1.434  0.00  0.00     0.124 HD
ATOM     36  H   UNL d   1       3.489   3.611   0.908  0.00  0.00     0.124 HD
ENDBRANCH  28  34
ENDBRANCH   2  24
TORSDOF 11
