@<TRIPOS>MOLECULE
*****
 37 37 0 0 0
SMALL
GASTEIGER

@<TRIPOS>ATOM
      1 C           1.0975   -0.0049    0.0673 C.3     1  UNL1       -0.0570
      2 C           2.6253    0.0666    0.1121 C.3     1  UNL1        0.0215
      3 C           3.0584    1.2326    0.9924 C.2     1  UNL1        0.2169
      4 O           2.2184    1.9386    1.5499 O.2     1  UNL1       -0.2755
      5 N           4.4285    1.4471    1.0912 N.am    1  UNL1       -0.2855
      6 C           4.9932    2.3908    1.9924 C.ar    1  UNL1        0.0334
      7 C           6.1900    3.0515    1.7044 C.ar    1  UNL1       -0.0398
      8 C           6.7862    3.9046    2.6643 C.ar    1  UNL1       -0.0478
      9 C           6.1844    4.1465    3.9123 C.ar    1  UNL1        0.0383
     10 C           6.8282    5.1386    4.8672 C.2     1  UNL1        0.2601
     11 O           7.8763    5.7172    4.5749 O.2     1  UNL1       -0.2687
     12 N           6.1712    5.3690    6.0537 N.am    1  UNL1       -0.2311
     13 N           6.6001    6.2943    7.0607 N.am    1  UNL1       -0.2453
     14 C           5.7854    6.3821    8.1983 C.2     1  UNL1        0.1530
     15 S           4.4042    5.4110    8.2668 S.2     1  UNL1       -0.0170
     16 N           6.2215    7.2867    9.1830 N.am    1  UNL1       -0.2669
     17 C           5.7477    7.6803   10.4386 C.2     1  UNL1        0.2154
     18 C           4.4861    7.1063   11.0365 C.3     1  UNL1        0.0125
     19 O           6.3856    8.5247   11.0779 O.2     1  UNL1       -0.2757
     20 C           4.9874    3.4723    4.1880 C.ar    1  UNL1       -0.0478
     21 C           4.4014    2.6222    3.2359 C.ar    1  UNL1       -0.0398
     22 H           0.7471   -0.8279   -0.5614 H       1  UNL1        0.0234
     23 H           0.6777    0.9278   -0.3284 H       1  UNL1        0.0234
     24 H           0.6834   -0.1457    1.0732 H       1  UNL1        0.0234
     25 H           3.0139    0.2003   -0.9024 H       1  UNL1        0.0356
     26 H           3.0189   -0.8708    0.5205 H       1  UNL1        0.0356
     27 H           5.0560    0.9623    0.4606 H       1  UNL1        0.1548
     28 H           6.6481    2.9750    0.7203 H       1  UNL1        0.0636
     29 H           7.7336    4.3876    2.4269 H       1  UNL1        0.0626
     30 H           5.2933    4.9103    6.2878 H       1  UNL1        0.1731
     31 H           7.4509    6.8201    6.8615 H       1  UNL1        0.1718
     32 H           7.0756    7.7967    8.9846 H       1  UNL1        0.1565
     33 H           3.9774    6.3777   10.4347 H       1  UNL1        0.0323
     34 H           3.7597    7.9054   11.2026 H       1  UNL1        0.0323
     35 H           4.7206    6.5971   11.9744 H       1  UNL1        0.0323
     36 H           4.4646    3.5560    5.1337 H       1  UNL1        0.0626
     37 H           3.4802    2.1105    3.5068 H       1  UNL1        0.0636
@<TRIPOS>BOND
     1     1     2    1
     2     2     3    1
     3     3     4    2
     4     3     5   am
     5     5     6    1
     6     6     7   ar
     7     7     8   ar
     8     8     9   ar
     9     9    10    1
    10    10    11    2
    11    10    12   am
    12    12    13    1
    13    13    14    1
    14    14    15    2
    15    14    16    1
    16    16    17   am
    17    17    18    1
    18    17    19    2
    19     9    20   ar
    20    20    21   ar
    21     6    21   ar
    22     1    22    1
    23     1    23    1
    24     1    24    1
    25     2    25    1
    26     2    26    1
    27     5    27    1
    28     7    28    1
    29     8    29    1
    30    12    30    1
    31    13    31    1
    32    16    32    1
    33    18    33    1
    34    18    34    1
    35    18    35    1
    36    20    36    1
    37    21    37    1
