REMARK  3 active torsions:
REMARK  status: ('A' for Active; 'I' for Inactive)
REMARK    1  A    between atoms: C_9  and  N_10 
REMARK    2  A    between atoms: C_20  and  C_21 
REMARK    3  A    between atoms: C_26  and  N_27 
ROOT
ATOM      1  N   UNL d   1       4.432  -0.564  -2.578  0.00  0.00    -0.196 NA
ATOM      2  C   UNL d   1       4.079  -0.373  -1.477  0.00  0.00     0.074 C 
ATOM      3  C   UNL d   1       3.730  -0.051  -0.085  0.00  0.00     0.198 C 
ATOM      4  C   UNL d   1       4.370  -1.120   0.758  0.00  0.00     0.242 C 
ATOM      5  O   UNL d   1       3.719  -1.951   1.382  0.00  0.00    -0.272 OA
ATOM      6  N   UNL d   1       5.763  -1.074   0.723  0.00  0.00    -0.309 N 
ATOM      7  C   UNL d   1       6.473   0.116   0.778  0.00  0.00     0.162 A 
ATOM      8  N   UNL d   1       7.840   0.063   0.959  0.00  0.00    -0.046 NA
ATOM      9  C   UNL d   1       8.482   1.182   1.171  0.00  0.00     0.707 A 
ATOM     10  N   UNL d   1       7.818   2.380   1.183  0.00  0.00    -0.154 N 
ATOM     11  C   UNL d   1       6.487   2.511   0.972  0.00  0.00     0.270 A 
ATOM     12  O   UNL d   1       5.937   3.606   0.999  0.00  0.00    -0.267 OA
ATOM     13  C   UNL d   1       5.769   1.255   0.719  0.00  0.00     0.067 A 
ATOM     14  C   UNL d   1       4.290   1.283   0.452  0.00  0.00     0.090 C 
ATOM     15  H   UNL d   1       6.264  -1.947   0.829  0.00  0.00     0.170 HD
ATOM     16  H   UNL d   1       8.327   3.244   1.268  0.00  0.00     0.187 HD
ENDROOT
BRANCH  14  17
ATOM     17  C   UNL d   1       3.875   2.447  -0.432  0.00  0.00    -0.015 C 
ATOM     18  C   UNL d   1       4.363   2.446  -1.759  0.00  0.00     0.010 C 
ATOM     19  C   UNL d   1       3.858   3.297  -2.720  0.00  0.00     0.001 C 
ATOM     20  C   UNL d   1       3.222   4.443  -2.297  0.00  0.00     0.002 C 
ATOM     21  C   UNL d   1       2.906   4.604  -0.947  0.00  0.00     0.037 C 
ATOM     22  C   UNL d   1       3.116   3.559  -0.029  0.00  0.00     0.110 C 
BRANCH  22  23
ATOM     23  N   UNL d   1       2.526   3.718   1.320  0.00  0.00    -0.115 N 
ATOM     24  O   UNL d   1       1.898   4.761   1.549  0.00  0.00    -0.532 OA
ATOM     25  O   UNL d   1       2.613   2.794   2.136  0.00  0.00    -0.532 OA
ENDBRANCH  22  23
ENDBRANCH  14  17
BRANCH   9  26
ATOM     26  N   UNL d   1       9.851   1.302   1.348  0.00  0.00    -0.216 N 
ATOM     27  C   UNL d   1      10.482   1.847   2.558  0.00  0.00     0.141 C 
ATOM     28  C   UNL d   1      11.460   2.961   2.168  0.00  0.00     0.020 C 
ATOM     29  C   UNL d   1      12.490   2.474   1.147  0.00  0.00     0.003 C 
ATOM     30  C   UNL d   1      11.802   1.775  -0.029  0.00  0.00     0.020 C 
ATOM     31  C   UNL d   1      10.819   0.689   0.442  0.00  0.00     0.141 C 
ENDBRANCH   9  26
TORSDOF 3
