REMARK  5 active torsions:
REMARK  status: ('A' for Active; 'I' for Inactive)
REMARK    1  A    between atoms: C_2  and  C_3 
REMARK    2  A    between atoms: C_3  and  C_5 
REMARK       I    between atoms: C_5  and  N_7 
REMARK    3  A    between atoms: N_7  and  N_8 
REMARK       I    between atoms: N_8  and  C_9 
REMARK    4  A    between atoms: C_9  and  C_11 
REMARK    5  A    between atoms: C_17  and  O_18 
ROOT
ATOM      1  N   UNL d   1       6.786   2.484  -0.899  0.00  0.00    -0.263 N 
ATOM      2  C   UNL d   1       7.432   3.663  -1.261  0.00  0.00     0.272 C 
ATOM      3  O   UNL d   1       6.801   4.660  -1.621  0.00  0.00    -0.266 OA
ATOM      4  H   UNL d   1       7.263   1.661  -0.538  0.00  0.00     0.190 HD
ENDROOT
BRANCH   2   5
ATOM      5  C   UNL d   1       8.937   3.665  -1.230  0.00  0.00     0.066 A 
ATOM      6  C   UNL d   1       9.664   2.588  -1.765  0.00  0.00     0.020 A 
ATOM      7  C   UNL d   1      11.073   2.612  -1.799  0.00  0.00     0.008 A 
ATOM      8  C   UNL d   1      11.783   3.717  -1.314  0.00  0.00    -0.059 A 
ATOM      9  C   UNL d   1      13.286   3.784  -1.343  0.00  0.00     0.048 C 
ATOM     10  C   UNL d   1      11.063   4.793  -0.785  0.00  0.00     0.044 A 
ATOM     11  C   UNL d   1       9.659   4.765  -0.740  0.00  0.00     0.082 A 
BRANCH  11  12
ATOM     12  O   UNL d   1       9.011   5.825  -0.168  0.00  0.00    -0.360 OA
ATOM     13  H   UNL d   1       9.658   6.502   0.089  0.00  0.00     0.217 HD
ENDBRANCH  11  12
ENDBRANCH   2   5
BRANCH   1  14
ATOM     14  N   UNL d   1       5.361   2.448  -0.868  0.00  0.00    -0.267 N 
ATOM     15  C   UNL d   1       4.723   1.293  -0.436  0.00  0.00     0.239 C 
ATOM     16  O   UNL d   1       5.367   0.294  -0.111  0.00  0.00    -0.271 OA
ATOM     17  H   UNL d   1       4.885   3.304  -1.147  0.00  0.00     0.190 HD
BRANCH  15  18
ATOM     18  C   UNL d   1       3.174   1.325  -0.425  0.00  0.00     0.075 C 
ATOM     19  C   UNL d   1       2.651   2.435   0.488  0.00  0.00     0.020 C 
BRANCH  18  20
ATOM     20  C   UNL d   1       2.593  -0.043   0.021  0.00  0.00     0.009 C 
ATOM     21  C   UNL d   1       1.066  -0.104   0.020  0.00  0.00     0.006 C 
ENDBRANCH  18  20
ENDBRANCH  15  18
ENDBRANCH   1  14
TORSDOF 5
