@<TRIPOS>MOLECULE
*****
 45 48 0 0 0
SMALL
GASTEIGER

@<TRIPOS>ATOM
      1 C           1.0142    0.1163    0.1092 C.3     1  UNL1       -0.0382
      2 C           2.5136    0.1319    0.1182 C.ar    1  UNL1       -0.0287
      3 C           3.2253    1.3464    0.1137 C.ar    1  UNL1       -0.0152
      4 C           4.6080    1.3522   -0.0806 C.ar    1  UNL1        0.1263
      5 O           5.2967    2.5229   -0.2379 O.3     1  UNL1       -0.5061
      6 C           5.3126    0.1535   -0.1441 C.ar    1  UNL1        0.0429
      7 C           6.7032    0.1103   -0.5700 C.ar    1  UNL1        0.0753
      8 N           7.7580    0.7480    0.0472 N.ar    1  UNL1       -0.2758
      9 N           8.9682    0.5418   -0.5583 N.ar    1  UNL1       -0.1683
     10 C           8.6394   -0.2000   -1.6187 C.ar    1  UNL1        0.1529
     11 C           7.2770   -0.4765   -1.6662 C.ar    1  UNL1        0.0350
     12 C           6.9622   -1.3120   -2.8329 C.3     1  UNL1        0.0838
     13 C           6.0198   -2.3744   -2.3811 C.ar    1  UNL1        0.0127
     14 C           6.3858   -3.3349   -1.4154 C.ar    1  UNL1       -0.0537
     15 C           5.5886   -4.4587   -1.2191 C.ar    1  UNL1       -0.0613
     16 C           4.3810   -4.5837   -1.9080 C.ar    1  UNL1       -0.0590
     17 C           3.9510   -3.5748   -2.7716 C.ar    1  UNL1       -0.0261
     18 C           4.7861   -2.4992   -3.0317 C.ar    1  UNL1        0.1287
     19 F           4.4396   -1.6234   -3.9869 F       1  UNL1       -0.2051
     20 N           8.3175   -1.7693   -3.2297 N.am    1  UNL1       -0.2827
     21 C           8.5934   -2.9829   -4.0288 C.3     1  UNL1        0.0391
     22 C           7.3811   -3.8250   -4.4754 C.3     1  UNL1        0.0600
     23 O           7.7150   -5.0054   -5.1865 O.3     1  UNL1       -0.3935
     24 C           9.3183   -0.9244   -2.6879 C.2     1  UNL1        0.2679
     25 O          10.4955   -0.8487   -3.0298 O.2     1  UNL1       -0.2682
     26 C           4.6156   -1.0390    0.0729 C.ar    1  UNL1       -0.0305
     27 C           3.2271   -1.0656    0.1107 C.ar    1  UNL1        0.0447
     28 CL          2.4239   -2.5959    0.1232 Cl      1  UNL1       -0.0832
     29 H           0.6048    1.1271    0.1617 H       1  UNL1        0.0278
     30 H           0.6350   -0.4519    0.9643 H       1  UNL1        0.0278
     31 H           0.6526   -0.3445   -0.8182 H       1  UNL1        0.0278
     32 H           2.6881    2.2809    0.2377 H       1  UNL1        0.0657
     33 H           4.6755    3.2658   -0.2997 H       1  UNL1        0.2922
     34 H           7.7122    1.3107    0.8906 H       1  UNL1        0.1889
     35 H           6.5803   -0.6969   -3.6557 H       1  UNL1        0.0603
     36 H           7.3097   -3.2207   -0.8500 H       1  UNL1        0.0622
     37 H           5.9224   -5.2442   -0.5470 H       1  UNL1        0.0618
     38 H           3.7668   -5.4672   -1.7614 H       1  UNL1        0.0618
     39 H           2.9796   -3.6293   -3.2513 H       1  UNL1        0.0646
     40 H           9.2510   -3.6232   -3.4243 H       1  UNL1        0.0487
     41 H           9.1869   -2.7044   -4.9051 H       1  UNL1        0.0487
     42 H           6.6772   -3.2239   -5.0611 H       1  UNL1        0.0573
     43 H           6.8636   -4.2236   -3.6142 H       1  UNL1        0.0573
     44 H           8.0577   -4.7481   -6.0535 H       1  UNL1        0.2095
     45 H           5.1535   -1.9718    0.1665 H       1  UNL1        0.0640
@<TRIPOS>BOND
     1     1     2    1
     2     2     3   ar
     3     3     4   ar
     4     4     5    1
     5     4     6   ar
     6     6     7    1
     7     7     8   ar
     8     8     9   ar
     9     9    10   ar
    10    10    11   ar
    11     7    11   ar
    12    11    12    1
    13    12    13    1
    14    13    14   ar
    15    14    15   ar
    16    15    16   ar
    17    16    17   ar
    18    17    18   ar
    19    13    18   ar
    20    18    19    1
    21    12    20    1
    22    20    21    1
    23    21    22    1
    24    22    23    1
    25    20    24   am
    26    10    24    1
    27    24    25    2
    28     6    26   ar
    29    26    27   ar
    30     2    27   ar
    31    27    28    1
    32     1    29    1
    33     1    30    1
    34     1    31    1
    35     3    32    1
    36     5    33    1
    37     8    34    1
    38    12    35    1
    39    14    36    1
    40    15    37    1
    41    16    38    1
    42    17    39    1
    43    21    40    1
    44    21    41    1
    45    22    42    1
    46    22    43    1
    47    23    44    1
    48    26    45    1
