REMARK  5 active torsions:
REMARK  status: ('A' for Active; 'I' for Inactive)
REMARK    1  A    between atoms: C_6  and  N_7 
REMARK       I    between atoms: N_7  and  C_8 
REMARK       I    between atoms: C_8  and  N_10 
REMARK    2  A    between atoms: N_10  and  C_11 
REMARK    3  A    between atoms: C_13  and  N_14 
REMARK       I    between atoms: N_14  and  C_15 
REMARK    4  A    between atoms: C_15  and  C_17 
REMARK    5  A    between atoms: C_26  and  N_27 
ROOT
ATOM      1  C   UNL d   1      -3.064  -5.727  -0.121  0.00  0.00     0.065 A 
ATOM      2  C   UNL d   1      -3.238  -6.931   0.635  0.00  0.00     0.061 A 
ATOM      3  C   UNL d   1      -4.405  -7.718   0.492  0.00  0.00     0.037 A 
ATOM      4  C   UNL d   1      -5.425  -7.208  -0.303  0.00  0.00     0.032 A 
ATOM      5  C   UNL d   1      -5.266  -6.041  -1.039  0.00  0.00     0.034 A 
ATOM      6  C   UNL d   1      -4.094  -5.284  -0.999  0.00  0.00     0.057 A 
ENDROOT
BRANCH   1   7
ATOM      7  N   UNL d   1      -1.841  -4.971   0.000  0.00  0.00    -0.306 N 
ATOM      8  C   UNL d   1      -1.910  -3.613   0.295  0.00  0.00     0.325 C 
ATOM      9  N   UNL d   1      -0.728  -2.897   0.111  0.00  0.00    -0.308 N 
ATOM     10  O   UNL d   1      -2.966  -3.096   0.669  0.00  0.00    -0.247 OA
ATOM     11  H   UNL d   1       0.117  -3.428  -0.029  0.00  0.00     0.170 HD
ATOM     12  H   UNL d   1      -0.998  -5.473   0.230  0.00  0.00     0.170 HD
BRANCH   9  13
ATOM     13  C   UNL d   1      -0.634  -1.450   0.112  0.00  0.00     0.042 A 
ATOM     14  C   UNL d   1      -1.802  -0.658   0.128  0.00  0.00     0.030 A 
ATOM     15  C   UNL d   1      -1.800   0.731   0.070  0.00  0.00     0.003 A 
ATOM     16  C   UNL d   1      -0.598   1.398   0.028  0.00  0.00     0.007 A 
ATOM     17  C   UNL d   1       0.603   0.672   0.010  0.00  0.00    -0.054 A 
ATOM     18  C   UNL d   1       1.878   1.475  -0.020  0.00  0.00     0.049 C 
ATOM     19  C   UNL d   1       0.599  -0.763   0.037  0.00  0.00    -0.029 A 
ATOM     20  C   UNL d   1       1.927  -1.474   0.029  0.00  0.00     0.051 C 
ENDBRANCH   9  13
ENDBRANCH   1   7
BRANCH   6  21
ATOM     21  N   UNL d   1      -4.053  -4.209  -1.866  0.00  0.00    -0.379 N 
ATOM     22  C   UNL d   1      -2.947  -3.863  -2.735  0.00  0.00     0.123 C 
ATOM     23  C   UNL d   1      -2.824  -2.360  -2.593  0.00  0.00     0.021 C 
ATOM     24  C   UNL d   1      -4.236  -1.881  -2.302  0.00  0.00     0.021 C 
ATOM     25  C   UNL d   1      -4.935  -3.063  -1.624  0.00  0.00     0.123 C 
ENDBRANCH   6  21
BRANCH   3  26
ATOM     26  N   UNL d   1      -4.533  -9.021   1.082  0.00  0.00    -0.323 N 
ATOM     27  C   UNL d   1      -5.556  -9.925   0.767  0.00  0.00     0.256 C 
ATOM     28  O   UNL d   1      -6.518  -9.727   0.020  0.00  0.00    -0.267 OA
ATOM     29  H   UNL d   1      -3.748  -9.361   1.624  0.00  0.00     0.169 HD
BRANCH  27  30
ATOM     30  C   UNL d   1      -5.533 -11.285   1.352  0.00  0.00     0.032 A 
ATOM     31  C   UNL d   1      -6.030 -12.350   0.570  0.00  0.00     0.020 A 
ATOM     32  C   UNL d   1      -6.263 -13.601   1.141  0.00  0.00     0.043 A 
ATOM     33  C   UNL d   1      -5.936 -13.801   2.474  0.00  0.00     0.116 A 
ATOM     34  F   UNL d   1      -6.104 -15.014   3.017  0.00  0.00    -0.206 F 
ATOM     35  C   UNL d   1      -5.434 -12.761   3.256  0.00  0.00     0.043 A 
ATOM     36  C   UNL d   1      -5.240 -11.492   2.700  0.00  0.00     0.020 A 
ENDBRANCH  27  30
ENDBRANCH   3  26
TORSDOF 5
