@<TRIPOS>MOLECULE
*****
 52 54 0 0 0
SMALL
GASTEIGER

@<TRIPOS>ATOM
      1 C           2.4894   -0.2025   -0.0155 C.3     1  UNL1       -0.0380
      2 C           0.9976   -0.0272    0.0031 C.ar    1  UNL1       -0.0296
      3 C           0.2388   -1.2064    0.0069 C.ar    1  UNL1       -0.0564
      4 C          -1.1512   -1.1636    0.0026 C.ar    1  UNL1       -0.0493
      5 C          -1.8272    0.0640   -0.0066 C.ar    1  UNL1        0.0388
      6 C          -3.3300    0.0127   -0.0315 C.2     1  UNL1        0.2483
      7 O          -3.8628   -1.0972   -0.0339 O.2     1  UNL1       -0.2699
      8 N          -4.0449    1.2044   -0.1121 N.am    1  UNL1       -0.2815
      9 C          -5.4602    1.2549   -0.0935 C.ar    1  UNL1        0.0337
     10 C          -6.1443    2.2008   -0.8647 C.ar    1  UNL1       -0.0405
     11 C          -7.5381    2.3158   -0.7621 C.ar    1  UNL1       -0.0600
     12 C          -8.2560    1.4512    0.0637 C.ar    1  UNL1       -0.0616
     13 C          -7.5780    0.5109    0.8324 C.ar    1  UNL1       -0.0600
     14 C          -6.1890    0.4141    0.7507 C.ar    1  UNL1       -0.0405
     15 C          -1.0649    1.2472    0.0031 C.ar    1  UNL1       -0.0285
     16 C           0.3554    1.2327    0.0041 C.ar    1  UNL1        0.0312
     17 N           1.0275    2.4490    0.0030 N.pl3   1  UNL1       -0.3352
     18 C           2.4840    2.6145    0.0121 C.3     1  UNL1        0.0861
     19 C           2.9309    4.0588    0.0114 C.2     1  UNL1        0.2343
     20 O           2.1013    4.9676   -0.0112 O.2     1  UNL1       -0.2738
     21 N           4.3256    4.2264   -0.0010 N.am    1  UNL1       -0.2842
     22 C           4.8827    5.5193    0.0041 C.ar    1  UNL1        0.0334
     23 C           4.3197    6.4762    0.8381 C.ar    1  UNL1       -0.0402
     24 C           4.7711    7.7842    0.8249 C.ar    1  UNL1       -0.0559
     25 C           5.8056    8.1850   -0.0268 C.ar    1  UNL1       -0.0335
     26 C           6.2585    9.6348   -0.0620 C.3     1  UNL1        0.0598
     27 C           5.5491   10.5102    0.8896 C.1     1  UNL1        0.0672
     28 N           4.9502   11.1465    1.6655 N.1     1  UNL1       -0.1962
     29 C           6.3995    7.2086   -0.8495 C.ar    1  UNL1       -0.0559
     30 C           5.9587    5.8701   -0.8147 C.ar    1  UNL1       -0.0402
     31 H           2.8119   -1.2440   -0.0073 H       1  UNL1        0.0278
     32 H           2.9282    0.2430    0.8796 H       1  UNL1        0.0278
     33 H           2.8967    0.2257   -0.9347 H       1  UNL1        0.0278
     34 H           0.7397   -2.1729    0.0067 H       1  UNL1        0.0621
     35 H          -1.6978   -2.1063    0.0000 H       1  UNL1        0.0625
     36 H          -3.5708    2.0814   -0.2649 H       1  UNL1        0.1551
     37 H          -5.6237    2.8079   -1.6008 H       1  UNL1        0.0636
     38 H          -8.0708    3.0788   -1.3247 H       1  UNL1        0.0618
     39 H          -9.3410    1.5038    0.1054 H       1  UNL1        0.0618
     40 H          -8.1202   -0.1411    1.5111 H       1  UNL1        0.0618
     41 H          -5.6768   -0.3053    1.3830 H       1  UNL1        0.0636
     42 H          -1.5664    2.2086    0.0106 H       1  UNL1        0.0644
     43 H           0.5021    3.3218   -0.0045 H       1  UNL1        0.1466
     44 H           2.9096    2.1854   -0.8976 H       1  UNL1        0.0557
     45 H           2.8993    2.1893    0.9280 H       1  UNL1        0.0557
     46 H           4.9412    3.4442   -0.1959 H       1  UNL1        0.1549
     47 H           3.5142    6.2179    1.5202 H       1  UNL1        0.0636
     48 H           4.2677    8.4751    1.4956 H       1  UNL1        0.0621
     49 H           6.1098   10.0259   -1.0755 H       1  UNL1        0.0467
     50 H           7.3310    9.6727    0.1610 H       1  UNL1        0.0467
     51 H           7.1951    7.4842   -1.5416 H       1  UNL1        0.0621
     52 H           6.4114    5.1487   -1.4907 H       1  UNL1        0.0636
@<TRIPOS>BOND
     1     1     2    1
     2     2     3   ar
     3     3     4   ar
     4     4     5   ar
     5     5     6    1
     6     6     7    2
     7     6     8   am
     8     8     9    1
     9     9    10   ar
    10    10    11   ar
    11    11    12   ar
    12    12    13   ar
    13    13    14   ar
    14     9    14   ar
    15     5    15   ar
    16    15    16   ar
    17     2    16   ar
    18    16    17    1
    19    17    18    1
    20    18    19    1
    21    19    20    2
    22    19    21   am
    23    21    22    1
    24    22    23   ar
    25    23    24   ar
    26    24    25   ar
    27    25    26    1
    28    26    27    1
    29    27    28    3
    30    25    29   ar
    31    29    30   ar
    32    22    30   ar
    33     1    31    1
    34     1    32    1
    35     1    33    1
    36     3    34    1
    37     4    35    1
    38     8    36    1
    39    10    37    1
    40    11    38    1
    41    12    39    1
    42    13    40    1
    43    14    41    1
    44    15    42    1
    45    17    43    1
    46    18    44    1
    47    18    45    1
    48    21    46    1
    49    23    47    1
    50    24    48    1
    51    26    49    1
    52    26    50    1
    53    29    51    1
    54    30    52    1
