REMARK  4 active torsions:
REMARK  status: ('A' for Active; 'I' for Inactive)
REMARK    1  A    between atoms: C_8  and  C_9 
REMARK       I    between atoms: C_9  and  N_11 
REMARK    2  A    between atoms: N_11  and  C_12 
REMARK    3  A    between atoms: C_12  and  C_13 
REMARK    4  A    between atoms: C_18  and  N_19 
ROOT
ATOM      1  C   UNL d   1      -0.598  -4.111   0.030  0.00  0.00     0.004 A 
ATOM      2  C   UNL d   1      -1.385  -2.940   0.062  0.00  0.00     0.014 A 
ATOM      3  C   UNL d   1      -2.767  -3.002   0.113  0.00  0.00     0.018 A 
ATOM      4  C   UNL d   1      -3.360  -4.245   0.116  0.00  0.00     0.089 A 
ATOM      5  N   UNL d   1      -2.604  -5.352   0.063  0.00  0.00    -0.352 N 
ATOM      6  C   UNL d   1      -1.256  -5.362   0.026  0.00  0.00     0.111 A 
ATOM      7  H   UNL d   1      -3.047  -6.265   0.123  0.00  0.00     0.166 HD
ENDROOT
BRANCH   1   8
ATOM      8  C   UNL d   1       0.913  -4.056   0.033  0.00  0.00     0.165 C 
BRANCH   8   9
ATOM      9  N   UNL d   1       1.488  -2.743  -0.009  0.00  0.00    -0.352 N 
ATOM     10  C   UNL d   1       2.846  -2.579   0.033  0.00  0.00     0.257 C 
ATOM     11  O   UNL d   1       3.577  -3.575   0.064  0.00  0.00    -0.267 OA
ATOM     12  H   UNL d   1       0.901  -1.944   0.070  0.00  0.00     0.163 HD
BRANCH  10  13
ATOM     13  C   UNL d   1       3.354  -1.220   0.041  0.00  0.00     0.098 A 
ATOM     14  C   UNL d   1       4.691  -0.912   0.036  0.00  0.00     0.139 A 
ATOM     15  N   UNL d   1       4.834   0.442   0.036  0.00  0.00    -0.262 N 
ATOM     16 CL   UNL d   1       6.073  -1.917   0.022  0.00  0.00    -0.062 Cl
ATOM     17  N   UNL d   1       3.618   1.078   0.040  0.00  0.00    -0.176 NA
ATOM     18  C   UNL d   1       6.122   1.119   0.032  0.00  0.00     0.181 C 
ATOM     19  C   UNL d   1       2.714   0.068   0.041  0.00  0.00     0.070 A 
ATOM     20  C   UNL d   1       1.224   0.298   0.042  0.00  0.00     0.073 C 
ENDBRANCH  10  13
ENDBRANCH   8   9
ENDBRANCH   1   8
BRANCH   6  21
ATOM     21  N   UNL d   1      -0.685  -6.599   0.207  0.00  0.00    -0.367 N 
ATOM     22  C   UNL d   1      -0.370  -7.514  -0.911  0.00  0.00     0.124 C 
ATOM     23  C   UNL d   1      -0.540  -8.951  -0.379  0.00  0.00     0.020 C 
ATOM     24  C   UNL d   1       0.306  -9.205   0.878  0.00  0.00     0.003 C 
ATOM     25  C   UNL d   1       0.100  -8.111   1.923  0.00  0.00     0.020 C 
ATOM     26  C   UNL d   1       0.286  -6.738   1.304  0.00  0.00     0.124 C 
ENDBRANCH   6  21
TORSDOF 4
