REMARK  9 active torsions:
REMARK  status: ('A' for Active; 'I' for Inactive)
REMARK    1  A    between atoms: C_2  and  C_3 
REMARK       I    between atoms: C_2  and  N_10 
REMARK    2  A    between atoms: C_3  and  C_4 
REMARK    3  A    between atoms: N_10  and  N_11 
REMARK    4  A    between atoms: N_11  and  C_12 
REMARK    5  A    between atoms: C_12  and  N_14 
REMARK       I    between atoms: N_14  and  C_15 
REMARK    6  A    between atoms: C_15  and  C_17 
REMARK    7  A    between atoms: C_17  and  O_18 
REMARK    8  A    between atoms: O_18  and  C_19 
REMARK    9  A    between atoms: C_22  and  N_23 
ROOT
ATOM      1  C   UNL d   1       5.175  -0.814   2.517  0.00  0.00     0.193 C 
ATOM      2  S   UNL d   1       4.135  -1.257   3.774  0.00  0.00    -0.039 SA
ENDROOT
BRANCH   1   3
ATOM      3  N   UNL d   1       4.634  -0.378   1.288  0.00  0.00    -0.273 N 
ATOM      4  H   UNL d   1       5.177  -0.097   0.481  0.00  0.00     0.189 HD
BRANCH   3   5
ATOM      5  N   UNL d   1       3.209  -0.336   1.172  0.00  0.00    -0.268 N 
ATOM      6  C   UNL d   1       2.434   0.047   0.106  0.00  0.00     0.240 C 
ATOM      7  O   UNL d   1       1.206   0.010   0.232  0.00  0.00    -0.272 OA
ATOM      8  H   UNL d   1       2.686  -0.627   2.003  0.00  0.00     0.190 HD
BRANCH   6   9
ATOM      9  C   UNL d   1       3.129   0.486  -1.169  0.00  0.00     0.143 C 
BRANCH   9  10
ATOM     10  C   UNL d   1       2.169   0.871  -2.277  0.00  0.00    -0.049 A 
ATOM     11  C   UNL d   1       1.996   2.211  -2.650  0.00  0.00     0.007 A 
ATOM     12  C   UNL d   1       0.991   2.568  -3.552  0.00  0.00     0.001 A 
ATOM     13  C   UNL d   1       0.201   1.586  -4.147  0.00  0.00     0.000 A 
ATOM     14  C   UNL d   1       0.390   0.247  -3.815  0.00  0.00     0.001 A 
ATOM     15  C   UNL d   1       1.366  -0.109  -2.883  0.00  0.00     0.007 A 
ENDBRANCH   9  10
ENDBRANCH   6   9
ENDBRANCH   3   5
ENDBRANCH   1   3
BRANCH   1  16
ATOM     16  N   UNL d   1       6.591  -0.839   2.576  0.00  0.00    -0.301 N 
ATOM     17  C   UNL d   1       7.368  -1.241   3.690  0.00  0.00     0.248 C 
ATOM     18  O   UNL d   1       6.867  -1.599   4.758  0.00  0.00    -0.271 OA
ATOM     19  H   UNL d   1       7.091  -0.549   1.748  0.00  0.00     0.171 HD
BRANCH  17  20
ATOM     20  C   UNL d   1       8.916  -1.216   3.574  0.00  0.00     0.278 C 
BRANCH  20  21
ATOM     21  O   UNL d   1       9.450  -1.792   4.788  0.00  0.00    -0.342 OA
BRANCH  21  22
ATOM     22  C   UNL d   1      10.788  -1.735   5.051  0.00  0.00     0.069 A 
ATOM     23  C   UNL d   1      11.315  -2.796   5.806  0.00  0.00     0.039 A 
ATOM     24  C   UNL d   1      12.660  -2.804   6.207  0.00  0.00     0.039 A 
ATOM     25  C   UNL d   1      13.496  -1.759   5.802  0.00  0.00     0.103 A 
ATOM     26  C   UNL d   1      12.971  -0.679   5.080  0.00  0.00     0.039 A 
ATOM     27  C   UNL d   1      11.616  -0.666   4.717  0.00  0.00     0.039 A 
BRANCH  25  28
ATOM     28  N   UNL d   1      14.938  -1.822   6.083  0.00  0.00    -0.116 N 
ATOM     29  O   UNL d   1      15.369  -2.804   6.697  0.00  0.00    -0.532 OA
ATOM     30  O   UNL d   1      15.646  -0.893   5.654  0.00  0.00    -0.532 OA
ENDBRANCH  25  28
ENDBRANCH  21  22
ENDBRANCH  20  21
ENDBRANCH  17  20
ENDBRANCH   1  16
TORSDOF 9
