REMARK  9 active torsions:
REMARK  status: ('A' for Active; 'I' for Inactive)
REMARK    1  A    between atoms: C_2  and  O_3 
REMARK    2  A    between atoms: O_3  and  C_4 
REMARK    3  A    between atoms: C_9  and  S_10 
REMARK    4  A    between atoms: S_10  and  C_11 
REMARK    5  A    between atoms: C_11  and  C_13 
REMARK       I    between atoms: C_13  and  N_15 
REMARK    6  A    between atoms: N_15  and  C_16 
REMARK    7  A    between atoms: C_19  and  C_20 
REMARK       I    between atoms: C_20  and  N_22 
REMARK    8  A    between atoms: N_22  and  C_23 
REMARK    9  A    between atoms: C_28  and  O_29 
ROOT
ATOM      1  C   UNL d   1      10.608   4.036   5.959  0.00  0.00     0.236 C 
ATOM      2  O   UNL d   1      11.718   4.020   5.423  0.00  0.00    -0.272 OA
ATOM      3  N   UNL d   1      10.450   4.416   7.297  0.00  0.00    -0.326 N 
ATOM      4  H   UNL d   1       9.569   4.273   7.774  0.00  0.00     0.169 HD
ENDROOT
BRANCH   3   5
ATOM      5  C   UNL d   1      11.528   4.916   8.082  0.00  0.00     0.034 A 
ATOM      6  C   UNL d   1      11.617   4.656   9.452  0.00  0.00     0.030 A 
ATOM      7  C   UNL d   1      12.598   5.310  10.231  0.00  0.00     0.019 A 
ATOM      8  C   UNL d   1      13.507   6.224   9.650  0.00  0.00     0.032 A 
ATOM      9  C   UNL d   1      13.474   6.386   8.270  0.00  0.00     0.019 A 
ATOM     10  C   UNL d   1      12.487   5.753   7.506  0.00  0.00     0.030 A 
BRANCH   8  11
ATOM     11  C   UNL d   1      14.506   6.960  10.508  0.00  0.00     0.256 C 
ATOM     12  O   UNL d   1      14.277   7.069  11.719  0.00  0.00    -0.267 OA
ATOM     13  N   UNL d   1      15.679   7.392   9.907  0.00  0.00    -0.321 N 
ATOM     14  H   UNL d   1      15.727   7.548   8.909  0.00  0.00     0.169 HD
BRANCH  13  15
ATOM     15  C   UNL d   1      16.897   7.621  10.599  0.00  0.00     0.068 A 
ATOM     16  C   UNL d   1      17.517   8.868  10.371  0.00  0.00     0.032 A 
ATOM     17  C   UNL d   1      18.753   9.187  10.948  0.00  0.00     0.002 A 
ATOM     18  C   UNL d   1      19.377   8.271  11.783  0.00  0.00     0.003 A 
ATOM     19  C   UNL d   1      18.791   7.021  11.988  0.00  0.00     0.039 A 
ATOM     20  C   UNL d   1      17.564   6.663  11.390  0.00  0.00     0.095 A 
BRANCH  20  21
ATOM     21  O   UNL d   1      17.264   5.347  11.638  0.00  0.00    -0.354 OA
ATOM     22  C   UNL d   1      16.189   4.721  10.967  0.00  0.00     0.210 C 
ENDBRANCH  20  21
ENDBRANCH  13  15
ENDBRANCH   8  11
ENDBRANCH   3   5
BRANCH   1  23
ATOM     23  C   UNL d   1       9.318   3.599   5.191  0.00  0.00     0.143 C 
ATOM     24  C   UNL d   1       8.658   2.433   5.916  0.00  0.00     0.031 C 
BRANCH  23  25
ATOM     25  S   UNL d   1       9.803   3.116   3.479  0.00  0.00    -0.078 SA
BRANCH  25  26
ATOM     26  C   UNL d   1       8.417   2.632   2.573  0.00  0.00     0.168 A 
ATOM     27  N   UNL d   1       8.476   2.185   1.338  0.00  0.00    -0.223 NA
ATOM     28  C   UNL d   1       7.179   1.896   0.987  0.00  0.00     0.086 A 
ATOM     29  C   UNL d   1       6.652   1.412  -0.218  0.00  0.00     0.037 A 
ATOM     30  C   UNL d   1       6.314   2.162   2.041  0.00  0.00     0.066 A 
ATOM     31  C   UNL d   1       5.267   1.197  -0.316  0.00  0.00     0.039 A 
ATOM     32  C   UNL d   1       4.424   1.429   0.774  0.00  0.00     0.071 A 
ATOM     33  C   UNL d   1       4.934   1.938   1.977  0.00  0.00     0.068 A 
ATOM     34  N   UNL d   1       7.130   2.667   3.023  0.00  0.00    -0.333 N 
ATOM     35  H   UNL d   1       6.817   2.996   3.919  0.00  0.00     0.168 HD
BRANCH  32  36
ATOM     36  O   UNL d   1       3.061   1.269   0.725  0.00  0.00    -0.351 OA
BRANCH  36  37
ATOM     37  C   UNL d   1       2.616   0.078   0.066  0.00  0.00     0.171 C 
ATOM     38  C   UNL d   1       1.096   0.065   0.063  0.00  0.00     0.034 C 
ENDBRANCH  36  37
ENDBRANCH  32  36
ENDBRANCH  25  26
ENDBRANCH  23  25
ENDBRANCH   1  23
TORSDOF 9
