REMARK  12 active torsions:
REMARK  status: ('A' for Active; 'I' for Inactive)
REMARK    1  A    between atoms: C_2  and  O_3 
REMARK    2  A    between atoms: O_3  and  C_4 
REMARK    3  A    between atoms: C_7  and  C_8 
REMARK    4  A    between atoms: C_8  and  O_9 
REMARK    5  A    between atoms: C_8  and  C_10 
REMARK    6  A    between atoms: C_10  and  C_11 
REMARK    7  A    between atoms: C_11  and  C_12 
REMARK       I    between atoms: C_12  and  N_14 
REMARK    8  A    between atoms: N_14  and  N_15 
REMARK    9  A    between atoms: C_16  and  C_17 
REMARK   10  A    between atoms: C_19  and  O_20 
REMARK   11  A    between atoms: O_20  and  C_21 
REMARK   12  A    between atoms: C_23  and  O_24 
ROOT
ATOM      1  C   UNL d   1      11.381   2.351  -0.688  0.00  0.00     0.237 C 
ATOM      2  O   UNL d   1      10.703   2.219  -1.710  0.00  0.00    -0.272 OA
ATOM      3  N   UNL d   1      12.720   2.697  -0.671  0.00  0.00    -0.247 N 
ATOM      4  H   UNL d   1      13.222   2.566   0.197  0.00  0.00     0.192 HD
ENDROOT
BRANCH   1   5
ATOM      5  C   UNL d   1      10.808   2.125   0.711  0.00  0.00     0.107 C 
BRANCH   5   6
ATOM      6  C   UNL d   1       9.302   1.945   0.590  0.00  0.00     0.046 C 
BRANCH   6   7
ATOM      7  C   UNL d   1       8.546   1.764   1.906  0.00  0.00     0.151 C 
BRANCH   7   8
ATOM      8  C   UNL d   1       7.053   1.561   1.696  0.00  0.00    -0.029 A 
ATOM      9  C   UNL d   1       6.211   1.335   2.793  0.00  0.00     0.012 A 
ATOM     10  C   UNL d   1       4.858   1.027   2.600  0.00  0.00     0.037 A 
ATOM     11  C   UNL d   1       4.308   1.006   1.317  0.00  0.00     0.068 A 
ATOM     12  C   UNL d   1       5.119   1.291   0.227  0.00  0.00     0.037 A 
ATOM     13  C   UNL d   1       6.472   1.561   0.416  0.00  0.00     0.012 A 
BRANCH  11  14
ATOM     14  O   UNL d   1       2.960   0.795   1.232  0.00  0.00    -0.352 OA
BRANCH  14  15
ATOM     15  C   UNL d   1       2.523   0.065   0.083  0.00  0.00     0.171 C 
ATOM     16  C   UNL d   1       1.006   0.071   0.069  0.00  0.00     0.034 C 
ENDBRANCH  14  15
ENDBRANCH  11  14
ENDBRANCH   7   8
BRANCH   7  17
ATOM     17  O   UNL d   1       9.080   0.620   2.574  0.00  0.00    -0.391 OA
ATOM     18  H   UNL d   1       8.814  -0.158   2.051  0.00  0.00     0.210 HD
ENDBRANCH   7  17
ENDBRANCH   6   7
ENDBRANCH   5   6
ENDBRANCH   1   5
BRANCH   3  19
ATOM     19  N   UNL d   1      13.430   2.781  -1.842  0.00  0.00    -0.184 NA
ATOM     20  C   UNL d   1      14.732   2.799  -1.802  0.00  0.00     0.151 C 
BRANCH  20  21
ATOM     21  C   UNL d   1      15.613   2.675  -0.618  0.00  0.00     0.003 A 
ATOM     22  C   UNL d   1      16.670   3.598  -0.439  0.00  0.00     0.054 A 
ATOM     23  C   UNL d   1      17.545   3.489   0.670  0.00  0.00     0.102 A 
ATOM     24  C   UNL d   1      17.243   2.528   1.645  0.00  0.00     0.100 A 
ATOM     25  C   UNL d   1      16.215   1.616   1.450  0.00  0.00     0.059 A 
ATOM     26  C   UNL d   1      15.446   1.636   0.301  0.00  0.00     0.025 A 
ATOM     27 BR   UNL d   1      14.269   0.156   0.111  0.00  0.00    -0.050 Br
BRANCH  23  28
ATOM     28  O   UNL d   1      18.640   4.326   0.633  0.00  0.00    -0.349 OA
BRANCH  28  29
ATOM     29  C   UNL d   1      19.651   4.091   1.614  0.00  0.00     0.171 C 
ATOM     30  C   UNL d   1      20.910   4.896   1.389  0.00  0.00     0.034 C 
ENDBRANCH  28  29
ENDBRANCH  23  28
BRANCH  24  31
ATOM     31  O   UNL d   1      17.870   2.294   2.834  0.00  0.00    -0.358 OA
ATOM     32  H   UNL d   1      18.343   3.067   3.159  0.00  0.00     0.217 HD
ENDBRANCH  24  31
ENDBRANCH  20  21
ENDBRANCH   3  19
TORSDOF 12
