@<TRIPOS>MOLECULE
*****
 52 55 0 0 0
SMALL
GASTEIGER

@<TRIPOS>ATOM
      1 O           1.0283   -0.1466   -0.0026 O.2     1  UNL1       -0.2754
      2 C           2.2614   -0.1023   -0.0045 C.2     1  UNL1        0.2189
      3 N           2.9939   -1.0662   -0.6643 N.am    1  UNL1       -0.3109
      4 C           2.3246   -2.0525   -1.4805 C.3     1  UNL1        0.0373
      5 C           3.2856   -2.9914   -2.1787 C.ar    1  UNL1       -0.0172
      6 C           4.3337   -2.5218   -2.9742 C.ar    1  UNL1        0.0068
      7 C           5.1263   -3.4320   -3.6680 C.ar    1  UNL1        0.1714
      8 N           4.8761   -4.7473   -3.5801 N.ar    1  UNL1       -0.1981
      9 C           3.8896   -5.2668   -2.8339 C.ar    1  UNL1        0.2721
     10 N           3.6729   -6.6450   -2.9335 N.pl3   1  UNL1       -0.2780
     11 C           4.1246   -7.4316   -1.7621 C.3     1  UNL1        0.0173
     12 C           4.7808   -8.7398   -2.2354 C.3     1  UNL1       -0.0371
     13 C           3.8159   -9.8333   -2.6976 C.3     1  UNL1       -0.0516
     14 C           2.8384   -9.3928   -3.7819 C.3     1  UNL1       -0.0516
     15 C           1.8325   -8.3721   -3.2724 C.3     1  UNL1       -0.0371
     16 C           2.2921   -6.9243   -3.4005 C.3     1  UNL1        0.0173
     17 C           3.0816   -4.3772   -2.1090 C.ar    1  UNL1        0.0310
     18 C           3.0333    0.9226    0.8327 C.3     1  UNL1        0.0640
     19 C           2.2907    2.2765    0.8705 C.3     1  UNL1       -0.0131
     20 C           3.3045    3.2211    0.2175 C.3     1  UNL1        0.0599
     21 C           4.4193    3.5324    1.2119 C.3     1  UNL1       -0.0242
     22 C           5.1710    2.2031    1.2571 C.3     1  UNL1       -0.0235
     23 C           4.3863    1.3481    0.2576 C.3     1  UNL1        0.0703
     24 O           3.9857    2.3413   -0.7091 O.3     1  UNL1       -0.3726
     25 H           3.9999   -1.0431   -0.6482 H       1  UNL1        0.1490
     26 H           1.6994   -1.5435   -2.2254 H       1  UNL1        0.0512
     27 H           1.6508   -2.6161   -0.8239 H       1  UNL1        0.0512
     28 H           4.5236   -1.4530   -3.0734 H       1  UNL1        0.0680
     29 H           5.9445   -3.1262   -4.3132 H       1  UNL1        0.1376
     30 H           5.4189   -5.4153   -4.1234 H       1  UNL1        0.4542
     31 H           3.3013   -7.6349   -1.0661 H       1  UNL1        0.0465
     32 H           4.8830   -6.8758   -1.1951 H       1  UNL1        0.0465
     33 H           5.3738   -9.1569   -1.4111 H       1  UNL1        0.0280
     34 H           5.4849   -8.5261   -3.0492 H       1  UNL1        0.0280
     35 H           3.2618  -10.2277   -1.8356 H       1  UNL1        0.0266
     36 H           4.4046  -10.6739   -3.0874 H       1  UNL1        0.0266
     37 H           2.2859  -10.2781   -4.1188 H       1  UNL1        0.0266
     38 H           3.3808   -9.0060   -4.6516 H       1  UNL1        0.0266
     39 H           1.5531   -8.5919   -2.2337 H       1  UNL1        0.0280
     40 H           0.9060   -8.4678   -3.8518 H       1  UNL1        0.0280
     41 H           1.5513   -6.3207   -2.8635 H       1  UNL1        0.0465
     42 H           2.2366   -6.6323   -4.4567 H       1  UNL1        0.0465
     43 H           2.2550   -4.7631   -1.5161 H       1  UNL1        0.0701
     44 H           3.1394    0.4961    1.8371 H       1  UNL1        0.0420
     45 H           2.0487    2.5935    1.8912 H       1  UNL1        0.0298
     46 H           1.3602    2.2682    0.2946 H       1  UNL1        0.0298
     47 H           2.8727    4.0952   -0.2749 H       1  UNL1        0.0596
     48 H           4.0411    3.8386    2.1916 H       1  UNL1        0.0291
     49 H           5.0764    4.3228    0.8326 H       1  UNL1        0.0291
     50 H           5.2047    1.7641    2.2582 H       1  UNL1        0.0291
     51 H           6.2000    2.3507    0.9100 H       1  UNL1        0.0291
     52 H           4.9988    0.5675   -0.1931 H       1  UNL1        0.0603
@<TRIPOS>UNITY_ATOM_ATTR
8 1
charge 1
@<TRIPOS>BOND
     1     1     2    2
     2     2     3   am
     3     3     4    1
     4     4     5    1
     5     5     6   ar
     6     6     7   ar
     7     7     8   ar
     8     8     9   ar
     9     9    10    1
    10    10    11    1
    11    11    12    1
    12    12    13    1
    13    13    14    1
    14    14    15    1
    15    15    16    1
    16    10    16    1
    17     9    17   ar
    18     5    17   ar
    19     2    18    1
    20    18    19    1
    21    19    20    1
    22    20    21    1
    23    21    22    1
    24    22    23    1
    25    18    23    1
    26    23    24    1
    27    20    24    1
    28     3    25    1
    29     4    26    1
    30     4    27    1
    31     6    28    1
    32     7    29    1
    33     8    30    1
    34    11    31    1
    35    11    32    1
    36    12    33    1
    37    12    34    1
    38    13    35    1
    39    13    36    1
    40    14    37    1
    41    14    38    1
    42    15    39    1
    43    15    40    1
    44    16    41    1
    45    16    42    1
    46    17    43    1
    47    18    44    1
    48    19    45    1
    49    19    46    1
    50    20    47    1
    51    21    48    1
    52    21    49    1
    53    22    50    1
    54    22    51    1
    55    23    52    1
