@<TRIPOS>MOLECULE
*****
 50 50 0 0 0
SMALL
GASTEIGER

@<TRIPOS>ATOM
      1 C           1.3004    0.6938    0.1034 C.3     1  UNL1       -0.0601
      2 C           2.7135    0.2642    0.0299 C.3     1  UNL1       -0.0152
      3 C           3.0525   -1.2212   -0.2236 C.2     1  UNL1        0.0437
      4 C           1.9801   -2.3872   -0.4245 C.3     1  UNL1        0.0458
      5 C           0.4705   -2.1459   -0.3787 C.2     1  UNL1        0.1393
      6 O          -0.0522   -1.0468   -0.1610 O.2     1  UNL1       -0.2970
      7 C          -0.6121   -3.1415   -0.5626 C.3     1  UNL1        0.0144
      8 C          -1.9701   -2.3064   -0.4449 C.3     1  UNL1        0.0309
      9 C          -3.1316   -3.1744   -0.7182 C.2     1  UNL1        0.2176
     10 O          -2.9376   -4.3238   -1.1092 O.2     1  UNL1       -0.2755
     11 N          -4.3721   -2.5962   -0.4808 N.am    1  UNL1       -0.2850
     12 C          -5.5257   -3.4056   -0.5721 C.ar    1  UNL1        0.0392
     13 C          -5.5489   -4.6416    0.1142 C.ar    1  UNL1       -0.0290
     14 C          -4.4716   -5.0886    1.0742 C.3     1  UNL1       -0.0379
     15 C          -6.6314   -5.5074   -0.0731 C.ar    1  UNL1       -0.0571
     16 C          -7.6904   -5.1501   -0.8979 C.ar    1  UNL1       -0.0611
     17 C          -7.6895   -3.9108   -1.5332 C.ar    1  UNL1       -0.0571
     18 C          -6.6211   -3.0118   -1.3688 C.ar    1  UNL1       -0.0290
     19 C          -6.6683   -1.7175   -2.1325 C.3     1  UNL1       -0.0379
     20 N           4.3262   -1.5562   -0.2772 N.2     1  UNL1       -0.1875
     21 N           5.3095   -0.5644   -0.0989 N.am    1  UNL1       -0.1899
     22 C           6.6723   -0.8619   -0.1455 C.2     1  UNL1        0.3326
     23 O           7.1490   -1.9764   -0.3473 O.2     1  UNL1       -0.2497
     24 N           7.4972    0.2529    0.1075 N.am    1  UNL1       -0.2361
     25 N           8.9154    0.1149   -0.0226 N.3     1  UNL1       -0.2531
     26 H           1.0271    1.7267    0.2787 H       1  UNL1        0.0233
     27 H           0.8988    0.1668    0.9823 H       1  UNL1        0.0233
     28 H           0.8912    0.4778   -0.8956 H       1  UNL1        0.0233
     29 H           3.1660    0.5405    0.9871 H       1  UNL1        0.0323
     30 H           3.1666    0.8431   -0.7802 H       1  UNL1        0.0323
     31 H           2.2044   -3.1455    0.3395 H       1  UNL1        0.0403
     32 H           2.2034   -2.8473   -1.3976 H       1  UNL1        0.0403
     33 H          -0.5647   -3.8890    0.2334 H       1  UNL1        0.0346
     34 H          -0.5337   -3.5876   -1.5556 H       1  UNL1        0.0346
     35 H          -2.0075   -1.4834   -1.1793 H       1  UNL1        0.0362
     36 H          -2.0740   -1.8480    0.5560 H       1  UNL1        0.0362
     37 H          -4.4766   -1.5885   -0.5182 H       1  UNL1        0.1548
     38 H          -3.7079   -4.3324    1.2724 H       1  UNL1        0.0278
     39 H          -3.9703   -5.9802    0.6821 H       1  UNL1        0.0278
     40 H          -4.9047   -5.3026    2.0529 H       1  UNL1        0.0278
     41 H          -6.6424   -6.4707    0.4297 H       1  UNL1        0.0621
     42 H          -8.5183   -5.8381   -1.0422 H       1  UNL1        0.0618
     43 H          -8.5261   -3.6615   -2.1828 H       1  UNL1        0.0621
     44 H          -7.6007   -1.6290   -2.7048 H       1  UNL1        0.0278
     45 H          -5.8443   -1.6592   -2.8503 H       1  UNL1        0.0278
     46 H          -6.6289   -0.8663   -1.4472 H       1  UNL1        0.0278
     47 H           5.0368    0.3957    0.0512 H       1  UNL1        0.1789
     48 H           7.1275    1.1977    0.1345 H       1  UNL1        0.1703
     49 H           9.0997   -0.8862   -0.1934 H       1  UNL1        0.1405
     50 H           9.3527    0.2978    0.8844 H       1  UNL1        0.1405
@<TRIPOS>BOND
     1     1     2    1
     2     2     3    1
     3     3     4    1
     4     4     5    1
     5     5     6    2
     6     5     7    1
     7     7     8    1
     8     8     9    1
     9     9    10    2
    10     9    11   am
    11    11    12    1
    12    12    13   ar
    13    13    14    1
    14    13    15   ar
    15    15    16   ar
    16    16    17   ar
    17    17    18   ar
    18    12    18   ar
    19    18    19    1
    20     3    20    2
    21    20    21    1
    22    21    22   am
    23    22    23    2
    24    22    24   am
    25    24    25    1
    26     1    26    1
    27     1    27    1
    28     1    28    1
    29     2    29    1
    30     2    30    1
    31     4    31    1
    32     4    32    1
    33     7    33    1
    34     7    34    1
    35     8    35    1
    36     8    36    1
    37    11    37    1
    38    14    38    1
    39    14    39    1
    40    14    40    1
    41    15    41    1
    42    16    42    1
    43    17    43    1
    44    19    44    1
    45    19    45    1
    46    19    46    1
    47    21    47    1
    48    24    48    1
    49    25    49    1
    50    25    50    1
