@<TRIPOS>MOLECULE
*****
 72 74 0 0 0
SMALL
GASTEIGER

@<TRIPOS>ATOM
      1 C           1.0436    0.0870    0.0250 C.3     1  UNL1       -0.0652
      2 C           2.5587    0.0638    0.0009 C.3     1  UNL1       -0.0545
      3 C           3.0341   -1.0308   -0.9542 C.3     1  UNL1       -0.0376
      4 C           4.5430   -1.0511   -1.0242 C.3     1  UNL1        0.0116
      5 N           5.1345   -2.1833   -1.7153 N.am    1  UNL1       -0.3138
      6 C           6.3147   -2.0120   -2.4381 C.2     1  UNL1        0.2345
      7 O           6.7529   -0.8615   -2.6584 O.2     1  UNL1       -0.2737
      8 C           7.0138   -3.2758   -3.0594 C.3     1  UNL1        0.1137
      9 C           6.3852   -3.1785   -4.5725 C.3     1  UNL1        0.0363
     10 C           6.6504   -4.2543   -5.6407 C.ar    1  UNL1       -0.0377
     11 C           6.4620   -5.6189   -5.3152 C.ar    1  UNL1       -0.0579
     12 C           6.9340   -6.6572   -6.0950 C.ar    1  UNL1       -0.0615
     13 C           7.7452   -6.3532   -7.1710 C.ar    1  UNL1       -0.0617
     14 C           8.0028   -5.0147   -7.5021 C.ar    1  UNL1       -0.0615
     15 C           7.3754   -3.9552   -6.8149 C.ar    1  UNL1       -0.0579
     16 C           4.8456   -3.0931   -4.4931 C.ar    1  UNL1       -0.0377
     17 C           4.1824   -1.8670   -4.5107 C.ar    1  UNL1       -0.0579
     18 C           2.8069   -1.8441   -4.2728 C.ar    1  UNL1       -0.0615
     19 C           2.0714   -3.0246   -4.1191 C.ar    1  UNL1       -0.0617
     20 C           2.7086   -4.2409   -4.1359 C.ar    1  UNL1       -0.0615
     21 C           4.0750   -4.2516   -4.2673 C.ar    1  UNL1       -0.0579
     22 N           8.6060   -3.2587   -2.8567 N.am    1  UNL1       -0.2800
     23 C           9.3017   -2.4060   -1.9536 C.2     1  UNL1        0.2513
     24 O          10.5255   -2.2494   -1.9610 O.2     1  UNL1       -0.2698
     25 C           8.6941   -1.5534   -0.9350 C.ar    1  UNL1        0.0819
     26 C           9.1238   -0.2107   -0.9280 C.ar    1  UNL1       -0.0459
     27 C           8.5890    0.6975   -0.0226 C.ar    1  UNL1       -0.0574
     28 C           7.5666    0.2902    0.8296 C.ar    1  UNL1       -0.0165
     29 C           7.1853   -1.0520    0.8575 C.ar    1  UNL1        0.1590
     30 O           6.1756   -1.4757    1.6833 O.3     1  UNL1       -0.5033
     31 C           7.7582   -1.9867   -0.0069 C.ar    1  UNL1        0.1706
     32 O           7.2518   -3.2600   -0.0543 O.3     1  UNL1       -0.5028
     33 C           9.4962   -4.3224   -3.4922 C.3     1  UNL1        0.0301
     34 C           9.0397   -5.7552   -3.1181 C.3     1  UNL1       -0.0440
     35 C           9.4573   -4.1527   -4.9698 C.3     1  UNL1       -0.0440
     36 C          11.0244   -4.2310   -3.3622 C.3     1  UNL1       -0.0440
     37 H           0.6798    0.8715    0.6927 H       1  UNL1        0.0230
     38 H           0.6531   -0.8753    0.3709 H       1  UNL1        0.0230
     39 H           0.6497    0.2748   -0.9792 H       1  UNL1        0.0230
     40 H           2.9444   -0.1124    1.0128 H       1  UNL1        0.0263
     41 H           2.9393    1.0406   -0.3229 H       1  UNL1        0.0263
     42 H           2.6163   -0.8342   -1.9378 H       1  UNL1        0.0280
     43 H           2.6646   -2.0063   -0.6178 H       1  UNL1        0.0280
     44 H           4.8442   -1.1702    0.0026 H       1  UNL1        0.0462
     45 H           4.9469   -0.0998   -1.3841 H       1  UNL1        0.0462
     46 H           4.4800   -2.8689   -2.0820 H       1  UNL1        0.1487
     47 H           6.6538   -4.1823   -2.5532 H       1  UNL1        0.0606
     48 H           6.7797   -2.2249   -4.9615 H       1  UNL1        0.0420
     49 H           6.1233   -5.9139   -4.3279 H       1  UNL1        0.0620
     50 H           6.7973   -7.6742   -5.7410 H       1  UNL1        0.0618
     51 H           8.2737   -7.1610   -7.6651 H       1  UNL1        0.0618
     52 H           8.8579   -4.8002   -8.1433 H       1  UNL1        0.0618
     53 H           7.7568   -2.9412   -6.9698 H       1  UNL1        0.0620
     54 H           4.7390   -0.9310   -4.5826 H       1  UNL1        0.0620
     55 H           2.3059   -0.8901   -4.1464 H       1  UNL1        0.0618
     56 H           1.0002   -3.0049   -3.9693 H       1  UNL1        0.0618
     57 H           2.1963   -5.1919   -4.0297 H       1  UNL1        0.0618
     58 H           4.4835   -5.2391   -4.1772 H       1  UNL1        0.0620
     59 H           9.8434    0.1292   -1.6732 H       1  UNL1        0.0626
     60 H           8.9619    1.7170   -0.0035 H       1  UNL1        0.0619
     61 H           7.0760    1.0329    1.4480 H       1  UNL1        0.0655
     62 H           5.7262   -0.6896    2.0386 H       1  UNL1        0.2923
     63 H           6.2957   -3.1410    0.1194 H       1  UNL1        0.2923
     64 H           7.9656   -5.9041   -3.2387 H       1  UNL1        0.0250
     65 H           9.2612   -5.9994   -2.0788 H       1  UNL1        0.0250
     66 H           9.5183   -6.5011   -3.7685 H       1  UNL1        0.0250
     67 H           8.5527   -4.6441   -5.1160 H       1  UNL1        0.0250
     68 H          10.1228   -4.7654   -5.5832 H       1  UNL1        0.0250
     69 H           9.4541   -3.1113   -5.3036 H       1  UNL1        0.0250
     70 H          11.3663   -4.3868   -2.3436 H       1  UNL1        0.0250
     71 H          11.3708   -3.2650   -3.7613 H       1  UNL1        0.0250
     72 H          11.5142   -4.9851   -3.9949 H       1  UNL1        0.0250
@<TRIPOS>BOND
     1     1     2    1
     2     2     3    1
     3     3     4    1
     4     4     5    1
     5     5     6   am
     6     6     7    2
     7     6     8    1
     8     8     9    1
     9     9    10    1
    10    10    11   ar
    11    11    12   ar
    12    12    13   ar
    13    13    14   ar
    14    14    15   ar
    15    10    15   ar
    16     9    16    1
    17    16    17   ar
    18    17    18   ar
    19    18    19   ar
    20    19    20   ar
    21    20    21   ar
    22    16    21   ar
    23     8    22    1
    24    22    23   am
    25    23    24    2
    26    23    25    1
    27    25    26   ar
    28    26    27   ar
    29    27    28   ar
    30    28    29   ar
    31    29    30    1
    32    29    31   ar
    33    25    31   ar
    34    31    32    1
    35    22    33    1
    36    33    34    1
    37    33    35    1
    38    33    36    1
    39     1    37    1
    40     1    38    1
    41     1    39    1
    42     2    40    1
    43     2    41    1
    44     3    42    1
    45     3    43    1
    46     4    44    1
    47     4    45    1
    48     5    46    1
    49     8    47    1
    50     9    48    1
    51    11    49    1
    52    12    50    1
    53    13    51    1
    54    14    52    1
    55    15    53    1
    56    17    54    1
    57    18    55    1
    58    19    56    1
    59    20    57    1
    60    21    58    1
    61    26    59    1
    62    27    60    1
    63    28    61    1
    64    30    62    1
    65    32    63    1
    66    34    64    1
    67    34    65    1
    68    34    66    1
    69    35    67    1
    70    35    68    1
    71    35    69    1
    72    36    70    1
    73    36    71    1
    74    36    72    1
