REMARK  8 active torsions:
REMARK  status: ('A' for Active; 'I' for Inactive)
REMARK       I    between atoms: C_2  and  N_3 
REMARK    1  A    between atoms: C_2  and  C_13 
REMARK    2  A    between atoms: N_3  and  N_4 
REMARK    3  A    between atoms: C_5  and  C_6 
REMARK    4  A    between atoms: C_10  and  O_11 
REMARK    5  A    between atoms: C_15  and  C_16 
REMARK    6  A    between atoms: C_21  and  O_22 
REMARK    7  A    between atoms: O_22  and  C_23 
REMARK    8  A    between atoms: C_23  and  C_24 
ROOT
ATOM      1  C   UNL d   1       3.059  -1.254   0.260  0.00  0.00     0.121 A 
ATOM      2  C   UNL d   1       2.766  -2.537  -0.166  0.00  0.00     0.071 A 
ATOM      3  C   UNL d   1       3.719  -3.419   0.394  0.00  0.00     0.092 A 
ATOM      4  N   UNL d   1       4.542  -2.730   1.203  0.00  0.00    -0.174 NA
ATOM      5  N   UNL d   1       4.134  -1.440   1.086  0.00  0.00    -0.272 N 
ATOM      6  H   UNL d   1       4.607  -0.752   1.661  0.00  0.00     0.189 HD
ENDROOT
BRANCH   3   7
ATOM      7  C   UNL d   1       3.795  -4.875   0.174  0.00  0.00     0.028 A 
ATOM      8  C   UNL d   1       3.602  -5.759   1.245  0.00  0.00     0.017 A 
ATOM      9  C   UNL d   1       3.622  -7.145   1.043  0.00  0.00     0.001 A 
ATOM     10  C   UNL d   1       3.848  -7.667  -0.228  0.00  0.00     0.003 A 
ATOM     11  C   UNL d   1       4.036  -6.804  -1.306  0.00  0.00     0.038 A 
ATOM     12  C   UNL d   1       3.996  -5.414  -1.117  0.00  0.00     0.081 A 
BRANCH  12  13
ATOM     13  O   UNL d   1       4.150  -4.506  -2.125  0.00  0.00    -0.346 OA
BRANCH  13  14
ATOM     14  C   UNL d   1       4.277  -4.981  -3.459  0.00  0.00     0.215 C 
BRANCH  14  15
ATOM     15  C   UNL d   1       4.306  -3.753  -4.345  0.00  0.00    -0.023 C 
ATOM     16  C   UNL d   1       5.361  -3.704  -5.316  0.00  0.00     0.010 C 
ATOM     17  C   UNL d   1       5.575  -2.560  -6.055  0.00  0.00     0.002 C 
ATOM     18  C   UNL d   1       4.702  -1.493  -5.905  0.00  0.00     0.012 C 
ATOM     19  C   UNL d   1       3.662  -1.551  -4.952  0.00  0.00    -0.028 C 
ATOM     20  C   UNL d   1       2.913  -0.403  -4.779  0.00  0.00    -0.005 C 
ATOM     21  C   UNL d   1       3.315  -2.646  -4.207  0.00  0.00    -0.018 C 
ATOM     22  C   UNL d   1       1.915  -0.366  -3.786  0.00  0.00     0.043 C 
ATOM     23  C   UNL d   1       1.089  -1.346  -3.301  0.00  0.00    -0.016 C 
ATOM     24  C   UNL d   1       1.945  -2.465  -3.446  0.00  0.00     0.009 C 
ENDBRANCH  14  15
ENDBRANCH  13  14
ENDBRANCH  12  13
ENDBRANCH   3   7
BRANCH   1  25
ATOM     25  C   UNL d   1       2.290  -0.045  -0.011  0.00  0.00     0.289 C 
ATOM     26  O   UNL d   1       1.063  -0.078  -0.066  0.00  0.00    -0.264 OA
ATOM     27  N   UNL d   1       3.015   1.116  -0.273  0.00  0.00    -0.242 N 
ATOM     28  H   UNL d   1       4.022   1.089  -0.262  0.00  0.00     0.192 HD
BRANCH  27  29
ATOM     29  N   UNL d   1       2.371   2.286  -0.657  0.00  0.00    -0.183 NA
ATOM     30  C   UNL d   1       3.068   3.348  -0.958  0.00  0.00     0.150 C 
BRANCH  30  31
ATOM     31  C   UNL d   1       4.537   3.442  -1.035  0.00  0.00    -0.014 A 
ATOM     32  C   UNL d   1       5.224   2.417  -1.688  0.00  0.00     0.013 A 
ATOM     33  C   UNL d   1       6.611   2.386  -1.671  0.00  0.00     0.004 A 
ATOM     34  C   UNL d   1       7.321   3.429  -1.075  0.00  0.00     0.036 A 
ATOM     35  C   UNL d   1       6.626   4.491  -0.492  0.00  0.00     0.066 A 
ATOM     36  C   UNL d   1       5.232   4.505  -0.458  0.00  0.00     0.049 A 
BRANCH  35  37
ATOM     37  O   UNL d   1       7.271   5.550   0.079  0.00  0.00    -0.361 OA
ATOM     38  H   UNL d   1       8.232   5.454  -0.026  0.00  0.00     0.217 HD
ENDBRANCH  35  37
ENDBRANCH  30  31
ENDBRANCH  27  29
ENDBRANCH   1  25
TORSDOF 8
