@<TRIPOS>MOLECULE
*****
 53 55 0 0 0
SMALL
GASTEIGER

@<TRIPOS>ATOM
      1 C           0.9401    0.0918   -0.0707 C.3     1  UNL1       -0.0587
      2 C           2.4744    0.0910   -0.0594 C.3     1  UNL1       -0.0215
      3 C           2.9617    1.3254    0.7116 C.3     1  UNL1       -0.0587
      4 C           2.9475   -1.2168    0.5509 C.ar    1  UNL1       -0.0448
      5 C           2.6804   -2.4365   -0.0877 C.ar    1  UNL1       -0.0581
      6 C           2.8852   -3.6487    0.5827 C.ar    1  UNL1       -0.0583
      7 C           3.4737   -3.6708    1.8563 C.ar    1  UNL1       -0.0459
      8 C           3.8231   -4.9901    2.5186 C.3     1  UNL1       -0.0120
      9 C           4.5441   -4.8386    3.8730 C.3     1  UNL1        0.0171
     10 N           4.9305   -6.0780    4.5295 N.am    1  UNL1       -0.2979
     11 C           5.5836   -6.0502    5.7461 C.2     1  UNL1        0.3160
     12 O           5.8593   -5.0111    6.3395 O.2     1  UNL1       -0.2513
     13 N           5.9038   -7.3058    6.2430 N.am    1  UNL1       -0.2180
     14 N           6.6598   -7.3917    7.4306 N.am    1  UNL1       -0.2292
     15 C           7.0860   -8.6445    7.9474 C.2     1  UNL1        0.2603
     16 O           6.8418   -9.7006    7.4353 O.2     1  UNL1       -0.2687
     17 C           7.7472   -8.5349    9.3096 C.ar    1  UNL1        0.0418
     18 C           8.6838   -9.3374    9.9974 C.ar    1  UNL1       -0.0459
     19 C           8.9387   -9.1510   11.4648 C.ar    1  UNL1       -0.0156
     20 C           8.1860   -8.1933   12.2038 C.ar    1  UNL1        0.1621
     21 C           7.2200   -7.6707   11.4164 C.ar    1  UNL1        0.1628
     22 C           7.0815   -7.6381   10.0681 C.ar    1  UNL1       -0.0041
     23 O           5.9691   -7.6172   11.9635 O.3     1  UNL1       -0.4849
     24 C           5.9951   -6.3506   12.5283 C.3     1  UNL1        0.1237
     25 C           6.8451   -6.6235   13.7635 C.3     1  UNL1        0.1237
     26 O           8.0396   -7.7104   13.5216 O.3     1  UNL1       -0.4849
     27 C           3.7794   -2.4497    2.4614 C.ar    1  UNL1       -0.0583
     28 C           3.5333   -1.2488    1.8172 C.ar    1  UNL1       -0.0581
     29 H           0.5509    1.0185   -0.5013 H       1  UNL1        0.0235
     30 H           0.5425   -0.0055    0.9474 H       1  UNL1        0.0235
     31 H           0.5382   -0.7424   -0.6564 H       1  UNL1        0.0235
     32 H           2.8494    0.1588   -1.0889 H       1  UNL1        0.0343
     33 H           2.5892    1.3180    1.7446 H       1  UNL1        0.0235
     34 H           2.6081    2.2519    0.2540 H       1  UNL1        0.0235
     35 H           4.0570    1.3556    0.7472 H       1  UNL1        0.0235
     36 H           2.2761   -2.4472   -1.0989 H       1  UNL1        0.0620
     37 H           2.5675   -4.5719    0.1027 H       1  UNL1        0.0620
     38 H           4.4779   -5.5366    1.8279 H       1  UNL1        0.0328
     39 H           2.9077   -5.5804    2.6438 H       1  UNL1        0.0328
     40 H           3.8992   -4.2921    4.5728 H       1  UNL1        0.0466
     41 H           5.4587   -4.2449    3.7380 H       1  UNL1        0.0466
     42 H           4.7481   -6.9574    4.0731 H       1  UNL1        0.1503
     43 H           5.6858   -8.1761    5.7783 H       1  UNL1        0.1744
     44 H           6.8229   -6.5010    7.8968 H       1  UNL1        0.1732
     45 H           9.1976  -10.1129    9.4187 H       1  UNL1        0.0626
     46 H           9.6446   -9.8793   11.8899 H       1  UNL1        0.0655
     47 H           6.1868   -7.1201    9.7525 H       1  UNL1        0.0663
     48 H           4.9241   -6.1547   12.6043 H       1  UNL1        0.0731
     49 H           6.4048   -5.5580   11.8717 H       1  UNL1        0.0731
     50 H           6.1458   -7.0376   14.5080 H       1  UNL1        0.0731
     51 H           7.2211   -5.6708   14.1758 H       1  UNL1        0.0731
     52 H           4.2047   -2.3806    3.4575 H       1  UNL1        0.0620
     53 H           3.7958   -0.3448    2.3571 H       1  UNL1        0.0620
@<TRIPOS>BOND
     1     1     2    1
     2     2     3    1
     3     2     4    1
     4     4     5   ar
     5     5     6   ar
     6     6     7   ar
     7     7     8    1
     8     8     9    1
     9     9    10    1
    10    10    11   am
    11    11    12    2
    12    11    13   am
    13    13    14    1
    14    14    15   am
    15    15    16    2
    16    15    17    1
    17    17    18   ar
    18    18    19   ar
    19    19    20   ar
    20    20    21   ar
    21    21    22   ar
    22    17    22   ar
    23    21    23    1
    24    23    24    1
    25    24    25    1
    26    25    26    1
    27    20    26    1
    28     7    27   ar
    29    27    28   ar
    30     4    28   ar
    31     1    29    1
    32     1    30    1
    33     1    31    1
    34     2    32    1
    35     3    33    1
    36     3    34    1
    37     3    35    1
    38     5    36    1
    39     6    37    1
    40     8    38    1
    41     8    39    1
    42     9    40    1
    43     9    41    1
    44    10    42    1
    45    13    43    1
    46    14    44    1
    47    18    45    1
    48    19    46    1
    49    22    47    1
    50    24    48    1
    51    24    49    1
    52    25    50    1
    53    25    51    1
    54    27    52    1
    55    28    53    1
