@<TRIPOS>MOLECULE
*****
 46 46 0 0 0
SMALL
GASTEIGER

@<TRIPOS>ATOM
      1 C           1.1135    0.1292   -0.2111 C.3     1  UNL1       -0.0605
      2 C           2.6238   -0.0006    0.0145 C.3     1  UNL1       -0.0196
      3 C           3.1218    1.4514    0.0828 C.3     1  UNL1       -0.0605
      4 C           3.0845   -0.8228    1.2823 C.3     1  UNL1        0.1045
      5 N           2.4834   -2.1765    1.3577 N.am    1  UNL1       -0.2880
      6 C           1.1911   -2.5772    1.4269 C.2     1  UNL1        0.2977
      7 N           0.2543   -1.6857    1.7904 N.am    1  UNL1       -0.3133
      8 O           0.8678   -3.7296    1.1366 O.2     1  UNL1       -0.2531
      9 C           4.6776   -0.9146    1.2809 C.2     1  UNL1        0.2497
     10 O           5.3748   -0.4181    0.3892 O.2     1  UNL1       -0.2722
     11 N           5.3053   -1.5087    2.3641 N.am    1  UNL1       -0.2326
     12 N           6.7427   -1.5010    2.4013 N.am    1  UNL1       -0.2303
     13 C           7.4085   -2.2042    3.3972 C.2     1  UNL1        0.2602
     14 O           6.8119   -2.8114    4.2833 O.2     1  UNL1       -0.2687
     15 C           8.9090   -2.1902    3.3873 C.ar    1  UNL1        0.0399
     16 C           9.6191   -3.3285    3.7717 C.ar    1  UNL1       -0.0495
     17 C          11.0006   -3.2585    3.9343 C.ar    1  UNL1       -0.0593
     18 C          11.6823   -2.0675    3.6630 C.ar    1  UNL1       -0.0406
     19 C          11.0180   -0.8887    3.2807 C.ar    1  UNL1        0.0299
     20 N          11.6934    0.3063    3.0717 N.pl3   1  UNL1       -0.3360
     21 C          13.1425    0.4544    3.2468 C.3     1  UNL1        0.0004
     22 C          11.0028    1.5566    2.7543 C.3     1  UNL1        0.0004
     23 C           9.6134   -0.9996    3.1456 C.ar    1  UNL1       -0.0285
     24 H           0.8706    0.7144   -1.1031 H       1  UNL1        0.0233
     25 H           0.6484    0.6588    0.6285 H       1  UNL1        0.0233
     26 H           0.6491   -0.8411   -0.3829 H       1  UNL1        0.0233
     27 H           3.0356   -0.4867   -0.8798 H       1  UNL1        0.0318
     28 H           2.7521    1.9383    0.9919 H       1  UNL1        0.0233
     29 H           2.7527    2.0193   -0.7785 H       1  UNL1        0.0233
     30 H           4.2073    1.5386    0.0719 H       1  UNL1        0.0233
     31 H           2.7770   -0.2946    2.1924 H       1  UNL1        0.0598
     32 H           3.0817   -2.9559    1.1073 H       1  UNL1        0.1510
     33 H           0.4786   -0.7192    1.9409 H       1  UNL1        0.1465
     34 H          -0.6805   -1.8729    1.4408 H       1  UNL1        0.1465
     35 H           4.8302   -1.9676    3.1387 H       1  UNL1        0.1729
     36 H           7.2116   -1.0585    1.6104 H       1  UNL1        0.1731
     37 H           9.1073   -4.2680    3.9574 H       1  UNL1        0.0625
     38 H          11.5633   -4.1174    4.2949 H       1  UNL1        0.0618
     39 H          12.7606   -2.1108    3.7777 H       1  UNL1        0.0636
     40 H          13.6849   -0.4518    3.5182 H       1  UNL1        0.0428
     41 H          13.3576    1.1858    4.0346 H       1  UNL1        0.0428
     42 H          13.5930    0.8113    2.3142 H       1  UNL1        0.0428
     43 H           9.9205    1.4861    2.6537 H       1  UNL1        0.0428
     44 H          11.3701    1.9499    1.8015 H       1  UNL1        0.0428
     45 H          11.1842    2.2992    3.5386 H       1  UNL1        0.0428
     46 H           9.0109   -0.1395    2.8914 H       1  UNL1        0.0643
@<TRIPOS>BOND
     1     1     2    1
     2     2     3    1
     3     2     4    1
     4     4     5    1
     5     5     6   am
     6     6     7   am
     7     6     8    2
     8     4     9    1
     9     9    10    2
    10     9    11   am
    11    11    12    1
    12    12    13   am
    13    13    14    2
    14    13    15    1
    15    15    16   ar
    16    16    17   ar
    17    17    18   ar
    18    18    19   ar
    19    19    20    1
    20    20    21    1
    21    20    22    1
    22    19    23   ar
    23    15    23   ar
    24     1    24    1
    25     1    25    1
    26     1    26    1
    27     2    27    1
    28     3    28    1
    29     3    29    1
    30     3    30    1
    31     4    31    1
    32     5    32    1
    33     7    33    1
    34     7    34    1
    35    11    35    1
    36    12    36    1
    37    16    37    1
    38    17    38    1
    39    18    39    1
    40    21    40    1
    41    21    41    1
    42    21    42    1
    43    22    43    1
    44    22    44    1
    45    22    45    1
    46    23    46    1
