@<TRIPOS>MOLECULE
*****
 58 61 0 0 0
SMALL
GASTEIGER

@<TRIPOS>ATOM
      1 C           0.9360    0.0885   -0.0368 C.3     1  UNL1       -0.0239
      2 C           2.4253    0.1273   -0.0575 C.ar    1  UNL1        0.0216
      3 C           3.2555    1.2335   -0.0419 C.ar    1  UNL1       -0.0320
      4 C           4.6076    0.7986   -0.0039 C.ar    1  UNL1        0.0156
      5 C           5.8186    1.6229   -0.0083 C.2     1  UNL1        0.0545
      6 N           5.7260    2.9162   -0.0241 N.2     1  UNL1       -0.1874
      7 N           6.8989    3.6560   -0.0198 N.am    1  UNL1       -0.2029
      8 C           6.8035    5.0513    0.0170 C.2     1  UNL1        0.2660
      9 O           5.7447    5.6734    0.0087 O.2     1  UNL1       -0.2684
     10 C           8.0703    5.8413    0.0354 C.ar    1  UNL1        0.0735
     11 C           9.1216    5.5817   -0.8543 C.ar    1  UNL1       -0.0456
     12 C          10.2233    6.4565   -0.9238 C.ar    1  UNL1       -0.0435
     13 C          10.3386    7.5302   -0.0317 C.ar    1  UNL1        0.0545
     14 C          11.5583    8.2920    0.0457 C.1     1  UNL1        0.0992
     15 N          12.5594    8.8560    0.1617 N.1     1  UNL1       -0.1909
     16 C           9.2989    7.7889    0.8600 C.ar    1  UNL1       -0.0083
     17 C           8.1689    6.9627    0.8716 C.ar    1  UNL1        0.1367
     18 F           7.2069    7.2474    1.7601 F       1  UNL1       -0.2047
     19 C           4.5594   -0.5952    0.0289 C.ar    1  UNL1        0.0296
     20 C           5.6858   -1.5723   -0.0017 C.3     1  UNL1       -0.0233
     21 N           3.2230   -1.0017    0.0066 N.ar    1  UNL1       -0.3171
     22 C           2.7661   -2.3491   -0.0182 C.ar    1  UNL1        0.0468
     23 C           3.1689   -3.2481    0.9716 C.ar    1  UNL1       -0.0344
     24 C           2.8519   -4.6058    0.8455 C.ar    1  UNL1       -0.0180
     25 C           2.0419   -5.0526   -0.2044 C.ar    1  UNL1        0.1211
     26 O           1.6890   -6.3762   -0.1703 O.3     1  UNL1       -0.4874
     27 C           0.7542   -6.8105   -1.1678 C.3     1  UNL1        0.1146
     28 C           0.4333   -8.2655   -0.9373 C.ar    1  UNL1       -0.0104
     29 C          -0.2524   -8.6843    0.2105 C.ar    1  UNL1       -0.0554
     30 C          -0.3644  -10.0454    0.4992 C.ar    1  UNL1       -0.0614
     31 C           0.0907  -10.9953   -0.4140 C.ar    1  UNL1       -0.0617
     32 C           0.7137  -10.5866   -1.5900 C.ar    1  UNL1       -0.0614
     33 C           0.8883   -9.2286   -1.8479 C.ar    1  UNL1       -0.0554
     34 C           1.6350   -4.1432   -1.1813 C.ar    1  UNL1       -0.0180
     35 C           1.9899   -2.7948   -1.0901 C.ar    1  UNL1       -0.0344
     36 H           0.5285    1.1039   -0.0200 H       1  UNL1        0.0292
     37 H           0.5711   -0.4343    0.8539 H       1  UNL1        0.0292
     38 H           0.5349   -0.4054   -0.9255 H       1  UNL1        0.0292
     39 H           2.9227    2.2649   -0.0513 H       1  UNL1        0.0642
     40 H           6.7923    1.1075    0.0019 H       1  UNL1        0.0852
     41 H           7.7893    3.1754    0.0251 H       1  UNL1        0.1776
     42 H           9.0919    4.7217   -1.5172 H       1  UNL1        0.0626
     43 H          10.9979    6.2886   -1.6728 H       1  UNL1        0.0631
     44 H           9.3601    8.6163    1.5647 H       1  UNL1        0.0659
     45 H           6.6499   -1.0602   -0.0153 H       1  UNL1        0.0292
     46 H           5.6361   -2.1996   -0.8982 H       1  UNL1        0.0292
     47 H           5.6800   -2.2073    0.8868 H       1  UNL1        0.0292
     48 H           3.6988   -2.8996    1.8553 H       1  UNL1        0.0639
     49 H           3.2428   -5.3155    1.5716 H       1  UNL1        0.0655
     50 H           1.2180   -6.7017   -2.1556 H       1  UNL1        0.0748
     51 H          -0.1748   -6.2272   -1.1350 H       1  UNL1        0.0748
     52 H          -0.6759   -7.9545    0.8973 H       1  UNL1        0.0621
     53 H          -0.7823  -10.3675    1.4494 H       1  UNL1        0.0618
     54 H          -0.0401  -12.0539   -0.2078 H       1  UNL1        0.0618
     55 H           1.0949  -11.3229   -2.2917 H       1  UNL1        0.0618
     56 H           1.3970   -8.9228   -2.7587 H       1  UNL1        0.0621
     57 H           1.0584   -4.4553   -2.0449 H       1  UNL1        0.0655
     58 H           1.6872   -2.1208   -1.8863 H       1  UNL1        0.0639
@<TRIPOS>BOND
     1     1     2    1
     2     2     3   ar
     3     3     4   ar
     4     4     5    1
     5     5     6    2
     6     6     7    1
     7     7     8   am
     8     8     9    2
     9     8    10    1
    10    10    11   ar
    11    11    12   ar
    12    12    13   ar
    13    13    14    1
    14    14    15    3
    15    13    16   ar
    16    16    17   ar
    17    10    17   ar
    18    17    18    1
    19     4    19   ar
    20    19    20    1
    21    19    21   ar
    22     2    21   ar
    23    21    22    1
    24    22    23   ar
    25    23    24   ar
    26    24    25   ar
    27    25    26    1
    28    26    27    1
    29    27    28    1
    30    28    29   ar
    31    29    30   ar
    32    30    31   ar
    33    31    32   ar
    34    32    33   ar
    35    28    33   ar
    36    25    34   ar
    37    34    35   ar
    38    22    35   ar
    39     1    36    1
    40     1    37    1
    41     1    38    1
    42     3    39    1
    43     5    40    1
    44     7    41    1
    45    11    42    1
    46    12    43    1
    47    16    44    1
    48    20    45    1
    49    20    46    1
    50    20    47    1
    51    23    48    1
    52    24    49    1
    53    27    50    1
    54    27    51    1
    55    29    52    1
    56    30    53    1
    57    31    54    1
    58    32    55    1
    59    33    56    1
    60    34    57    1
    61    35    58    1
