REMARK  7 active torsions:
REMARK  status: ('A' for Active; 'I' for Inactive)
REMARK       I    between atoms: C_2  and  N_3 
REMARK    1  A    between atoms: C_2  and  C_14 
REMARK    2  A    between atoms: N_3  and  C_4 
REMARK    3  A    between atoms: C_4  and  C_5 
REMARK    4  A    between atoms: C_5  and  O_6 
REMARK    5  A    between atoms: C_5  and  C_7 
REMARK       I    between atoms: C_14  and  N_16 
REMARK    6  A    between atoms: N_16  and  C_17 
REMARK    7  A    between atoms: C_22  and  C_23 
ROOT
ATOM      1  O   UNL d   1       1.006  -0.127   0.019  0.00  0.00    -0.262 OA
ATOM      2  C   UNL d   1       2.234  -0.048  -0.036  0.00  0.00     0.309 C 
ATOM      3  N   UNL d   1       2.959  -0.811  -0.926  0.00  0.00    -0.350 N 
ATOM      4  H   UNL d   1       3.967  -0.848  -0.928  0.00  0.00     0.163 HD
ENDROOT
BRANCH   2   5
ATOM      5  C   UNL d   1       2.976   0.939   0.888  0.00  0.00     0.314 C 
ATOM      6  O   UNL d   1       2.287   1.790   1.450  0.00  0.00    -0.262 OA
ATOM      7  N   UNL d   1       4.365   0.852   1.009  0.00  0.00    -0.318 N 
ATOM      8  H   UNL d   1       4.912   0.397   0.294  0.00  0.00     0.169 HD
BRANCH   7   9
ATOM      9  C   UNL d   1       5.092   1.481   2.071  0.00  0.00     0.046 A 
ATOM     10  C   UNL d   1       6.332   2.071   1.776  0.00  0.00     0.030 A 
ATOM     11  C   UNL d   1       7.147   2.575   2.800  0.00  0.00     0.002 A 
ATOM     12  C   UNL d   1       6.721   2.530   4.125  0.00  0.00     0.001 A 
ATOM     13  C   UNL d   1       5.488   1.960   4.433  0.00  0.00     0.015 A 
ATOM     14  C   UNL d   1       4.663   1.434   3.423  0.00  0.00     0.008 A 
BRANCH  14  15
ATOM     15  C   UNL d   1       3.442   0.726   3.819  0.00  0.00     0.017 C 
ATOM     16  C   UNL d   1       3.083  -0.572   3.506  0.00  0.00     0.020 C 
ATOM     17  C   UNL d   1       1.720  -0.838   3.801  0.00  0.00     0.008 C 
ATOM     18  C   UNL d   1       1.103   0.239   4.397  0.00  0.00     0.050 C 
ATOM     19  S   UNL d   1       2.179   1.548   4.640  0.00  0.00    -0.101 SA
ENDBRANCH  14  15
ENDBRANCH   7   9
ENDBRANCH   2   5
BRANCH   3  20
ATOM     20  C   UNL d   1       2.241  -1.604  -1.919  0.00  0.00     0.159 C 
BRANCH  20  21
ATOM     21  C   UNL d   1       3.208  -2.345  -2.851  0.00  0.00     0.172 C 
BRANCH  21  22
ATOM     22  O   UNL d   1       4.079  -3.137  -2.021  0.00  0.00    -0.389 OA
ATOM     23  H   UNL d   1       3.509  -3.781  -1.562  0.00  0.00     0.210 HD
ENDBRANCH  21  22
BRANCH  21  24
ATOM     24  C   UNL d   1       2.511  -3.193  -3.886  0.00  0.00     0.011 A 
ATOM     25  C   UNL d   1       2.706  -4.580  -3.962  0.00  0.00     0.013 A 
ATOM     26  C   UNL d   1       2.090  -5.336  -4.958  0.00  0.00     0.001 A 
ATOM     27  C   UNL d   1       1.274  -4.718  -5.902  0.00  0.00     0.003 A 
ATOM     28  C   UNL d   1       1.065  -3.342  -5.844  0.00  0.00     0.043 A 
ATOM     29  C   UNL d   1       1.680  -2.594  -4.843  0.00  0.00     0.125 A 
ATOM     30  F   UNL d   1       1.473  -1.270  -4.818  0.00  0.00    -0.205 F 
ENDBRANCH  21  24
ENDBRANCH  20  21
ENDBRANCH   3  20
TORSDOF 7
