@<TRIPOS>MOLECULE
*****
 47 49 0 0 0
SMALL
GASTEIGER

@<TRIPOS>ATOM
      1 C           1.1043    1.1026   -2.2418 C.3     1  UNL1       -0.0411
      2 C           0.5842    2.4750   -1.8936 C.3     1  UNL1        0.0827
      3 N           1.1628    2.7874   -0.5622 N.3     1  UNL1       -0.2993
      4 C           2.3346    3.6805   -0.6255 C.3     1  UNL1        0.0313
      5 C           2.9148    3.9951    0.7665 C.3     1  UNL1       -0.0455
      6 C           2.0213    4.9750   -1.3617 C.ar    1  UNL1       -0.0230
      7 C           2.6978    5.2588   -2.5665 C.ar    1  UNL1       -0.0565
      8 C           2.3470    6.3737   -3.3198 C.ar    1  UNL1       -0.0609
      9 C           1.3220    7.2105   -2.8795 C.ar    1  UNL1       -0.0540
     10 C           0.6246    6.9457   -1.6877 C.ar    1  UNL1       -0.0176
     11 C          -0.4416    7.7604   -1.2664 C.ar    1  UNL1       -0.0540
     12 C          -1.1413    7.4998   -0.0836 C.ar    1  UNL1       -0.0612
     13 C          -0.7984    6.4171    0.6964 C.ar    1  UNL1       -0.0612
     14 C           0.2430    5.6115    0.2853 C.ar    1  UNL1       -0.0537
     15 C           0.9797    5.8326   -0.9049 C.ar    1  UNL1       -0.0132
     16 C          -0.9605    2.4628   -1.7885 C.2     1  UNL1        0.2340
     17 O          -1.5112    2.6153   -0.6956 O.2     1  UNL1       -0.2738
     18 N          -1.6611    2.2398   -2.9760 N.am    1  UNL1       -0.2831
     19 C          -3.0847    2.2439   -3.0138 C.ar    1  UNL1        0.0509
     20 C          -3.7626    1.2105   -3.6769 C.ar    1  UNL1       -0.0392
     21 C          -5.1681    1.1678   -3.6722 C.ar    1  UNL1       -0.0599
     22 C          -5.9074    2.1908   -3.0816 C.ar    1  UNL1       -0.0604
     23 C          -5.2447    3.2441   -2.4696 C.ar    1  UNL1       -0.0425
     24 C          -3.8469    3.2573   -2.4096 C.ar    1  UNL1        0.0729
     25 C          -3.2540    4.3797   -1.7540 C.1     1  UNL1        0.1010
     26 N          -2.8296    5.3010   -1.2145 N.1     1  UNL1       -0.1908
     27 H           0.7589    0.8016   -3.2313 H       1  UNL1        0.0249
     28 H           0.7490    0.3655   -1.5126 H       1  UNL1        0.0249
     29 H           2.1990    1.0936   -2.2378 H       1  UNL1        0.0249
     30 H           0.8463    3.2059   -2.6636 H       1  UNL1        0.0554
     31 H           0.3990    3.2245   -0.0416 H       1  UNL1        0.1232
     32 H           3.1179    3.1251   -1.1567 H       1  UNL1        0.0508
     33 H           2.2792    4.6158    1.4004 H       1  UNL1        0.0248
     34 H           3.8449    4.5654    0.6668 H       1  UNL1        0.0248
     35 H           3.1119    3.0832    1.3347 H       1  UNL1        0.0248
     36 H           3.4788    4.5958   -2.9364 H       1  UNL1        0.0621
     37 H           2.8577    6.5895   -4.2552 H       1  UNL1        0.0618
     38 H           1.0647    8.0839   -3.4738 H       1  UNL1        0.0624
     39 H          -0.7686    8.5916   -1.8818 H       1  UNL1        0.0624
     40 H          -2.0023    8.0924    0.1990 H       1  UNL1        0.0618
     41 H          -1.3663    6.1264    1.5747 H       1  UNL1        0.0618
     42 H           0.4189    4.7724    0.9442 H       1  UNL1        0.0624
     43 H          -1.1665    1.8439   -3.7660 H       1  UNL1        0.1549
     44 H          -3.2235    0.3841   -4.1336 H       1  UNL1        0.0636
     45 H          -5.6967    0.3263   -4.1165 H       1  UNL1        0.0618
     46 H          -6.9942    2.1730   -3.0846 H       1  UNL1        0.0618
     47 H          -5.8115    4.0596   -2.0231 H       1  UNL1        0.0631
@<TRIPOS>BOND
     1     4     6    1
     2     6     7   ar
     3     7     8   ar
     4     8     9   ar
     5     9    10   ar
     6    10    11   ar
     7    11    12   ar
     8    12    13   ar
     9    13    14   ar
    10    14    15   ar
    11     6    15   ar
    12    10    15   ar
    13     2    16    1
    14    16    17    2
    15    16    18   am
    16    18    19    1
    17    19    20   ar
    18    20    21   ar
    19    21    22   ar
    20    22    23   ar
    21    23    24   ar
    22    19    24   ar
    23    24    25    1
    24    25    26    3
    25     4     5    1
    26     4     3    1
    27     2     3    1
    28     2     1    1
    29     1    27    1
    30     1    28    1
    31     1    29    1
    32     2    30    1
    33     3    31    1
    34     4    32    1
    35     5    33    1
    36     5    34    1
    37     5    35    1
    38     7    36    1
    39     8    37    1
    40     9    38    1
    41    11    39    1
    42    12    40    1
    43    13    41    1
    44    14    42    1
    45    18    43    1
    46    20    44    1
    47    21    45    1
    48    22    46    1
    49    23    47    1
