@<TRIPOS>MOLECULE
*****
 53 55 0 0 0
SMALL
GASTEIGER

@<TRIPOS>ATOM
      1 C          10.9412   -3.5529   -5.2593 C.3     1  UNL1        0.0788
      2 O          10.2414   -3.1271   -4.0913 O.3     1  UNL1       -0.4950
      3 C           8.9815   -2.6448   -4.2907 C.ar    1  UNL1        0.1236
      4 C           8.5880   -1.6123   -3.4537 C.ar    1  UNL1       -0.0193
      5 C           7.3055   -1.0885   -3.5604 C.ar    1  UNL1       -0.0463
      6 C           6.4435   -1.4937   -4.6047 C.ar    1  UNL1        0.0419
      7 C           5.3249   -0.5335   -4.9410 C.3     1  UNL1        0.0106
      8 C           5.8605    0.8280   -5.3616 C.3     1  UNL1       -0.0003
      9 C           6.0670    0.7016   -6.8501 C.3     1  UNL1       -0.0070
     10 C           5.0313   -0.3044   -7.3317 C.3     1  UNL1       -0.0292
     11 N           4.3393   -0.8643   -6.0503 N.4     1  UNL1        0.2593
     12 C           2.9056   -0.3366   -5.9015 C.3     1  UNL1        0.1012
     13 N           2.0987   -1.0217   -4.8653 N.ar    1  UNL1       -0.0905
     14 N           2.5345   -1.2007   -3.5387 N.ar    1  UNL1       -0.0770
     15 C           1.8472   -2.0568   -2.8724 C.ar    1  UNL1        0.4384
     16 O           2.2924   -2.5831   -1.7206 O.3     1  UNL1       -0.4337
     17 C           3.5831   -2.3595   -1.0773 C.3     1  UNL1        0.1010
     18 C           3.5970   -0.9460   -0.5169 C.3     1  UNL1       -0.0278
     19 C           3.7164   -3.3629    0.0662 C.3     1  UNL1       -0.0278
     20 S           0.3812   -2.5331   -3.6258 S.2     1  UNL1        0.0548
     21 C           0.8237   -1.5698   -5.0469 C.ar    1  UNL1        0.1960
     22 S          -0.1781   -1.3885   -6.3525 S.2     1  UNL1       -0.0190
     23 C           6.7799   -2.6381   -5.3371 C.ar    1  UNL1        0.1320
     24 O           5.8116   -3.1557   -6.1642 O.3     1  UNL1       -0.4945
     25 C           6.2071   -4.3220   -6.9063 C.3     1  UNL1        0.0788
     26 C           8.0606   -3.1899   -5.1844 C.ar    1  UNL1        0.0222
     27 H          11.8913   -3.9887   -4.9376 H       1  UNL1        0.0660
     28 H          11.1548   -2.6944   -5.9040 H       1  UNL1        0.0660
     29 H          10.4098   -4.3286   -5.8174 H       1  UNL1        0.0660
     30 H           9.3003   -1.1794   -2.7521 H       1  UNL1        0.0654
     31 H           7.0329   -0.2892   -2.8708 H       1  UNL1        0.0624
     32 H           4.7707   -0.3977   -4.0240 H       1  UNL1        0.0906
     33 H           6.7814    1.1246   -4.8512 H       1  UNL1        0.0325
     34 H           5.1129    1.5989   -5.1457 H       1  UNL1        0.0325
     35 H           7.0799    0.3409   -7.0669 H       1  UNL1        0.0319
     36 H           5.9572    1.6737   -7.3386 H       1  UNL1        0.0319
     37 H           5.5113   -1.1476   -7.8415 H       1  UNL1        0.0815
     38 H           4.2831    0.1381   -7.9953 H       1  UNL1        0.0815
     39 H           4.3260   -1.8894   -6.2007 H       1  UNL1        0.2061
     40 H           2.4344   -0.4878   -6.8775 H       1  UNL1        0.1120
     41 H           2.9546    0.7384   -5.6963 H       1  UNL1        0.1120
     42 H           3.3085   -0.7298   -3.0972 H       1  UNL1        0.4915
     43 H           4.3902   -2.5288   -1.8030 H       1  UNL1        0.0729
     44 H           2.7445   -0.8097    0.1558 H       1  UNL1        0.0265
     45 H           3.4798   -0.1872   -1.2912 H       1  UNL1        0.0265
     46 H           4.5281   -0.7336    0.0109 H       1  UNL1        0.0265
     47 H           2.8797   -3.2624    0.7669 H       1  UNL1        0.0265
     48 H           4.6502   -3.2104    0.6179 H       1  UNL1        0.0265
     49 H           3.6945   -4.3946   -0.3008 H       1  UNL1        0.0265
     50 H           5.3500   -4.6570   -7.4950 H       1  UNL1        0.0660
     51 H           6.4963   -5.1454   -6.2417 H       1  UNL1        0.0660
     52 H           7.0153   -4.0667   -7.6000 H       1  UNL1        0.0660
     53 H           8.3671   -4.0539   -5.7603 H       1  UNL1        0.0691
@<TRIPOS>UNITY_ATOM_ATTR
11 1
charge 1
14 1
charge 1
@<TRIPOS>BOND
     1     1     2    1
     2     2     3    1
     3     3     4   ar
     4     4     5   ar
     5     5     6   ar
     6     7     8    1
     7     8     9    1
     8     9    10    1
     9    10    11    1
    10     7    11    1
    11    11    12    1
    12    12    13    1
    13    13    14   ar
    14    14    15   ar
    15    15    16    1
    16    16    17    1
    17    17    18    1
    18    17    19    1
    19    15    20   ar
    20    20    21   ar
    21    13    21   ar
    22    21    22    2
    23     6    23   ar
    24    23    24    1
    25    24    25    1
    26    23    26   ar
    27     3    26   ar
    28     7     6    1
    29     1    27    1
    30     1    28    1
    31     1    29    1
    32     4    30    1
    33     5    31    1
    34     7    32    1
    35     8    33    1
    36     8    34    1
    37     9    35    1
    38     9    36    1
    39    10    37    1
    40    10    38    1
    41    11    39    1
    42    12    40    1
    43    12    41    1
    44    14    42    1
    45    17    43    1
    46    18    44    1
    47    18    45    1
    48    18    46    1
    49    19    47    1
    50    19    48    1
    51    19    49    1
    52    25    50    1
    53    25    51    1
    54    25    52    1
    55    26    53    1
