@<TRIPOS>MOLECULE
*****
 48 49 0 0 0
SMALL
GASTEIGER

@<TRIPOS>ATOM
      1 C           4.9941   -0.1430    3.6595 C.3     1  UNL1       -0.0440
      2 C           4.5444    0.3049    5.0239 C.2     1  UNL1       -0.0793
      3 C           5.1312   -0.4222    6.2053 C.3     1  UNL1       -0.0440
      4 C           3.6677    1.3223    5.1867 C.2     1  UNL1       -0.0809
      5 C           3.1802    1.8133    6.4901 C.3     1  UNL1       -0.0052
      6 C           2.9889    3.2705    6.8559 C.3     1  UNL1        0.0479
      7 C           3.4814    4.4086    6.0294 C.2     1  UNL1        0.2173
      8 O           4.4008    5.0975    6.4443 O.2     1  UNL1       -0.2755
      9 N           2.8505    4.6685    4.8471 N.am    1  UNL1       -0.3123
     10 C           3.3281    5.6518    3.8994 C.3     1  UNL1        0.0418
     11 C           2.5187    5.5982    2.5805 C.3     1  UNL1        0.0956
     12 O           3.3743    5.3306    1.4715 O.3     1  UNL1       -0.3856
     13 C           1.7451    6.8860    2.3977 C.ar    1  UNL1       -0.0172
     14 C           2.2741    7.9530    1.6581 C.ar    1  UNL1       -0.0497
     15 C           1.6454    9.1943    1.6578 C.ar    1  UNL1        0.0159
     16 C           0.4208    9.3454    2.3148 C.ar    1  UNL1        0.2732
     17 N          -0.3169   10.6034    2.1707 N.pl3   1  UNL1        0.0796
     18 O           0.2012   11.4991    1.4882 O.2     1  UNL1        0.0414
     19 O          -1.4266   10.6863    2.7152 O.co2   1  UNL1       -0.5760
     20 C          -0.1345    8.2887    3.0457 C.ar    1  UNL1        0.0159
     21 C           0.5340    7.0646    3.0909 C.ar    1  UNL1       -0.0497
     22 C           1.7780    2.3530    6.6819 C.3     1  UNL1       -0.0163
     23 C           0.8080    2.4495    5.5354 C.3     1  UNL1       -0.0585
     24 C           1.0796    1.9141    7.9575 C.3     1  UNL1       -0.0585
     25 H           5.7304   -0.9523    3.7202 H       1  UNL1        0.0274
     26 H           5.4684    0.6832    3.1204 H       1  UNL1        0.0274
     27 H           4.1502   -0.5171    3.0708 H       1  UNL1        0.0274
     28 H           5.8530   -1.1894    5.9132 H       1  UNL1        0.0274
     29 H           4.3413   -0.9212    6.7779 H       1  UNL1        0.0274
     30 H           5.6551    0.2829    6.8602 H       1  UNL1        0.0274
     31 H           3.2867    1.7913    4.2811 H       1  UNL1        0.0575
     32 H           3.5305    1.1921    7.3121 H       1  UNL1        0.0356
     33 H           3.2312    3.4945    7.8973 H       1  UNL1        0.0405
     34 H           2.0371    4.1507    4.5991 H       1  UNL1        0.1488
     35 H           4.3884    5.4426    3.7217 H       1  UNL1        0.0491
     36 H           3.2632    6.6302    4.3918 H       1  UNL1        0.0491
     37 H           1.8018    4.7668    2.5915 H       1  UNL1        0.0659
     38 H           4.0861    5.9912    1.4851 H       1  UNL1        0.2103
     39 H           3.1844    7.8376    1.0758 H       1  UNL1        0.0623
     40 H           2.1215   10.0236    1.1399 H       1  UNL1        0.0685
     41 H          -1.0718    8.4037    3.5862 H       1  UNL1        0.0685
     42 H           0.1088    6.2508    3.6774 H       1  UNL1        0.0623
     43 H           1.2661    2.5790    4.5566 H       1  UNL1        0.0235
     44 H           0.1136    3.2780    5.7156 H       1  UNL1        0.0235
     45 H           0.2280    1.5270    5.4434 H       1  UNL1        0.0235
     46 H           1.7805    1.7625    8.7864 H       1  UNL1        0.0235
     47 H           0.5548    0.9664    7.7944 H       1  UNL1        0.0235
     48 H           0.3492    2.6673    8.2676 H       1  UNL1        0.0235
@<TRIPOS>UNITY_ATOM_ATTR
17 1
charge 1
19 1
charge -1
@<TRIPOS>BOND
     1     1     2    1
     2     2     3    1
     3     2     4    2
     4     4     5    1
     5     5     6    1
     6     7     8    2
     7     7     9   am
     8     9    10    1
     9    11    13    1
    10    13    14   ar
    11    14    15   ar
    12    15    16   ar
    13    16    17    1
    14    17    18    2
    15    17    19    1
    16    16    20   ar
    17    20    21   ar
    18    13    21   ar
    19     6    22    1
    20     5    22    1
    21    22    23    1
    22    22    24    1
    23     6     7    1
    24    11    12    1
    25    11    10    1
    26     1    25    1
    27     1    26    1
    28     1    27    1
    29     3    28    1
    30     3    29    1
    31     3    30    1
    32     4    31    1
    33     5    32    1
    34     6    33    1
    35     9    34    1
    36    10    35    1
    37    10    36    1
    38    11    37    1
    39    12    38    1
    40    14    39    1
    41    15    40    1
    42    20    41    1
    43    21    42    1
    44    23    43    1
    45    23    44    1
    46    23    45    1
    47    24    46    1
    48    24    47    1
    49    24    48    1
