@<TRIPOS>MOLECULE
*****
 47 49 0 0 0
SMALL
GASTEIGER

@<TRIPOS>ATOM
      1 C           1.2240    0.2976    0.0420 C.3     1  UNL1       -0.0198
      2 C           2.7138    0.0678    0.0414 C.ar    1  UNL1        0.0735
      3 N           3.6183    1.0783    0.0399 N.ar    1  UNL1       -0.1746
      4 N           4.8343    0.4416    0.0359 N.ar    1  UNL1       -0.2551
      5 C           6.1215    1.1186    0.0320 C.3     1  UNL1        0.0318
      6 C           4.6905   -0.9120    0.0363 C.ar    1  UNL1        0.1392
      7 CL          6.0734   -1.9174    0.0223 Cl      1  UNL1       -0.0616
      8 C           3.3538   -1.2198    0.0405 C.ar    1  UNL1        0.0956
      9 C           2.8458   -2.5792    0.0332 C.2     1  UNL1        0.2490
     10 O           3.5772   -3.5745    0.0639 O.2     1  UNL1       -0.2700
     11 N           1.4877   -2.7432   -0.0090 N.am    1  UNL1       -0.3068
     12 C           0.9133   -4.0560    0.0326 C.3     1  UNL1        0.0448
     13 C          -0.5975   -4.1106    0.0296 C.ar    1  UNL1        0.0573
     14 C          -1.3846   -2.9400    0.0622 C.ar    1  UNL1       -0.0438
     15 C          -2.7665   -3.0018    0.1134 C.ar    1  UNL1        0.0025
     16 C          -3.3597   -4.2451    0.1162 C.ar    1  UNL1        0.1711
     17 N          -2.6043   -5.3517    0.0630 N.ar    1  UNL1       -0.1979
     18 C          -1.2562   -5.3623    0.0258 C.ar    1  UNL1        0.2765
     19 N          -0.6848   -6.5988    0.2073 N.pl3   1  UNL1       -0.2777
     20 C          -0.3702   -7.5138   -0.9109 C.3     1  UNL1        0.0173
     21 C          -0.5397   -8.9512   -0.3786 C.3     1  UNL1       -0.0370
     22 C           0.3058   -9.2052    0.8783 C.3     1  UNL1       -0.0502
     23 C           0.0996   -8.1108    1.9229 C.3     1  UNL1       -0.0370
     24 C           0.2864   -6.7380    1.3041 C.3     1  UNL1        0.0173
     25 H           0.8731    1.3307    0.0381 H       1  UNL1        0.0293
     26 H           0.7783   -0.1795    0.9283 H       1  UNL1        0.0293
     27 H           0.7768   -0.1872   -0.8392 H       1  UNL1        0.0293
     28 H           6.0328    2.2042    0.0338 H       1  UNL1        0.0473
     29 H           6.6777    0.7953   -0.8575 H       1  UNL1        0.0473
     30 H           6.6833    0.7928    0.9170 H       1  UNL1        0.0473
     31 H           0.9014   -1.9443    0.0700 H       1  UNL1        0.1493
     32 H           1.3017   -4.4974    0.9531 H       1  UNL1        0.0514
     33 H           1.3010   -4.6130   -0.8275 H       1  UNL1        0.0514
     34 H          -0.9577   -1.9424    0.0701 H       1  UNL1        0.0625
     35 H          -3.3537   -2.0864    0.1630 H       1  UNL1        0.0677
     36 H          -4.4354   -4.3708    0.1857 H       1  UNL1        0.1376
     37 H          -3.0472   -6.2647    0.1233 H       1  UNL1        0.4542
     38 H           0.6679   -7.3749   -1.2470 H       1  UNL1        0.0465
     39 H          -1.0206   -7.3597   -1.7789 H       1  UNL1        0.0465
     40 H          -0.2771   -9.6864   -1.1478 H       1  UNL1        0.0280
     41 H          -1.5954   -9.1097   -0.1253 H       1  UNL1        0.0280
     42 H           1.3669   -9.2504    0.6027 H       1  UNL1        0.0266
     43 H           0.0468  -10.1749    1.3175 H       1  UNL1        0.0266
     44 H           0.8027   -8.2355    2.7522 H       1  UNL1        0.0280
     45 H          -0.9158   -8.1806    2.3303 H       1  UNL1        0.0280
     46 H           1.3131   -6.6440    0.9241 H       1  UNL1        0.0465
     47 H           0.1247   -5.9808    2.0783 H       1  UNL1        0.0465
@<TRIPOS>UNITY_ATOM_ATTR
17 1
charge 1
@<TRIPOS>BOND
     1     1     2    1
     2     2     3   ar
     3     3     4   ar
     4     4     5    1
     5     4     6   ar
     6     6     7    1
     7     6     8   ar
     8     2     8   ar
     9     8     9    1
    10     9    10    2
    11     9    11   am
    12    11    12    1
    13    12    13    1
    14    13    14   ar
    15    14    15   ar
    16    15    16   ar
    17    16    17   ar
    18    17    18   ar
    19    13    18   ar
    20    18    19    1
    21    19    20    1
    22    20    21    1
    23    21    22    1
    24    22    23    1
    25    23    24    1
    26    19    24    1
    27     1    25    1
    28     1    26    1
    29     1    27    1
    30     5    28    1
    31     5    29    1
    32     5    30    1
    33    11    31    1
    34    12    32    1
    35    12    33    1
    36    14    34    1
    37    15    35    1
    38    16    36    1
    39    17    37    1
    40    20    38    1
    41    20    39    1
    42    21    40    1
    43    21    41    1
    44    22    42    1
    45    22    43    1
    46    23    44    1
    47    23    45    1
    48    24    46    1
    49    24    47    1
