@<TRIPOS>MOLECULE
*****
 24 25 0 0 0
SMALL
GASTEIGER

@<TRIPOS>ATOM
      1 O           0.9778    0.0988   -0.0377 O.2     1  UNL1       -0.2651
      2 C           2.2165    0.0492   -0.0108 C.2     1  UNL1        0.2985
      3 N           2.9397    0.2616    1.1707 N.am    1  UNL1       -0.2004
      4 N           2.2368    0.5145    2.3448 N.2     1  UNL1       -0.1859
      5 C           2.8798    0.8787    3.4095 C.2     1  UNL1        0.0689
      6 C           2.1720    1.1352    4.6567 C.ar    1  UNL1        0.0590
      7 C           1.0582    0.4878    5.1742 C.ar    1  UNL1       -0.0355
      8 C           0.7358    1.0637    6.4288 C.ar    1  UNL1       -0.0438
      9 C           1.6391    2.0752    6.6496 C.ar    1  UNL1        0.0022
     10 N           2.5068    2.1068    5.5840 N.ar    1  UNL1       -0.3599
     11 C           2.9625   -0.1528   -1.2477 C.ar    1  UNL1        0.1907
     12 C           2.6708    0.3142   -2.5209 C.ar    1  UNL1       -0.0112
     13 C           3.5900   -0.2774   -3.4156 C.ar    1  UNL1       -0.0231
     14 C           4.3838   -1.0949   -2.6462 C.ar    1  UNL1        0.0928
     15 O           4.0419   -1.0019   -1.3245 O.2     1  UNL1       -0.4583
     16 H           3.9529    0.3021    1.1549 H       1  UNL1        0.1777
     17 H           3.9755    1.0124    3.4160 H       1  UNL1        0.0866
     18 H           0.5425   -0.3377    4.6998 H       1  UNL1        0.0639
     19 H          -0.0723    0.7778    7.0922 H       1  UNL1        0.0633
     20 H           1.7323    2.7742    7.4726 H       1  UNL1        0.0807
     21 H           3.2508    2.7842    5.4847 H       1  UNL1        0.1654
     22 H           1.8598    0.9882   -2.7620 H       1  UNL1        0.0657
     23 H           3.6424   -0.1473   -4.4897 H       1  UNL1        0.0649
     24 H           5.1907   -1.7750   -2.8897 H       1  UNL1        0.1029
@<TRIPOS>BOND
     1     1     2    2
     2     2     3   am
     3     3     4    1
     4     4     5    2
     5     5     6    1
     6     6     7   ar
     7     7     8   ar
     8     8     9   ar
     9     9    10   ar
    10     6    10   ar
    11     2    11    1
    12    11    12   ar
    13    12    13   ar
    14    13    14   ar
    15    14    15   ar
    16    11    15   ar
    17     3    16    1
    18     5    17    1
    19     7    18    1
    20     8    19    1
    21     9    20    1
    22    10    21    1
    23    12    22    1
    24    13    23    1
    25    14    24    1
