REMARK  6 active torsions:
REMARK  status: ('A' for Active; 'I' for Inactive)
REMARK    1  A    between atoms: O_2  and  C_3 
REMARK    2  A    between atoms: C_6  and  C_7 
REMARK       I    between atoms: C_7  and  N_9 
REMARK       I    between atoms: C_10  and  N_11 
REMARK       I    between atoms: C_10  and  N_19 
REMARK    3  A    between atoms: N_11  and  C_12 
REMARK    4  A    between atoms: C_12  and  C_13 
REMARK    5  A    between atoms: N_19  and  C_20 
REMARK    6  A    between atoms: C_29  and  O_30 
ROOT
ATOM      1  C   UNL d   1       5.243  -2.390  -4.265  0.00  0.00     0.294 C 
ATOM      2  O   UNL d   1       6.192  -3.122  -3.944  0.00  0.00    -0.265 OA
ATOM      3  N   UNL d   1       4.767  -2.233  -5.549  0.00  0.00    -0.023 NA
ATOM      4  C   UNL d   1       5.270  -2.934  -6.531  0.00  0.00     0.704 C 
ATOM      5  N   UNL d   1       4.696  -2.881  -7.781  0.00  0.00    -0.220 N 
ATOM      6  N   UNL d   1       6.309  -3.829  -6.422  0.00  0.00    -0.190 N 
ATOM      7  H   UNL d   1       5.098  -3.474  -8.496  0.00  0.00     0.178 HD
ATOM      8  H   UNL d   1       6.679  -3.933  -5.474  0.00  0.00     0.184 HD
ENDROOT
BRANCH   5   9
ATOM      9  C   UNL d   1       3.786  -1.855  -8.235  0.00  0.00     0.178 C 
BRANCH   9  10
ATOM     10  C   UNL d   1       3.606  -1.855  -9.739  0.00  0.00    -0.022 A 
ATOM     11  C   UNL d   1       2.617  -2.635 -10.349  0.00  0.00     0.012 A 
ATOM     12  C   UNL d   1       2.419  -2.569 -11.728  0.00  0.00     0.020 A 
ATOM     13  C   UNL d   1       3.228  -1.728 -12.471  0.00  0.00     0.116 A 
ATOM     14  N   UNL d   1       4.206  -0.972 -11.931  0.00  0.00    -0.273 NA
ATOM     15  C   UNL d   1       4.371  -1.052 -10.585  0.00  0.00     0.124 A 
ENDBRANCH   9  10
ENDBRANCH   5   9
BRANCH   6  16
ATOM     16  C   UNL d   1       7.088  -4.476  -7.402  0.00  0.00     0.055 A 
ATOM     17  C   UNL d   1       7.395  -5.839  -7.197  0.00  0.00     0.037 A 
ATOM     18  C   UNL d   1       8.145  -6.568  -8.130  0.00  0.00    -0.060 A 
ATOM     19  C   UNL d   1       8.661  -7.944  -7.833  0.00  0.00     0.048 C 
ATOM     20  C   UNL d   1       8.491  -5.965  -9.338  0.00  0.00     0.007 A 
ATOM     21  C   UNL d   1       8.225  -4.615  -9.544  0.00  0.00     0.009 A 
ATOM     22  C   UNL d   1       7.566  -3.848  -8.570  0.00  0.00    -0.035 A 
ATOM     23  C   UNL d   1       7.470  -2.365  -8.806  0.00  0.00     0.050 C 
ENDBRANCH   6  16
BRANCH   1  24
ATOM     24  C   UNL d   1       4.498  -1.685  -3.168  0.00  0.00     0.037 A 
ATOM     25  C   UNL d   1       4.845  -1.892  -1.831  0.00  0.00     0.020 A 
ATOM     26  C   UNL d   1       4.058  -1.354  -0.795  0.00  0.00     0.040 A 
ATOM     27  C   UNL d   1       2.943  -0.528  -1.054  0.00  0.00     0.101 A 
ATOM     28  C   UNL d   1       2.648  -0.248  -2.408  0.00  0.00     0.102 A 
ATOM     29  C   UNL d   1       3.414  -0.849  -3.438  0.00  0.00     0.056 A 
BRANCH  27  30
ATOM     30  O   UNL d   1       2.453   0.077   0.084  0.00  0.00    -0.353 OA
ATOM     31  C   UNL d   1       1.079  -0.056   0.455  0.00  0.00     0.210 C 
ENDBRANCH  27  30
BRANCH  28  32
ATOM     32  O   UNL d   1       1.730   0.602  -2.976  0.00  0.00    -0.353 OA
ATOM     33  C   UNL d   1       0.778   1.143  -2.103  0.00  0.00     0.210 C 
ENDBRANCH  28  32
ENDBRANCH   1  24
TORSDOF 6
