@<TRIPOS>MOLECULE
*****
 35 37 0 0 0
SMALL
GASTEIGER

@<TRIPOS>ATOM
      1 O           1.0980    0.0962   -0.0849 O.2     1  UNL1       -0.2667
      2 C           2.3324    0.0388   -0.0126 C.2     1  UNL1        0.2833
      3 N           3.0498    0.4780    1.1093 N.am    1  UNL1       -0.2016
      4 N           2.3472    0.9501    2.2113 N.2     1  UNL1       -0.1859
      5 C           2.9967    1.5027    3.1917 C.2     1  UNL1        0.0710
      6 C           2.2955    2.0098    4.4135 C.ar    1  UNL1        0.0833
      7 C           1.1818    1.3451    4.9146 C.ar    1  UNL1       -0.0347
      8 C           0.5718    1.8362    6.0710 C.ar    1  UNL1       -0.0583
      9 C           1.0734    2.9837    6.6742 C.ar    1  UNL1       -0.0436
     10 C           2.1880    3.5827    6.1049 C.ar    1  UNL1        0.0283
     11 N           2.8292    3.1132    5.0016 N.ar    1  UNL1       -0.2540
     12 C           3.1064   -0.4588   -1.1785 C.ar    1  UNL1        0.1490
     13 C           2.7865   -0.2010   -2.5471 C.ar    1  UNL1       -0.0041
     14 C           3.6424   -0.9619   -3.3178 C.ar    1  UNL1        0.0665
     15 C           3.7723   -1.0739   -4.7728 C.ar    1  UNL1        0.0013
     16 C           4.0724    0.0665   -5.5323 C.ar    1  UNL1       -0.0511
     17 C           4.1850   -0.0030   -6.9272 C.ar    1  UNL1       -0.0413
     18 C           3.9832   -1.2154   -7.5880 C.ar    1  UNL1        0.0593
     19 CL          4.1627   -1.2380   -9.3070 Cl      1  UNL1       -0.0820
     20 C           3.6543   -2.3554   -6.8466 C.ar    1  UNL1        0.0599
     21 CL          3.3419   -3.8799   -7.6024 Cl      1  UNL1       -0.0820
     22 C           3.5576   -2.2852   -5.4452 C.ar    1  UNL1       -0.0328
     23 N           4.4081   -1.6356   -2.3981 N.ar    1  UNL1       -0.2763
     24 N           4.1639   -1.2939   -1.1054 N.ar    1  UNL1       -0.1686
     25 H           4.0646    0.4850    1.0957 H       1  UNL1        0.1776
     26 H           4.0925    1.6344    3.1830 H       1  UNL1        0.0867
     27 H           0.8078    0.4494    4.4313 H       1  UNL1        0.0639
     28 H          -0.2897    1.3273    6.4967 H       1  UNL1        0.0619
     29 H           0.6086    3.3969    7.5652 H       1  UNL1        0.0633
     30 H           2.6041    4.4874    6.5443 H       1  UNL1        0.0830
     31 H           2.0016    0.4478   -2.9113 H       1  UNL1        0.0662
     32 H           4.2260    1.0266   -5.0425 H       1  UNL1        0.0625
     33 H           4.4274    0.8954   -7.4914 H       1  UNL1        0.0633
     34 H           3.2823   -3.1792   -4.8901 H       1  UNL1        0.0639
     35 H           5.1355   -2.3181   -2.5900 H       1  UNL1        0.1889
@<TRIPOS>BOND
     1     1     2    2
     2     2     3   am
     3     3     4    1
     4     4     5    2
     5     5     6    1
     6     6     7   ar
     7     7     8   ar
     8     8     9   ar
     9     9    10   ar
    10    10    11   ar
    11     6    11   ar
    12     2    12    1
    13    12    13   ar
    14    13    14   ar
    15    14    15    1
    16    15    16   ar
    17    16    17   ar
    18    17    18   ar
    19    18    19    1
    20    18    20   ar
    21    20    21    1
    22    20    22   ar
    23    15    22   ar
    24    14    23   ar
    25    23    24   ar
    26    12    24   ar
    27     3    25    1
    28     5    26    1
    29     7    27    1
    30     8    28    1
    31     9    29    1
    32    10    30    1
    33    13    31    1
    34    16    32    1
    35    17    33    1
    36    22    34    1
    37    23    35    1
