@<TRIPOS>MOLECULE
*****
 62 65 0 0 0
SMALL
GASTEIGER

@<TRIPOS>ATOM
      1 O           0.9800    0.0655    0.3430 O.2     1  UNL1       -0.2513
      2 C           2.1979   -0.1195    0.1745 C.2     1  UNL1        0.3167
      3 N           2.7089   -0.6796   -0.9726 N.am    1  UNL1       -0.2954
      4 C           2.1288   -1.0127   -2.2508 C.3     1  UNL1        0.0246
      5 C           1.9949   -2.5096   -2.2090 C.3     1  UNL1       -0.0345
      6 C           1.2804   -3.0497   -3.3976 C.3     1  UNL1       -0.0514
      7 C          -0.0437   -2.3357   -3.5260 C.3     1  UNL1       -0.0529
      8 C           0.1447   -0.8289   -3.6645 C.3     1  UNL1       -0.0514
      9 C           0.8689   -0.2650   -2.4811 C.3     1  UNL1       -0.0345
     10 N           3.0713    0.3350    1.1591 N.am    1  UNL1       -0.2081
     11 N           4.5347    0.4558    1.1978 N.am    1  UNL1       -0.1462
     12 C           5.3996    0.0585    0.1682 C.2     1  UNL1        0.3251
     13 O           6.6341   -0.0451    0.3226 O.2     1  UNL1       -0.2506
     14 N           4.8401   -0.2338   -1.0381 N.am    1  UNL1       -0.2949
     15 C           5.3773   -0.9146   -2.2444 C.3     1  UNL1        0.0246
     16 C           6.6702   -0.2394   -2.5066 C.3     1  UNL1       -0.0345
     17 C           7.4043   -0.8148   -3.6697 C.3     1  UNL1       -0.0514
     18 C           7.5804   -2.3184   -3.5243 C.3     1  UNL1       -0.0529
     19 C           6.2434   -3.0108   -3.3803 C.3     1  UNL1       -0.0514
     20 C           5.5256   -2.4459   -2.1652 C.3     1  UNL1       -0.0345
     21 C           5.1594    0.8687    2.4230 C.ar    1  UNL1        0.1860
     22 N           4.8150    0.5605    3.6650 N.ar    1  UNL1       -0.2232
     23 C           5.6752    1.1765    4.5935 C.ar    1  UNL1        0.0803
     24 C           5.5911    0.9543    6.0418 C.ar    1  UNL1        0.0011
     25 C           5.7702   -0.3245    6.5843 C.ar    1  UNL1       -0.0498
     26 C           5.7135   -0.5399    7.9700 C.ar    1  UNL1       -0.0258
     27 C           5.4894    0.5269    8.8244 C.ar    1  UNL1        0.1234
     28 F           5.4384    0.3228   10.1473 F       1  UNL1       -0.2055
     29 C           5.3152    1.8038    8.3155 C.ar    1  UNL1       -0.0258
     30 C           5.3619    2.0165    6.9298 C.ar    1  UNL1       -0.0498
     31 C           6.6030    2.0409    4.0455 C.ar    1  UNL1        0.0049
     32 S           6.4566    2.0343    2.3365 S.2     1  UNL1       -0.0582
     33 H           3.5936   -1.1991   -0.9662 H       1  UNL1        0.1506
     34 H           2.8128   -0.7342   -3.0741 H       1  UNL1        0.0499
     35 H           1.5328   -2.7806   -1.2592 H       1  UNL1        0.0283
     36 H           2.9465   -3.0006   -2.1780 H       1  UNL1        0.0283
     37 H           1.1487   -4.1236   -3.2523 H       1  UNL1        0.0266
     38 H           1.8933   -2.8893   -4.2930 H       1  UNL1        0.0266
     39 H          -0.6474   -2.5538   -2.6358 H       1  UNL1        0.0265
     40 H          -0.5569   -2.7118   -4.4061 H       1  UNL1        0.0265
     41 H          -0.8226   -0.3316   -3.7111 H       1  UNL1        0.0266
     42 H           0.7266   -0.6117   -4.5648 H       1  UNL1        0.0266
     43 H           0.2435   -0.4151   -1.6100 H       1  UNL1        0.0283
     44 H           1.0920    0.8022   -2.5946 H       1  UNL1        0.0283
     45 H           2.6162    0.7197    1.9938 H       1  UNL1        0.1751
     46 H           3.9547    0.2826   -1.1433 H       1  UNL1        0.1506
     47 H           4.7159   -0.7121   -3.1007 H       1  UNL1        0.0499
     48 H           7.2904   -0.3911   -1.6306 H       1  UNL1        0.0283
     49 H           6.4528    0.8250   -2.6271 H       1  UNL1        0.0283
     50 H           8.3751   -0.3207   -3.6967 H       1  UNL1        0.0266
     51 H           6.8388   -0.5897   -4.5764 H       1  UNL1        0.0266
     52 H           8.1863   -2.5405   -2.6367 H       1  UNL1        0.0265
     53 H           8.0942   -2.6976   -4.4057 H       1  UNL1        0.0265
     54 H           6.3762   -4.0937   -3.2636 H       1  UNL1        0.0266
     55 H           5.6380   -2.8460   -4.2835 H       1  UNL1        0.0266
     56 H           6.0142   -2.7328   -1.2368 H       1  UNL1        0.0283
     57 H           4.5958   -2.9781   -2.1399 H       1  UNL1        0.0283
     58 H           5.9667   -1.1682    5.9319 H       1  UNL1        0.0625
     59 H           5.8412   -1.5321    8.3892 H       1  UNL1        0.0646
     60 H           5.1400    2.6244    9.0021 H       1  UNL1        0.0646
     61 H           5.2056    3.0221    6.5538 H       1  UNL1        0.0625
     62 H           7.3400    2.6471    4.5618 H       1  UNL1        0.0716
@<TRIPOS>BOND
     1     1     2    2
     2     2     3   am
     3     3     4    1
     4     4     5    1
     5     5     6    1
     6     6     7    1
     7     7     8    1
     8     8     9    1
     9     4     9    1
    10     2    10   am
    11    10    11    1
    12    11    12   am
    13    12    13    2
    14    12    14   am
    15    14    15    1
    16    15    16    1
    17    16    17    1
    18    17    18    1
    19    18    19    1
    20    19    20    1
    21    15    20    1
    22    11    21    1
    23    21    22   ar
    24    22    23   ar
    25    23    24    1
    26    24    25   ar
    27    25    26   ar
    28    26    27   ar
    29    27    28    1
    30    27    29   ar
    31    29    30   ar
    32    24    30   ar
    33    23    31   ar
    34    31    32   ar
    35    21    32   ar
    36     3    33    1
    37     4    34    1
    38     5    35    1
    39     5    36    1
    40     6    37    1
    41     6    38    1
    42     7    39    1
    43     7    40    1
    44     8    41    1
    45     8    42    1
    46     9    43    1
    47     9    44    1
    48    10    45    1
    49    14    46    1
    50    15    47    1
    51    16    48    1
    52    16    49    1
    53    17    50    1
    54    17    51    1
    55    18    52    1
    56    18    53    1
    57    19    54    1
    58    19    55    1
    59    20    56    1
    60    20    57    1
    61    25    58    1
    62    26    59    1
    63    29    60    1
    64    30    61    1
    65    31    62    1
