REMARK  10 active torsions:
REMARK  status: ('A' for Active; 'I' for Inactive)
REMARK    1  A    between atoms: C_2  and  C_3 
REMARK    2  A    between atoms: C_3  and  N_4 
REMARK    3  A    between atoms: N_4  and  C_5 
REMARK    4  A    between atoms: N_4  and  C_20 
REMARK    5  A    between atoms: C_5  and  C_6 
REMARK    6  A    between atoms: C_6  and  C_7 
REMARK       I    between atoms: C_7  and  N_9 
REMARK    7  A    between atoms: N_9  and  C_10 
REMARK    8  A    between atoms: C_12  and  N_13 
REMARK    9  A    between atoms: C_20  and  C_21 
REMARK   10  A    between atoms: C_26  and  O_27 
ROOT
ATOM      1  C   UNL d   1       4.979   1.023  -0.887  0.00  0.00     0.244 C 
ENDROOT
BRANCH   1   2
ATOM      2  N   UNL d   1       4.369   1.285   0.478  0.00  0.00    -0.067 N 
ATOM      3  H   UNL d   1       4.723   0.536   1.097  0.00  0.00     0.280 HD
BRANCH   2   4
ATOM      4  C   UNL d   1       2.869   1.300   0.599  0.00  0.00     0.234 C 
BRANCH   4   5
ATOM      5  C   UNL d   1       2.247  -0.039   0.254  0.00  0.00     0.023 C 
ATOM      6  C   UNL d   1       0.748  -0.053   0.256  0.00  0.00     0.007 C 
ENDBRANCH   4   5
ENDBRANCH   2   4
BRANCH   2   7
ATOM      7  C   UNL d   1       4.969   2.561   1.080  0.00  0.00     0.276 C 
BRANCH   7   8
ATOM      8  C   UNL d   1       5.973   2.348   2.183  0.00  0.00     0.001 A 
ATOM      9  C   UNL d   1       6.474   3.484   2.848  0.00  0.00     0.011 A 
ATOM     10  C   UNL d   1       7.424   3.353   3.860  0.00  0.00     0.001 A 
ATOM     11  C   UNL d   1       7.887   2.090   4.220  0.00  0.00     0.003 A 
ATOM     12  C   UNL d   1       7.399   0.953   3.580  0.00  0.00     0.037 A 
ATOM     13  C   UNL d   1       6.450   1.089   2.572  0.00  0.00     0.073 A 
BRANCH  13  14
ATOM     14  O   UNL d   1       5.963  -0.037   1.954  0.00  0.00    -0.360 OA
ATOM     15  H   UNL d   1       6.429  -0.814   2.326  0.00  0.00     0.217 HD
ENDBRANCH  13  14
ENDBRANCH   7   8
ENDBRANCH   2   7
ENDBRANCH   1   2
BRANCH   1  16
ATOM     16  C   UNL d   1       4.657  -0.354  -1.453  0.00  0.00     0.131 C 
BRANCH  16  17
ATOM     17  C   UNL d   1       5.055  -0.444  -2.878  0.00  0.00     0.223 C 
ATOM     18  O   UNL d   1       5.435   0.560  -3.454  0.00  0.00    -0.273 OA
ATOM     19  N   UNL d   1       4.752  -1.673  -3.464  0.00  0.00    -0.327 N 
ATOM     20  H   UNL d   1       3.981  -2.221  -3.096  0.00  0.00     0.169 HD
BRANCH  19  21
ATOM     21  C   UNL d   1       5.167  -1.930  -4.785  0.00  0.00     0.043 A 
ATOM     22  C   UNL d   1       4.266  -2.474  -5.718  0.00  0.00     0.066 A 
ATOM     23  C   UNL d   1       4.712  -2.708  -7.032  0.00  0.00     0.105 A 
ATOM     24  C   UNL d   1       6.033  -2.429  -7.395  0.00  0.00     0.037 A 
ATOM     25  C   UNL d   1       6.919  -1.921  -6.449  0.00  0.00     0.011 A 
ATOM     26  C   UNL d   1       6.507  -1.675  -5.138  0.00  0.00    -0.035 A 
ATOM     27  C   UNL d   1       7.549  -1.238  -4.137  0.00  0.00     0.050 C 
BRANCH  23  28
ATOM     28  N   UNL d   1       3.798  -3.247  -8.051  0.00  0.00    -0.116 N 
ATOM     29  O   UNL d   1       2.627  -3.468  -7.713  0.00  0.00    -0.532 OA
ATOM     30  O   UNL d   1       4.255  -3.452  -9.184  0.00  0.00    -0.532 OA
ENDBRANCH  23  28
ENDBRANCH  19  21
ENDBRANCH  16  17
ENDBRANCH   1  16
TORSDOF 10
