REMARK  7 active torsions:
REMARK  status: ('A' for Active; 'I' for Inactive)
REMARK    1  A    between atoms: O_2  and  C_3 
REMARK    2  A    between atoms: C_3  and  C_4 
REMARK    3  A    between atoms: C_4  and  N_5 
REMARK       I    between atoms: N_5  and  C_6 
REMARK    4  A    between atoms: C_6  and  C_8 
REMARK    5  A    between atoms: C_9  and  N_10 
REMARK    6  A    between atoms: N_11  and  N_12 
REMARK    7  A    between atoms: C_13  and  C_14 
ROOT
ATOM      1  C   UNL d   1       8.102   3.801  -2.633  0.00  0.00     0.176 C 
ATOM      2  C   UNL d   1       8.374   4.465  -1.460  0.00  0.00     0.331 C 
ATOM      3  N   UNL d   1       8.414   5.758  -2.076  0.00  0.00    -0.205 N 
ATOM      4  C   UNL d   1       9.658   5.825  -2.533  0.00  0.00     0.175 C 
ATOM      5  N   UNL d   1      10.428   6.909  -2.356  0.00  0.00    -0.225 NA
ATOM      6  C   UNL d   1      11.683   6.814  -2.609  0.00  0.00     0.088 C 
ATOM      7  C   UNL d   1      12.371   8.051  -2.338  0.00  0.00     0.034 C 
ATOM      8  C   UNL d   1      13.688   8.319  -2.655  0.00  0.00     0.002 C 
ATOM      9  C   UNL d   1      14.354   7.254  -3.196  0.00  0.00     0.002 C 
ATOM     10  C   UNL d   1      13.675   5.946  -3.281  0.00  0.00     0.034 C 
ATOM     11  C   UNL d   1      12.206   5.591  -3.071  0.00  0.00     0.086 C 
ATOM     12  N   UNL d   1      11.220   4.290  -3.226  0.00  0.00    -0.246 NA
ATOM     13  C   UNL d   1       9.761   4.523  -3.060  0.00  0.00     0.107 C 
ENDROOT
BRANCH   3  14
ATOM     14  N   UNL d   1       7.536   6.558  -2.783  0.00  0.00    -0.180 NA
ATOM     15  C   UNL d   1       6.354   6.201  -2.956  0.00  0.00     0.150 C 
BRANCH  15  16
ATOM     16  C   UNL d   1       5.407   7.152  -3.560  0.00  0.00    -0.011 A 
ATOM     17  C   UNL d   1       5.674   7.806  -4.770  0.00  0.00     0.013 A 
ATOM     18  C   UNL d   1       4.899   8.915  -5.118  0.00  0.00     0.001 A 
ATOM     19  C   UNL d   1       3.822   9.289  -4.313  0.00  0.00     0.001 A 
ATOM     20  C   UNL d   1       3.506   8.556  -3.166  0.00  0.00     0.007 A 
ATOM     21  C   UNL d   1       4.336   7.520  -2.743  0.00  0.00    -0.050 A 
ATOM     22  C   UNL d   1       4.163   6.897  -1.386  0.00  0.00     0.049 C 
ENDBRANCH  15  16
ENDBRANCH   3  14
BRANCH   2  23
ATOM     23  N   UNL d   1       9.320   3.719  -0.683  0.00  0.00     0.116 N 
ATOM     24  H   UNL d   1       9.018   2.716  -0.654  0.00  0.00     0.316 HD
ATOM     25  H   UNL d   1      10.220   3.520  -1.180  0.00  0.00     0.316 HD
ENDBRANCH   2  23
BRANCH   1  26
ATOM     26  C   UNL d   1       7.040   2.562  -1.943  0.00  0.00     0.239 C 
ATOM     27  N   UNL d   1       5.462   2.591  -1.654  0.00  0.00    -0.358 N 
ATOM     28  H   UNL d   1       4.871   3.395  -1.840  0.00  0.00     0.162 HD
ATOM     29  O   UNL d   1       7.593   1.650  -1.287  0.00  0.00    -0.272 OA
BRANCH  27  30
ATOM     30  C   UNL d   1       4.639   1.440  -0.772  0.00  0.00     0.148 C 
BRANCH  30  31
ATOM     31  C   UNL d   1       2.996   1.385  -0.661  0.00  0.00     0.186 C 
BRANCH  31  32
ATOM     32  O   UNL d   1       2.483   0.166  -0.017  0.00  0.00    -0.394 OA
ATOM     33  C   UNL d   1       1.038   0.090   0.032  0.00  0.00     0.201 C 
ENDBRANCH  31  32
ENDBRANCH  30  31
ENDBRANCH  27  30
ENDBRANCH   1  26
TORSDOF 7
