@<TRIPOS>MOLECULE
*****
 67 69 0 0 0
SMALL
GASTEIGER

@<TRIPOS>ATOM
      1 C           1.0410   -0.0721    0.0538 C.3     1  UNL1       -0.0652
      2 C           2.5602   -0.0687    0.0668 C.3     1  UNL1       -0.0528
      3 C           3.1056    0.5481    1.3550 C.3     1  UNL1       -0.0189
      4 C           4.6359    0.5390    1.3635 C.3     1  UNL1        0.0896
      5 O           5.1068    1.0260    2.6227 O.3     1  UNL1       -0.4920
      6 C           6.4585    1.2277    2.7331 C.ar    1  UNL1        0.1205
      7 C           7.0099    1.0301    3.9988 C.ar    1  UNL1       -0.0192
      8 C           8.3306    1.4355    4.2684 C.ar    1  UNL1       -0.0443
      9 C           9.1399    2.0003    3.2599 C.ar    1  UNL1        0.0596
     10 C          10.5315    2.4887    3.5902 C.2     1  UNL1        0.3446
     11 O          10.8788    2.7596    4.7397 O.2     1  UNL1       -0.2445
     12 O          11.3865    2.3922    2.4924 O.3     1  UNL1       -0.4186
     13 C          12.7913    2.3383    2.7260 C.ar    1  UNL1        0.1734
     14 C          13.5675    3.3625    2.1430 C.ar    1  UNL1       -0.0150
     15 C          14.9810    3.3484    2.2230 C.ar    1  UNL1       -0.0494
     16 C          15.6369    2.3467    2.9476 C.ar    1  UNL1       -0.0018
     17 C          17.1294    2.4158    3.1817 C.2     1  UNL1        0.0529
     18 N          17.7529    1.5297    3.8999 N.2     1  UNL1       -0.1876
     19 N          19.1198    1.6439    4.1293 N.am    1  UNL1       -0.2042
     20 C          19.7388    0.6520    4.9143 C.2     1  UNL1        0.2698
     21 O          19.1107   -0.2872    5.4082 O.2     1  UNL1       -0.2703
     22 C          21.2707    0.7988    5.1380 C.3     1  UNL1        0.1668
     23 O          21.7798   -0.3489    5.8407 O.3     1  UNL1       -0.4827
     24 C          23.0782   -0.3457    6.2722 C.ar    1  UNL1        0.1214
     25 C          23.7257   -1.5868    6.3169 C.ar    1  UNL1       -0.0165
     26 C          25.0187   -1.7067    6.8529 C.ar    1  UNL1       -0.0165
     27 C          25.7068   -0.5757    7.2945 C.ar    1  UNL1        0.1203
     28 O          26.9942   -0.7790    7.7166 O.3     1  UNL1       -0.4951
     29 C          27.7449    0.3896    8.0421 C.3     1  UNL1        0.0788
     30 C          25.0515    0.6553    7.2706 C.ar    1  UNL1       -0.0165
     31 C          23.7444    0.7687    6.7705 C.ar    1  UNL1       -0.0165
     32 C          14.8567    1.3137    3.4937 C.ar    1  UNL1       -0.0076
     33 C          13.4392    1.2755    3.3752 C.ar    1  UNL1        0.1628
     34 O          12.9089    0.1454    3.9412 O.3     1  UNL1       -0.4914
     35 C          11.5359   -0.1693    3.8033 C.3     1  UNL1        0.0790
     36 C           8.6166    2.0761    1.9682 C.ar    1  UNL1       -0.0443
     37 C           7.2767    1.7239    1.7168 C.ar    1  UNL1       -0.0192
     38 H           0.6685   -0.5245   -0.8707 H       1  UNL1        0.0230
     39 H           0.6480    0.9475    0.1169 H       1  UNL1        0.0230
     40 H           0.6460   -0.6466    0.8975 H       1  UNL1        0.0230
     41 H           2.9271    0.4898   -0.8027 H       1  UNL1        0.0264
     42 H           2.9233   -1.0983   -0.0339 H       1  UNL1        0.0264
     43 H           2.7243    0.0049    2.2278 H       1  UNL1        0.0298
     44 H           2.7422    1.5791    1.4589 H       1  UNL1        0.0298
     45 H           4.9756    1.1560    0.5264 H       1  UNL1        0.0696
     46 H           4.9996   -0.4860    1.2372 H       1  UNL1        0.0696
     47 H           6.4023    0.5830    4.7857 H       1  UNL1        0.0654
     48 H           8.7148    1.3090    5.2805 H       1  UNL1        0.0627
     49 H          13.0780    4.1913    1.6339 H       1  UNL1        0.0656
     50 H          15.5475    4.1314    1.7219 H       1  UNL1        0.0625
     51 H          17.6621    3.2749    2.7335 H       1  UNL1        0.0851
     52 H          19.6304    2.4296    3.7428 H       1  UNL1        0.1773
     53 H          21.4404    1.7245    5.6967 H       1  UNL1        0.0795
     54 H          21.7716    0.8442    4.1655 H       1  UNL1        0.0795
     55 H          23.2263   -2.4734    5.9311 H       1  UNL1        0.0655
     56 H          25.4833   -2.6881    6.9291 H       1  UNL1        0.0655
     57 H          28.7742    0.0914    8.2653 H       1  UNL1        0.0660
     58 H          27.3368    0.8708    8.9369 H       1  UNL1        0.0660
     59 H          27.7836    1.0933    7.2019 H       1  UNL1        0.0660
     60 H          25.5233    1.5515    7.6578 H       1  UNL1        0.0655
     61 H          23.2668    1.7387    6.8211 H       1  UNL1        0.0655
     62 H          15.3560    0.5048    4.0274 H       1  UNL1        0.0662
     63 H          11.3449   -1.1785    4.1727 H       1  UNL1        0.0660
     64 H          11.1979   -0.1140    2.7627 H       1  UNL1        0.0660
     65 H          10.9425    0.4357    4.4807 H       1  UNL1        0.0660
     66 H           9.2207    2.4509    1.1480 H       1  UNL1        0.0627
     67 H           6.8867    1.9051    0.7219 H       1  UNL1        0.0654
@<TRIPOS>BOND
     1     1     2    1
     2     2     3    1
     3     3     4    1
     4     4     5    1
     5     5     6    1
     6     6     7   ar
     7     7     8   ar
     8     8     9   ar
     9     9    10    1
    10    10    11    2
    11    10    12    1
    12    12    13    1
    13    13    14   ar
    14    14    15   ar
    15    15    16   ar
    16    16    17    1
    17    17    18    2
    18    18    19    1
    19    19    20   am
    20    20    21    2
    21    20    22    1
    22    22    23    1
    23    23    24    1
    24    24    25   ar
    25    25    26   ar
    26    26    27   ar
    27    27    28    1
    28    28    29    1
    29    27    30   ar
    30    30    31   ar
    31    24    31   ar
    32    16    32   ar
    33    32    33   ar
    34    13    33   ar
    35    33    34    1
    36    34    35    1
    37     9    36   ar
    38    36    37   ar
    39     6    37   ar
    40     1    38    1
    41     1    39    1
    42     1    40    1
    43     2    41    1
    44     2    42    1
    45     3    43    1
    46     3    44    1
    47     4    45    1
    48     4    46    1
    49     7    47    1
    50     8    48    1
    51    14    49    1
    52    15    50    1
    53    17    51    1
    54    19    52    1
    55    22    53    1
    56    22    54    1
    57    25    55    1
    58    26    56    1
    59    29    57    1
    60    29    58    1
    61    29    59    1
    62    30    60    1
    63    31    61    1
    64    32    62    1
    65    35    63    1
    66    35    64    1
    67    35    65    1
    68    36    66    1
    69    37    67    1
