REMARK  4 active torsions:
REMARK  status: ('A' for Active; 'I' for Inactive)
REMARK    1  A    between atoms: C_6  and  N_7 
REMARK    2  A    between atoms: N_7  and  N_8 
REMARK       I    between atoms: N_8  and  C_9 
REMARK    3  A    between atoms: C_9  and  C_11 
REMARK    4  A    between atoms: C_17  and  O_18 
ROOT
ATOM      1  N   UNL d   1      -1.098   3.713   0.119  0.00  0.00    -0.187 NA
ATOM      2  C   UNL d   1      -1.823   4.904   0.084  0.00  0.00     0.247 C 
ATOM      3  O   UNL d   1      -1.420   5.855  -0.593  0.00  0.00    -0.273 OA
ATOM      4  H   UNL d   1      -0.204   3.823  -0.347  0.00  0.00     0.150 HD
ENDROOT
BRANCH   1   5
ATOM      5  N   UNL d   1      -1.773   2.518  -0.342  0.00  0.00    -0.220 NA
ATOM      6  H   UNL d   1      -2.707   2.456   0.073  0.00  0.00     0.147 HD
BRANCH   5   7
ATOM      7  C   UNL d   1      -1.078   1.297  -0.071  0.00  0.00     0.023 A 
ATOM      8  C   UNL d   1      -1.791   0.083  -0.044  0.00  0.00     0.025 A 
ATOM      9  C   UNL d   1      -1.126  -1.150   0.013  0.00  0.00     0.002 A 
ATOM     10  C   UNL d   1       0.266  -1.194   0.026  0.00  0.00     0.007 A 
ATOM     11  C   UNL d   1       0.996  -0.005   0.016  0.00  0.00    -0.060 A 
ATOM     12  C   UNL d   1       2.495  -0.009  -0.005  0.00  0.00     0.048 C 
ATOM     13  C   UNL d   1       0.319   1.224  -0.025  0.00  0.00     0.031 A 
ENDBRANCH   5   7
ENDBRANCH   1   5
BRANCH   2  14
ATOM     14  C   UNL d   1      -3.013   5.080   0.982  0.00  0.00     0.062 A 
ATOM     15  C   UNL d   1      -3.701   6.312   0.964  0.00  0.00     0.038 A 
ATOM     16  C   UNL d   1      -4.770   6.531   1.839  0.00  0.00     0.012 A 
ATOM     17 BR   UNL d   1      -5.689   8.186   1.845  0.00  0.00    -0.051 Br
ATOM     18  C   UNL d   1      -5.173   5.539   2.731  0.00  0.00     0.022 A 
ATOM     19  C   UNL d   1      -4.500   4.323   2.760  0.00  0.00     0.039 A 
ATOM     20  C   UNL d   1      -3.421   4.107   1.909  0.00  0.00     0.081 A 
BRANCH  20  21
ATOM     21  O   UNL d   1      -2.765   2.918   2.020  0.00  0.00    -0.360 OA
ATOM     22  H   UNL d   1      -3.165   2.328   2.675  0.00  0.00     0.217 HD
ENDBRANCH  20  21
ENDBRANCH   2  14
TORSDOF 4
