@<TRIPOS>MOLECULE
*****
 37 39 0 0 0
SMALL
GASTEIGER

@<TRIPOS>ATOM
      1 O           1.0277    0.0488   -0.0501 O.2     1  UNL1       -0.2687
      2 C           2.2565   -0.0344   -0.0495 C.2     1  UNL1        0.2602
      3 N           2.9616   -0.7970    0.8794 N.am    1  UNL1       -0.2301
      4 N           2.2683   -1.5362    1.8828 N.am    1  UNL1       -0.2300
      5 C           2.9917   -2.2074    2.8635 C.2     1  UNL1        0.2629
      6 O           4.2224   -2.1872    2.9187 O.2     1  UNL1       -0.2686
      7 C           2.2227   -2.9222    3.9238 C.ar    1  UNL1        0.0733
      8 C           2.5936   -2.7720    5.2714 C.ar    1  UNL1       -0.0468
      9 C           1.8511   -3.3897    6.2900 C.ar    1  UNL1       -0.0609
     10 C           0.7577   -4.1941    5.9706 C.ar    1  UNL1       -0.0590
     11 C           0.4239   -4.3990    4.6315 C.ar    1  UNL1       -0.0257
     12 C           1.1541   -3.7644    3.6194 C.ar    1  UNL1        0.1355
     13 F           0.8131   -4.0025    2.3457 F       1  UNL1       -0.2047
     14 C           3.0716    0.7286   -1.0634 C.ar    1  UNL1        0.0384
     15 C           2.6702    2.0234   -1.4709 C.ar    1  UNL1       -0.0493
     16 C           3.4408    2.7772   -2.3795 C.ar    1  UNL1       -0.0576
     17 C           4.6097    2.2251   -2.8778 C.ar    1  UNL1       -0.0441
     18 C           4.9852    0.9253   -2.5200 C.ar    1  UNL1       -0.0435
     19 C           4.2235    0.1639   -1.6335 C.ar    1  UNL1       -0.0461
     20 C           6.2471    0.5333   -3.2312 C.3     1  UNL1       -0.0271
     21 C           6.8181    1.9092   -3.6089 C.3     1  UNL1       -0.0450
     22 C           5.6044    2.8269   -3.8310 C.3     1  UNL1       -0.0271
     23 H           3.9765   -0.7788    0.9620 H       1  UNL1        0.1731
     24 H           1.2503   -1.4954    1.8577 H       1  UNL1        0.1731
     25 H           3.4537   -2.1613    5.5389 H       1  UNL1        0.0626
     26 H           2.1220   -3.2400    7.3343 H       1  UNL1        0.0618
     27 H           0.1735   -4.6642    6.7605 H       1  UNL1        0.0618
     28 H          -0.4071   -5.0493    4.3711 H       1  UNL1        0.0646
     29 H           1.7573    2.4622   -1.0700 H       1  UNL1        0.0625
     30 H           3.1331    3.7785   -2.6714 H       1  UNL1        0.0621
     31 H           4.5165   -0.8543   -1.4031 H       1  UNL1        0.0628
     32 H           6.0158   -0.0498   -4.1288 H       1  UNL1        0.0313
     33 H           6.9323   -0.0240   -2.5876 H       1  UNL1        0.0313
     34 H           7.4787    1.8647   -4.4816 H       1  UNL1        0.0272
     35 H           7.4196    2.2967   -2.7738 H       1  UNL1        0.0272
     36 H           5.2510    2.7563   -4.8654 H       1  UNL1        0.0313
     37 H           5.8469    3.8675   -3.5940 H       1  UNL1        0.0313
@<TRIPOS>BOND
     1     1     2    2
     2     2     3   am
     3     3     4    1
     4     4     5   am
     5     5     6    2
     6     5     7    1
     7     7     8   ar
     8     8     9   ar
     9     9    10   ar
    10    10    11   ar
    11    11    12   ar
    12     7    12   ar
    13    12    13    1
    14     2    14    1
    15    14    15   ar
    16    15    16   ar
    17    16    17   ar
    18    17    18   ar
    19    18    19   ar
    20    14    19   ar
    21    18    20    1
    22    20    21    1
    23    21    22    1
    24    17    22    1
    25     3    23    1
    26     4    24    1
    27     8    25    1
    28     9    26    1
    29    10    27    1
    30    11    28    1
    31    15    29    1
    32    16    30    1
    33    19    31    1
    34    20    32    1
    35    20    33    1
    36    21    34    1
    37    21    35    1
    38    22    36    1
    39    22    37    1
