REMARK  6 active torsions:
REMARK  status: ('A' for Active; 'I' for Inactive)
REMARK       I    between atoms: C_2  and  N_3 
REMARK    1  A    between atoms: C_2  and  C_7 
REMARK    2  A    between atoms: N_3  and  C_4 
REMARK    3  A    between atoms: C_4  and  C_5 
REMARK    4  A    between atoms: C_5  and  O_6 
REMARK    5  A    between atoms: C_9  and  C_10 
REMARK    6  A    between atoms: C_10  and  C_11 
ROOT
ATOM      1  C   UNL d   1       3.042   0.811   0.923  0.00  0.00     0.264 A 
ATOM      2  N   UNL d   1       2.751   1.034   2.183  0.00  0.00    -0.200 NA
ATOM      3  C   UNL d   1       3.663   1.991   2.556  0.00  0.00     0.161 A 
ATOM      4  N   UNL d   1       4.496   2.366   1.571  0.00  0.00    -0.110 NA
ATOM      5  O   UNL d   1       4.091   1.569   0.482  0.00  0.00    -0.186 OA
ENDROOT
BRANCH   3   6
ATOM      6  C   UNL d   1       3.735   2.547   3.950  0.00  0.00     0.123 C 
BRANCH   6   7
ATOM      7  C   UNL d   1       2.765   1.882   4.888  0.00  0.00    -0.023 A 
ATOM      8  C   UNL d   1       1.669   2.455   5.505  0.00  0.00     0.096 A 
ATOM      9  N   UNL d   1       0.976   1.463   6.151  0.00  0.00    -0.365 N 
ATOM     10  C   UNL d   1       1.642   0.264   6.041  0.00  0.00     0.042 A 
ATOM     11  H   UNL d   1       0.097   1.588   6.633  0.00  0.00     0.165 HD
ATOM     12  C   UNL d   1       1.326  -1.003   6.546  0.00  0.00     0.030 A 
ATOM     13  C   UNL d   1       2.779   0.500   5.270  0.00  0.00    -0.001 A 
ATOM     14  C   UNL d   1       2.213  -2.051   6.273  0.00  0.00     0.002 A 
ATOM     15  C   UNL d   1       3.355  -1.845   5.503  0.00  0.00     0.001 A 
ATOM     16  C   UNL d   1       3.641  -0.579   4.987  0.00  0.00     0.014 A 
ENDBRANCH   6   7
ENDBRANCH   3   6
BRANCH   1  17
ATOM     17  C   UNL d   1       2.307  -0.056   0.021  0.00  0.00     0.297 C 
ATOM     18  O   UNL d   1       1.072  -0.149   0.036  0.00  0.00    -0.264 OA
ATOM     19  N   UNL d   1       3.048  -0.831  -0.865  0.00  0.00    -0.352 N 
ATOM     20  H   UNL d   1       4.060  -0.826  -0.805  0.00  0.00     0.162 HD
BRANCH  19  21
ATOM     21  C   UNL d   1       2.372  -1.749  -1.771  0.00  0.00     0.149 C 
BRANCH  21  22
ATOM     22  C   UNL d   1       3.321  -2.581  -2.632  0.00  0.00     0.183 C 
BRANCH  22  23
ATOM     23  O   UNL d   1       2.606  -3.414  -3.538  0.00  0.00    -0.399 OA
ATOM     24  H   UNL d   1       2.062  -4.033  -3.021  0.00  0.00     0.209 HD
ENDBRANCH  22  23
ENDBRANCH  21  22
ENDBRANCH  19  21
ENDBRANCH   1  17
TORSDOF 6
