@<TRIPOS>MOLECULE
*****
 56 60 0 0 0
SMALL
GASTEIGER

@<TRIPOS>ATOM
      1 C           1.0314   -0.0396   -0.1303 C.3     1  UNL1        0.0788
      2 O           2.4520   -0.0732   -0.2443 O.3     1  UNL1       -0.4951
      3 C           3.0683    1.1401   -0.3829 C.ar    1  UNL1        0.1202
      4 C           4.2298    1.1620   -1.1541 C.ar    1  UNL1       -0.0182
      5 C           4.9908    2.3389   -1.2697 C.ar    1  UNL1       -0.0371
      6 C           4.5810    3.5349   -0.6593 C.ar    1  UNL1        0.0315
      7 N           5.3914    4.6955   -0.7716 N.pl3   1  UNL1       -0.3139
      8 C           5.1359    5.9834   -0.2360 C.ar    1  UNL1        0.0448
      9 C           4.7445    7.0664   -1.0923 C.ar    1  UNL1       -0.0167
     10 C           4.4882    8.4038   -0.6187 C.ar    1  UNL1        0.0587
     11 N           4.5781    9.4640   -1.4996 N.pl3   1  UNL1       -0.3372
     12 C           4.5382   10.8309   -0.9559 C.3     1  UNL1        0.0603
     13 C           4.6567   11.8768   -2.0869 C.3     1  UNL1        0.1736
     14 O           3.5782   11.7821   -3.0299 O.3     1  UNL1       -0.3530
     15 C           3.5153   10.5514   -3.7349 C.3     1  UNL1        0.0395
     16 O           4.6515   13.1751   -1.4776 O.3     1  UNL1       -0.3530
     17 C           4.8082   14.1979   -2.4494 C.3     1  UNL1        0.0395
     18 C           4.1860    8.4583    0.7654 C.ar    1  UNL1        0.1355
     19 N           3.8421    9.4341    1.6461 N.ar    1  UNL1       -0.0757
     20 O           3.9012    8.8645    2.9455 O.2     1  UNL1       -0.3534
     21 C           4.2317    7.5624    2.8125 C.ar    1  UNL1        0.1764
     22 C           4.4060    7.2996    1.5027 C.ar    1  UNL1        0.0634
     23 C           5.1111    6.1724    1.1461 C.ar    1  UNL1        0.0564
     24 C           6.2287    5.9997    2.1305 C.2     1  UNL1        0.1963
     25 O           7.3657    6.4021    1.8822 O.2     1  UNL1       -0.2865
     26 C           5.7376    5.8326    3.5323 C.ar    1  UNL1        0.0331
     27 C           6.1075    4.7166    4.2690 C.ar    1  UNL1       -0.0502
     28 C           5.1913    4.2419    5.2027 C.ar    1  UNL1       -0.0610
     29 C           3.9820    4.9225    5.4269 C.ar    1  UNL1       -0.0610
     30 C           3.6925    6.1295    4.7766 C.ar    1  UNL1       -0.0503
     31 C           4.5922    6.6183    3.8454 C.ar    1  UNL1        0.0314
     32 C           3.4179    3.4876    0.1203 C.ar    1  UNL1       -0.0371
     33 C           2.6721    2.3064    0.2626 C.ar    1  UNL1       -0.0182
     34 H           0.6870   -1.0549    0.0925 H       1  UNL1        0.0660
     35 H           0.5892    0.2686   -1.0826 H       1  UNL1        0.0660
     36 H           0.6750    0.5963    0.6848 H       1  UNL1        0.0660
     37 H           4.5511    0.2574   -1.6665 H       1  UNL1        0.0655
     38 H           5.9173    2.2997   -1.8374 H       1  UNL1        0.0637
     39 H           5.9402    4.7145   -1.6252 H       1  UNL1        0.1522
     40 H           4.6996    6.8891   -2.1682 H       1  UNL1        0.0655
     41 H           5.2626    9.3222   -2.2372 H       1  UNL1        0.1463
     42 H           5.3418   10.9963   -0.2219 H       1  UNL1        0.0511
     43 H           3.5804   10.9914   -0.4504 H       1  UNL1        0.0511
     44 H           5.6185   11.7457   -2.6023 H       1  UNL1        0.0925
     45 H           2.8086   10.6448   -4.5578 H       1  UNL1        0.0525
     46 H           3.1060    9.7566   -3.1072 H       1  UNL1        0.0525
     47 H           4.4980   10.2785   -4.1360 H       1  UNL1        0.0525
     48 H           4.7804   15.1668   -1.9453 H       1  UNL1        0.0525
     49 H           3.9927   14.1698   -3.1779 H       1  UNL1        0.0525
     50 H           5.7710   14.0893   -2.9568 H       1  UNL1        0.0525
     51 H           7.0171    4.1667    4.0455 H       1  UNL1        0.0625
     52 H           5.3748    3.2918    5.7011 H       1  UNL1        0.0618
     53 H           3.2337    4.4754    6.0777 H       1  UNL1        0.0618
     54 H           2.7102    6.5821    4.8797 H       1  UNL1        0.0625
     55 H           3.0563    4.3692    0.6385 H       1  UNL1        0.0637
     56 H           1.8051    2.3290    0.9132 H       1  UNL1        0.0655
@<TRIPOS>BOND
     1     1     2    1
     2     2     3    1
     3     3     4   ar
     4     4     5   ar
     5     5     6   ar
     6     6     7    1
     7     7     8    1
     8     8     9   ar
     9     9    10   ar
    10    10    11    1
    11    11    12    1
    12    12    13    1
    13    13    14    1
    14    14    15    1
    15    13    16    1
    16    16    17    1
    17    10    18   ar
    18    18    19   ar
    19    19    20   ar
    20    20    21   ar
    21    21    22   ar
    22    18    22   ar
    23    22    23   ar
    24     8    23   ar
    25    23    24    1
    26    24    25    2
    27    24    26    1
    28    26    27   ar
    29    27    28   ar
    30    28    29   ar
    31    29    30   ar
    32    30    31   ar
    33    26    31   ar
    34    21    31    1
    35     6    32   ar
    36    32    33   ar
    37     3    33   ar
    38     1    34    1
    39     1    35    1
    40     1    36    1
    41     4    37    1
    42     5    38    1
    43     7    39    1
    44     9    40    1
    45    11    41    1
    46    12    42    1
    47    12    43    1
    48    13    44    1
    49    15    45    1
    50    15    46    1
    51    15    47    1
    52    17    48    1
    53    17    49    1
    54    17    50    1
    55    27    51    1
    56    28    52    1
    57    29    53    1
    58    30    54    1
    59    32    55    1
    60    33    56    1
