@<TRIPOS>MOLECULE
*****
 35 36 0 0 0
SMALL
GASTEIGER

@<TRIPOS>ATOM
      1 C           0.9919   -0.0188    0.4602 C.3     1  UNL1        0.0788
      2 O           2.3733    0.0232    0.0896 O.3     1  UNL1       -0.4944
      3 C           3.0132   -1.1782   -0.0537 C.ar    1  UNL1        0.1322
      4 C           4.1875   -1.3632    0.7089 C.ar    1  UNL1       -0.0192
      5 C           4.9964   -2.5007    0.5541 C.ar    1  UNL1       -0.0583
      6 C           4.5915   -3.5185   -0.2933 C.ar    1  UNL1       -0.0608
      7 C           3.4432   -3.3332   -1.0643 C.ar    1  UNL1       -0.0461
      8 C           2.6667   -2.1425   -0.9984 C.ar    1  UNL1        0.0786
      9 C           1.5054   -2.0633   -1.9367 C.2     1  UNL1        0.2531
     10 O           1.1694   -3.1427   -2.4183 O.2     1  UNL1       -0.2697
     11 N           0.8453   -0.8358   -2.1952 N.am    1  UNL1       -0.2635
     12 C          -0.3935   -0.7080   -2.8410 C.2     1  UNL1        0.1411
     13 S          -0.7982   -1.7390   -4.1146 S.2     1  UNL1       -0.0182
     14 N          -1.2224    0.3594   -2.3858 N.am    1  UNL1       -0.2956
     15 C          -2.5545    0.5882   -2.9060 C.ar    1  UNL1        0.0502
     16 C          -2.8815    1.8398   -3.4657 C.ar    1  UNL1       -0.0392
     17 C          -4.1429    2.0543   -4.0549 C.ar    1  UNL1       -0.0599
     18 C          -5.0582    1.0098   -4.1593 C.ar    1  UNL1       -0.0604
     19 C          -4.7628   -0.2189   -3.5785 C.ar    1  UNL1       -0.0425
     20 C          -3.5418   -0.4237   -2.9164 C.ar    1  UNL1        0.0729
     21 C          -3.3574   -1.6796   -2.2532 C.1     1  UNL1        0.1010
     22 N          -3.1969   -2.7114   -1.7247 N.1     1  UNL1       -0.1908
     23 H           0.6085    0.9934    0.2826 H       1  UNL1        0.0660
     24 H           0.8423   -0.3578    1.4792 H       1  UNL1        0.0660
     25 H           0.3570   -0.6776   -0.1272 H       1  UNL1        0.0660
     26 H           4.4897   -0.6185    1.4422 H       1  UNL1        0.0654
     27 H           5.9413   -2.5952    1.0874 H       1  UNL1        0.0619
     28 H           5.1637   -4.4427   -0.3676 H       1  UNL1        0.0618
     29 H           3.1622   -4.1350   -1.7493 H       1  UNL1        0.0626
     30 H           1.2735   -0.0028   -1.8133 H       1  UNL1        0.1568
     31 H          -0.8597    1.1183   -1.8136 H       1  UNL1        0.1539
     32 H          -2.1490    2.6409   -3.5456 H       1  UNL1        0.0636
     33 H          -4.4137    3.0292   -4.4603 H       1  UNL1        0.0618
     34 H          -6.0002    1.1464   -4.6875 H       1  UNL1        0.0618
     35 H          -5.4880   -1.0286   -3.6380 H       1  UNL1        0.0631
@<TRIPOS>BOND
     1     1     2    1
     2     2     3    1
     3     3     4   ar
     4     4     5   ar
     5     5     6   ar
     6     6     7   ar
     7     7     8   ar
     8     3     8   ar
     9     8     9    1
    10     9    10    2
    11     9    11   am
    12    11    12    1
    13    12    13    2
    14    12    14    1
    15    14    15    1
    16    15    16   ar
    17    16    17   ar
    18    17    18   ar
    19    18    19   ar
    20    19    20   ar
    21    15    20   ar
    22    20    21    1
    23    21    22    3
    24     1    23    1
    25     1    24    1
    26     1    25    1
    27     4    26    1
    28     5    27    1
    29     6    28    1
    30     7    29    1
    31    11    30    1
    32    14    31    1
    33    16    32    1
    34    17    33    1
    35    18    34    1
    36    19    35    1
