REMARK  5 active torsions:
REMARK  status: ('A' for Active; 'I' for Inactive)
REMARK       I    between atoms: C_2  and  N_3 
REMARK    1  A    between atoms: C_2  and  C_16 
REMARK    2  A    between atoms: N_3  and  N_4 
REMARK    3  A    between atoms: C_5  and  C_6 
REMARK    4  A    between atoms: C_19  and  O_20 
REMARK    5  A    between atoms: C_21  and  O_22 
ROOT
ATOM      1  O   UNL d   1       0.974  -0.072   0.149  0.00  0.00    -0.266 OA
ATOM      2  C   UNL d   1       2.201  -0.025   0.034  0.00  0.00     0.271 C 
ATOM      3  N   UNL d   1       2.898  -0.168  -1.173  0.00  0.00    -0.243 N 
ATOM      4  H   UNL d   1       3.911  -0.210  -1.194  0.00  0.00     0.192 HD
ENDROOT
BRANCH   3   5
ATOM      5  N   UNL d   1       2.184  -0.329  -2.349  0.00  0.00    -0.183 NA
ATOM      6  C   UNL d   1       2.835  -0.586  -3.443  0.00  0.00     0.150 C 
BRANCH   6   7
ATOM      7  C   UNL d   1       2.127  -0.776  -4.747  0.00  0.00    -0.016 A 
ATOM      8  C   UNL d   1       1.030   0.024  -5.067  0.00  0.00     0.014 A 
ATOM      9  C   UNL d   1       0.374  -0.134  -6.296  0.00  0.00     0.013 A 
ATOM     10  C   UNL d   1       0.802  -1.089  -7.233  0.00  0.00    -0.026 A 
ATOM     11  C   UNL d   1       0.156  -1.233  -8.477  0.00  0.00     0.012 A 
ATOM     12  C   UNL d   1       1.904  -1.917  -6.915  0.00  0.00    -0.025 A 
ATOM     13  C   UNL d   1       0.580  -2.187  -9.403  0.00  0.00     0.001 A 
ATOM     14  C   UNL d   1       1.653  -3.015  -9.093  0.00  0.00     0.001 A 
ATOM     15  C   UNL d   1       2.306  -2.885  -7.860  0.00  0.00     0.012 A 
ATOM     16  C   UNL d   1       2.561  -1.744  -5.668  0.00  0.00     0.025 A 
ENDBRANCH   6   7
ENDBRANCH   3   5
BRANCH   2  17
ATOM     17  C   UNL d   1       3.003   0.182   1.284  0.00  0.00     0.036 A 
ATOM     18  C   UNL d   1       2.613  -0.452   2.484  0.00  0.00     0.020 A 
ATOM     19  C   UNL d   1       3.306  -0.222   3.689  0.00  0.00     0.040 A 
ATOM     20  C   UNL d   1       4.383   0.656   3.694  0.00  0.00     0.098 A 
ATOM     21  C   UNL d   1       4.757   1.297   2.512  0.00  0.00     0.099 A 
ATOM     22  C   UNL d   1       4.077   1.076   1.314  0.00  0.00     0.056 A 
BRANCH  20  23
ATOM     23  O   UNL d   1       5.101   0.930   4.826  0.00  0.00    -0.358 OA
ATOM     24  H   UNL d   1       4.725   0.429   5.572  0.00  0.00     0.217 HD
ENDBRANCH  20  23
BRANCH  21  25
ATOM     25  O   UNL d   1       5.810   2.170   2.504  0.00  0.00    -0.358 OA
ATOM     26  H   UNL d   1       6.147   2.182   3.422  0.00  0.00     0.217 HD
ENDBRANCH  21  25
ENDBRANCH   2  17
TORSDOF 5
