@<TRIPOS>MOLECULE
*****
 27 28 0 0 0
SMALL
GASTEIGER

@<TRIPOS>ATOM
      1 O           1.0699   -0.0362    0.2231 O.2     1  UNL1       -0.2699
      2 C           2.2939   -0.0570    0.0649 C.2     1  UNL1        0.2483
      3 N           2.9858   -0.9638   -0.7404 N.am    1  UNL1       -0.2785
      4 C           2.2665   -1.8962   -1.5387 C.ar    1  UNL1        0.0770
      5 C           2.5926   -3.2584   -1.5317 C.ar    1  UNL1       -0.0185
      6 C           1.7808   -4.1631   -2.2344 C.ar    1  UNL1        0.0430
      7 CL          2.1195   -5.8535   -2.1861 Cl      1  UNL1       -0.0835
      8 C           0.6735   -3.7233   -2.9631 C.ar    1  UNL1       -0.0398
      9 C           0.3820   -2.3635   -3.0193 C.ar    1  UNL1       -0.0170
     10 C           1.1920   -1.4624   -2.3330 C.ar    1  UNL1        0.1381
     11 O           1.0046   -0.1181   -2.5203 O.3     1  UNL1       -0.5049
     12 C           3.0912    0.8534    0.9261 C.ar    1  UNL1        0.0371
     13 C           2.6122    1.0836    2.2268 C.ar    1  UNL1       -0.0486
     14 C           3.3166    1.8970    3.1140 C.ar    1  UNL1       -0.0470
     15 C           4.4940    2.5062    2.6917 C.ar    1  UNL1        0.0179
     16 BR          5.4786    3.5674    3.9082 Br      1  UNL1       -0.0503
     17 C           4.9525    2.3315    1.3827 C.ar    1  UNL1       -0.0470
     18 C           4.2491    1.5059    0.4919 C.ar    1  UNL1       -0.0486
     19 H           3.9573   -1.1525   -0.5325 H       1  UNL1        0.1552
     20 H           3.4195   -3.6408   -0.9408 H       1  UNL1        0.0652
     21 H           0.0438   -4.4289   -3.4999 H       1  UNL1        0.0633
     22 H          -0.4592   -2.0164   -3.6097 H       1  UNL1        0.0655
     23 H           0.1039    0.0319   -2.8436 H       1  UNL1        0.2922
     24 H           1.6829    0.6178    2.5523 H       1  UNL1        0.0625
     25 H           2.9401    2.0395    4.1237 H       1  UNL1        0.0629
     26 H           5.8569    2.8371    1.0522 H       1  UNL1        0.0629
     27 H           4.5943    1.4092   -0.5338 H       1  UNL1        0.0625
@<TRIPOS>BOND
     1     1     2    2
     2     2     3   am
     3     3     4    1
     4     4     5   ar
     5     5     6   ar
     6     6     7    1
     7     6     8   ar
     8     8     9   ar
     9     9    10   ar
    10     4    10   ar
    11    10    11    1
    12     2    12    1
    13    12    13   ar
    14    13    14   ar
    15    14    15   ar
    16    15    16    1
    17    15    17   ar
    18    17    18   ar
    19    12    18   ar
    20     3    19    1
    21     5    20    1
    22     8    21    1
    23     9    22    1
    24    11    23    1
    25    13    24    1
    26    14    25    1
    27    17    26    1
    28    18    27    1
