@<TRIPOS>MOLECULE
*****
 52 55 0 0 0
SMALL
GASTEIGER

@<TRIPOS>ATOM
      1 O           1.0679   -0.0966    0.0935 O.2     1  UNL1       -0.2856
      2 C           2.2963   -0.1112    0.0874 C.2     1  UNL1        0.2049
      3 C           3.0543   -1.3920   -0.0079 C.2     1  UNL1        0.0935
      4 N           2.3985   -2.6089   -0.1061 N.pl3   1  UNL1       -0.2606
      5 N           3.0626   -3.8553   -0.0934 N.am    1  UNL1       -0.2324
      6 C           2.3619   -5.0295   -0.2416 C.2     1  UNL1        0.2603
      7 O           1.1370   -5.0932   -0.3173 O.2     1  UNL1       -0.2687
      8 C           3.2081   -6.2626   -0.3330 C.ar    1  UNL1        0.0450
      9 C           4.3207   -6.4723    0.5031 C.ar    1  UNL1       -0.0078
     10 C           5.0364   -7.6701    0.4016 C.ar    1  UNL1        0.1210
     11 O           6.1004   -7.9489    1.2119 O.3     1  UNL1       -0.5066
     12 C           4.6854   -8.6455   -0.5286 C.ar    1  UNL1        0.0213
     13 C           3.5927   -8.4215   -1.3581 C.ar    1  UNL1        0.1210
     14 O           3.2077   -9.3385   -2.2923 O.3     1  UNL1       -0.5066
     15 C           2.8470   -7.2479   -1.2597 C.ar    1  UNL1       -0.0078
     16 C           4.3825   -1.3056   -0.0021 C.2     1  UNL1       -0.0084
     17 C           5.2198   -0.0987    0.0817 C.2     1  UNL1        0.0914
     18 N           6.5176   -0.1166    0.0717 N.2     1  UNL1       -0.1288
     19 S           7.3028   -1.5491   -0.0448 S.O2    1  UNL1        0.0992
     20 O           7.0265   -2.3169    1.1575 O.2     1  UNL1       -0.1463
     21 O           7.0235   -2.1294   -1.3450 O.2     1  UNL1       -0.1463
     22 C           9.0259   -1.2022   -0.0131 C.ar    1  UNL1        0.1125
     23 C           9.9208   -2.2746    0.0712 C.ar    1  UNL1       -0.0348
     24 C          11.2728   -2.0102    0.2663 C.ar    1  UNL1       -0.0599
     25 C          11.7251   -0.6896    0.2908 C.ar    1  UNL1       -0.0616
     26 C          10.8254    0.3708    0.1656 C.ar    1  UNL1       -0.0599
     27 C           9.4667    0.1176    0.0224 C.ar    1  UNL1       -0.0348
     28 C           4.4450    1.1733    0.1740 C.2     1  UNL1       -0.0095
     29 C           3.0946    1.1531    0.1746 C.2     1  UNL1        0.0104
     30 C           2.2722    2.4123    0.2282 C.3     1  UNL1       -0.0054
     31 C           3.0587    3.6506   -0.0955 C.2     1  UNL1       -0.0832
     32 C           4.3999    3.6764   -0.0980 C.2     1  UNL1       -0.0832
     33 C           5.2315    2.4629    0.2240 C.3     1  UNL1       -0.0070
     34 H           1.3715   -2.6089   -0.0883 H       1  UNL1        0.1701
     35 H           4.0672   -3.8635   -0.2210 H       1  UNL1        0.1730
     36 H           4.6006   -5.7313    1.2455 H       1  UNL1        0.0662
     37 H           6.2323   -7.2264    1.8477 H       1  UNL1        0.2921
     38 H           5.2630   -9.5638   -0.5834 H       1  UNL1        0.0691
     39 H           3.8045  -10.1049   -2.2564 H       1  UNL1        0.2921
     40 H           1.9865   -7.1040   -1.9080 H       1  UNL1        0.0662
     41 H           4.9194   -2.2283   -0.0735 H       1  UNL1        0.0659
     42 H           9.5708   -3.3033    0.0036 H       1  UNL1        0.0637
     43 H          11.9737   -2.8279    0.4151 H       1  UNL1        0.0618
     44 H          12.7859   -0.4844    0.4079 H       1  UNL1        0.0618
     45 H          11.1800    1.3968    0.2022 H       1  UNL1        0.0618
     46 H           8.7670    0.9447   -0.0486 H       1  UNL1        0.0637
     47 H           1.8436    2.5186    1.2320 H       1  UNL1        0.0357
     48 H           1.4490    2.3475   -0.4911 H       1  UNL1        0.0357
     49 H           2.4886    4.5447   -0.3339 H       1  UNL1        0.0572
     50 H           4.9211    4.5998   -0.3382 H       1  UNL1        0.0572
     51 H           5.6629    2.5878    1.2253 H       1  UNL1        0.0356
     52 H           6.0603    2.4266   -0.4921 H       1  UNL1        0.0356
@<TRIPOS>BOND
     1     1     2    2
     2     2     3    1
     3     3     4    1
     4     4     5    1
     5     5     6   am
     6     6     7    2
     7     6     8    1
     8     8     9   ar
     9     9    10   ar
    10    10    11    1
    11    10    12   ar
    12    12    13   ar
    13    13    14    1
    14    13    15   ar
    15     8    15   ar
    16     3    16    2
    17    16    17    1
    18    17    18    2
    19    18    19    1
    20    19    20    2
    21    19    21    2
    22    19    22    1
    23    22    23   ar
    24    23    24   ar
    25    24    25   ar
    26    25    26   ar
    27    26    27   ar
    28    22    27   ar
    29    17    28    1
    30    28    29    2
    31     2    29    1
    32    29    30    1
    33    30    31    1
    34    31    32    2
    35    32    33    1
    36    28    33    1
    37     4    34    1
    38     5    35    1
    39     9    36    1
    40    11    37    1
    41    12    38    1
    42    14    39    1
    43    15    40    1
    44    16    41    1
    45    23    42    1
    46    24    43    1
    47    25    44    1
    48    26    45    1
    49    27    46    1
    50    30    47    1
    51    30    48    1
    52    31    49    1
    53    32    50    1
    54    33    51    1
    55    33    52    1
