REMARK  10 active torsions:
REMARK  status: ('A' for Active; 'I' for Inactive)
REMARK    1  A    between atoms: O_2  and  C_3 
REMARK    2  A    between atoms: C_5  and  C_6 
REMARK    3  A    between atoms: C_7  and  N_8 
REMARK    4  A    between atoms: C_7  and  C_17 
REMARK       I    between atoms: N_8  and  C_9 
REMARK    5  A    between atoms: C_9  and  C_11 
REMARK       I    between atoms: C_17  and  N_19 
REMARK    6  A    between atoms: N_19  and  C_20 
REMARK    7  A    between atoms: C_20  and  C_21 
REMARK    8  A    between atoms: C_21  and  C_22 
REMARK    9  A    between atoms: C_32  and  O_33 
REMARK   10  A    between atoms: C_35  and  O_36 
ROOT
ATOM      1  C   UNL d   1       6.393   2.422  -1.764  0.00  0.00     0.046 C 
ATOM      2  C   UNL d   1       7.228   3.536  -1.663  0.00  0.00     0.104 C 
ENDROOT
BRANCH   2   3
ATOM      3  N   UNL d   1       6.832   4.774  -1.092  0.00  0.00    -0.318 N 
ATOM      4  C   UNL d   1       6.017   4.945   0.015  0.00  0.00     0.256 C 
ATOM      5  O   UNL d   1       5.864   4.010   0.867  0.00  0.00    -0.267 OA
ATOM      6  H   UNL d   1       7.413   5.575  -1.295  0.00  0.00     0.169 HD
BRANCH   4   7
ATOM      7  C   UNL d   1       5.240   6.221   0.265  0.00  0.00     0.032 A 
ATOM      8  C   UNL d   1       4.396   6.236   1.393  0.00  0.00     0.017 A 
ATOM      9  C   UNL d   1       3.497   7.275   1.658  0.00  0.00     0.001 A 
ATOM     10  C   UNL d   1       3.511   8.405   0.868  0.00  0.00     0.000 A 
ATOM     11  C   UNL d   1       4.358   8.440  -0.241  0.00  0.00     0.001 A 
ATOM     12  C   UNL d   1       5.179   7.335  -0.582  0.00  0.00     0.017 A 
ENDBRANCH   4   7
ENDBRANCH   2   3
BRANCH   2  13
ATOM     13  C   UNL d   1       8.756   3.450  -2.283  0.00  0.00     0.268 C 
ATOM     14  O   UNL d   1       9.119   2.394  -2.804  0.00  0.00    -0.266 OA
ATOM     15  N   UNL d   1       9.643   4.582  -2.201  0.00  0.00    -0.355 N 
ATOM     16  H   UNL d   1       9.254   5.435  -1.849  0.00  0.00     0.162 HD
BRANCH  15  17
ATOM     17  C   UNL d   1      11.201   4.690  -2.676  0.00  0.00     0.127 C 
BRANCH  17  18
ATOM     18  C   UNL d   1      12.087   6.195  -2.235  0.00  0.00     0.056 C 
BRANCH  18  19
ATOM     19  C   UNL d   1      13.682   6.851  -2.703  0.00  0.00    -0.047 C 
ATOM     20  C   UNL d   1      13.448   7.274  -4.014  0.00  0.00     0.112 C 
ATOM     21  N   UNL d   1      14.630   6.773  -4.496  0.00  0.00    -0.282 NA
ATOM     22  C   UNL d   1      15.531   7.681  -4.048  0.00  0.00     0.019 A 
ATOM     23  H   UNL d   1      14.942   5.815  -4.431  0.00  0.00     0.128 HD
ATOM     24  C   UNL d   1      16.530   8.239  -4.895  0.00  0.00     0.024 A 
ATOM     25  C   UNL d   1      15.110   7.917  -2.754  0.00  0.00    -0.011 A 
ATOM     26  C   UNL d   1      17.355   9.270  -4.543  0.00  0.00     0.002 A 
ATOM     27  C   UNL d   1      17.111   9.727  -3.291  0.00  0.00     0.001 A 
ATOM     28  C   UNL d   1      16.032   9.089  -2.337  0.00  0.00     0.013 A 
ENDBRANCH  18  19
ENDBRANCH  17  18
ENDBRANCH  15  17
ENDBRANCH   2  13
BRANCH   1  29
ATOM     29  C   UNL d   1       4.909   2.170  -1.357  0.00  0.00    -0.028 C 
ATOM     30  C   UNL d   1       4.254   0.926  -1.147  0.00  0.00     0.051 C 
ATOM     31  C   UNL d   1       3.033   0.827  -0.383  0.00  0.00     0.105 C 
ATOM     32  C   UNL d   1       2.537   1.982   0.237  0.00  0.00     0.135 C 
ATOM     33  C   UNL d   1       3.042   3.215  -0.164  0.00  0.00     0.105 C 
ATOM     34  C   UNL d   1       4.083   3.263  -1.112  0.00  0.00     0.051 C 
BRANCH  31  35
ATOM     35  O   UNL d   1       2.553  -0.449  -0.167  0.00  0.00    -0.353 OA
ATOM     36  C   UNL d   1       1.172  -0.687  -0.464  0.00  0.00     0.210 C 
ENDBRANCH  31  35
BRANCH  32  37
ATOM     37  O   UNL d   1       1.699   2.101   1.292  0.00  0.00    -0.351 OA
ATOM     38  C   UNL d   1       0.576   1.310   1.453  0.00  0.00     0.210 C 
ENDBRANCH  32  37
BRANCH  33  39
ATOM     39  O   UNL d   1       2.618   4.432   0.342  0.00  0.00    -0.353 OA
ATOM     40  C   UNL d   1       1.797   4.472   1.528  0.00  0.00     0.210 C 
ENDBRANCH  33  39
ENDBRANCH   1  29
TORSDOF 10
