@<TRIPOS>MOLECULE
*****
 78 81 0 0 0
SMALL
GASTEIGER

@<TRIPOS>ATOM
      1 C           1.1196    0.3127   -0.3656 C.3     1  UNL1       -0.0494
      2 C           2.5867    0.1260    0.0002 C.3     1  UNL1        0.0094
      3 N           2.9597   -0.5596    1.2712 N.pl3   1  UNL1       -0.3301
      4 C           2.0632   -1.1618    2.2881 C.3     1  UNL1        0.0136
      5 C           0.5810   -0.9939    2.0113 C.3     1  UNL1       -0.0216
      6 C          -0.4403   -1.5277    2.9742 C.3     1  UNL1        0.0130
      7 N          -1.7929   -1.2528    2.4731 N.am    1  UNL1       -0.3152
      8 C          -2.8698   -1.6671    3.2223 C.2     1  UNL1        0.2135
      9 O          -2.7234   -2.2513    4.2842 O.2     1  UNL1       -0.2758
     10 C          -4.2418   -1.3557    2.6541 C.3     1  UNL1        0.0322
     11 C          -5.3319   -1.8849    3.6026 C.3     1  UNL1        0.0325
     12 C          -6.7168   -1.6065    3.0449 C.2     1  UNL1        0.2177
     13 O          -6.8779   -1.0170    1.9842 O.2     1  UNL1       -0.2755
     14 N          -7.7683   -2.0341    3.8508 N.am    1  UNL1       -0.2855
     15 C          -9.1179   -1.8717    3.4646 C.ar    1  UNL1        0.0344
     16 C          -9.5433   -2.1894    2.1749 C.ar    1  UNL1       -0.0342
     17 C         -10.9057   -2.1975    1.8574 C.ar    1  UNL1        0.0121
     18 C         -11.8269   -1.6128    2.7309 C.ar    1  UNL1        0.2151
     19 N         -13.1027   -1.4069    2.3502 N.ar    1  UNL1       -0.1914
     20 C         -14.0047   -0.7040    3.0534 C.ar    1  UNL1        0.2726
     21 N         -15.2092   -0.4560    2.4519 N.pl3   1  UNL1       -0.2736
     22 C         -15.7981    0.9035    2.4198 C.3     1  UNL1        0.0408
     23 C         -17.0806    1.0078    3.2604 C.3     1  UNL1        0.0636
     24 O         -18.0125   -0.0206    2.9054 O.3     1  UNL1       -0.3767
     25 C         -17.4470   -1.3150    3.1436 C.3     1  UNL1        0.0636
     26 C         -16.1981   -1.5393    2.2707 C.3     1  UNL1        0.0408
     27 C         -13.6074   -0.1921    4.2878 C.ar    1  UNL1        0.0299
     28 C         -12.3156   -0.4350    4.7817 C.ar    1  UNL1       -0.0294
     29 C         -11.9066    0.1477    6.1089 C.3     1  UNL1       -0.0387
     30 C         -11.3961   -1.1604    3.9967 C.ar    1  UNL1        0.0511
     31 C         -10.0569   -1.4165    4.3897 C.ar    1  UNL1       -0.0268
     32 C           4.3533   -0.7229    1.4798 C.ar    1  UNL1        0.0299
     33 C           5.2498    0.3436    1.2878 C.ar    1  UNL1       -0.0406
     34 C           6.6350    0.1918    1.4473 C.ar    1  UNL1       -0.0598
     35 C           7.1767   -1.0649    1.6818 C.ar    1  UNL1       -0.0587
     36 C           6.3280   -2.1541    1.8734 C.ar    1  UNL1       -0.0487
     37 C           6.9069   -3.5317    2.0348 C.3     1  UNL1       -0.0397
     38 C           4.9281   -1.9540    1.8562 C.ar    1  UNL1       -0.0377
     39 H           0.9752    0.8346   -1.3133 H       1  UNL1        0.0245
     40 H           0.6063    0.9425    0.3638 H       1  UNL1        0.0245
     41 H           0.6173   -0.6453   -0.5102 H       1  UNL1        0.0245
     42 H           3.0091    1.1362   -0.0039 H       1  UNL1        0.0461
     43 H           3.0422   -0.4221   -0.8343 H       1  UNL1        0.0461
     44 H           2.2913   -0.6973    3.2558 H       1  UNL1        0.0464
     45 H           2.2605   -2.2343    2.3847 H       1  UNL1        0.0464
     46 H           0.3610   -1.5219    1.0844 H       1  UNL1        0.0295
     47 H           0.3685    0.0729    1.9687 H       1  UNL1        0.0295
     48 H          -0.3370   -1.0439    3.9483 H       1  UNL1        0.0462
     49 H          -0.3360   -2.6100    3.0831 H       1  UNL1        0.0462
     50 H          -1.9260   -0.7650    1.5915 H       1  UNL1        0.1487
     51 H          -4.3429   -1.8218    1.6664 H       1  UNL1        0.0363
     52 H          -4.3471   -0.2713    2.5264 H       1  UNL1        0.0363
     53 H          -5.2322   -1.4106    4.5870 H       1  UNL1        0.0363
     54 H          -5.2152   -2.9673    3.7387 H       1  UNL1        0.0363
     55 H          -7.5687   -2.2629    4.8191 H       1  UNL1        0.1548
     56 H          -8.8185   -2.4746    1.4139 H       1  UNL1        0.0638
     57 H         -11.2077   -2.6330    0.9087 H       1  UNL1        0.0684
     58 H         -13.4032   -1.6989    1.4258 H       1  UNL1        0.4548
     59 H         -16.0609    1.0970    1.3723 H       1  UNL1        0.0488
     60 H         -15.0808    1.6753    2.7189 H       1  UNL1        0.0488
     61 H         -17.5666    1.9727    3.0785 H       1  UNL1        0.0575
     62 H         -16.8661    0.9397    4.3326 H       1  UNL1        0.0575
     63 H         -18.2119   -2.0598    2.9003 H       1  UNL1        0.0575
     64 H         -17.2134   -1.4091    4.2102 H       1  UNL1        0.0575
     65 H         -16.4999   -1.5185    1.2168 H       1  UNL1        0.0488
     66 H         -15.7684   -2.5253    2.4773 H       1  UNL1        0.0488
     67 H         -14.3056    0.3974    4.8772 H       1  UNL1        0.0701
     68 H         -12.7298    0.6897    6.5818 H       1  UNL1        0.0278
     69 H         -11.0770    0.8515    5.9746 H       1  UNL1        0.0278
     70 H         -11.5990   -0.6551    6.7858 H       1  UNL1        0.0278
     71 H          -9.7201   -1.1518    5.3902 H       1  UNL1        0.0644
     72 H           4.8821    1.3342    1.0401 H       1  UNL1        0.0636
     73 H           7.2924    1.0537    1.3679 H       1  UNL1        0.0618
     74 H           8.2574   -1.1899    1.7051 H       1  UNL1        0.0620
     75 H           8.0004   -3.5192    1.9508 H       1  UNL1        0.0278
     76 H           6.5345   -4.1854    1.2382 H       1  UNL1        0.0278
     77 H           6.6473   -3.9552    3.0081 H       1  UNL1        0.0278
     78 H           4.2974   -2.8078    2.0823 H       1  UNL1        0.0639
@<TRIPOS>UNITY_ATOM_ATTR
19 1
charge 1
@<TRIPOS>BOND
     1     1     2    1
     2     2     3    1
     3     3     4    1
     4     4     5    1
     5     5     6    1
     6     6     7    1
     7     7     8   am
     8     8     9    2
     9     8    10    1
    10    10    11    1
    11    11    12    1
    12    12    13    2
    13    12    14   am
    14    14    15    1
    15    15    16   ar
    16    16    17   ar
    17    17    18   ar
    18    18    19   ar
    19    19    20   ar
    20    20    21    1
    21    21    22    1
    22    22    23    1
    23    23    24    1
    24    24    25    1
    25    25    26    1
    26    21    26    1
    27    20    27   ar
    28    27    28   ar
    29    28    29    1
    30    28    30   ar
    31    18    30   ar
    32    30    31   ar
    33    15    31   ar
    34     3    32    1
    35    32    33   ar
    36    33    34   ar
    37    34    35   ar
    38    35    36   ar
    39    36    37    1
    40    36    38   ar
    41    32    38   ar
    42     1    39    1
    43     1    40    1
    44     1    41    1
    45     2    42    1
    46     2    43    1
    47     4    44    1
    48     4    45    1
    49     5    46    1
    50     5    47    1
    51     6    48    1
    52     6    49    1
    53     7    50    1
    54    10    51    1
    55    10    52    1
    56    11    53    1
    57    11    54    1
    58    14    55    1
    59    16    56    1
    60    17    57    1
    61    19    58    1
    62    22    59    1
    63    22    60    1
    64    23    61    1
    65    23    62    1
    66    25    63    1
    67    25    64    1
    68    26    65    1
    69    26    66    1
    70    27    67    1
    71    29    68    1
    72    29    69    1
    73    29    70    1
    74    31    71    1
    75    33    72    1
    76    34    73    1
    77    35    74    1
    78    37    75    1
    79    37    76    1
    80    37    77    1
    81    38    78    1
