@<TRIPOS>MOLECULE
*****
 67 70 0 0 0
SMALL
GASTEIGER

@<TRIPOS>ATOM
      1 C           1.0986   -0.3732    0.0047 C.3     1  UNL1       -0.0245
      2 C           2.5988   -0.1605   -0.0246 C.3     1  UNL1       -0.0344
      3 N           2.9762    0.9696   -0.9645 N.4     1  UNL1        0.2393
      4 C           2.3354    2.2631   -0.5977 C.3     1  UNL1       -0.0344
      5 C           0.8672    2.5062   -0.7485 C.3     1  UNL1       -0.0245
      6 C           4.5279    1.1148   -1.0287 C.3     1  UNL1        0.0139
      7 C           5.0163    2.1933   -1.9284 C.ar    1  UNL1        0.1234
      8 C           4.9624    3.6019   -1.8361 C.ar    1  UNL1        0.1773
      9 C           4.3345    4.5958   -0.8346 C.2     1  UNL1        0.2854
     10 O           4.0176    5.7117   -1.2016 O.2     1  UNL1       -0.2666
     11 N           4.0156    4.1335    0.4856 N.am    1  UNL1       -0.2016
     12 N           3.1334    4.8508    1.3385 N.2     1  UNL1       -0.1874
     13 C           2.7385    4.2826    2.4520 C.2     1  UNL1        0.0528
     14 C           1.9299    4.9549    3.5292 C.ar    1  UNL1       -0.0052
     15 C           2.0887    4.5814    4.8772 C.ar    1  UNL1       -0.0496
     16 C           1.2708    5.1466    5.8767 C.ar    1  UNL1       -0.0193
     17 C           0.3360    6.1359    5.5521 C.ar    1  UNL1        0.1210
     18 O          -0.3154    6.7174    6.6003 O.3     1  UNL1       -0.4874
     19 C          -1.2768    7.7524    6.3267 C.3     1  UNL1        0.1149
     20 C          -1.8432    8.2545    7.6406 C.ar    1  UNL1       -0.0075
     21 C          -1.8515    9.6341    7.9146 C.ar    1  UNL1       -0.0551
     22 C          -2.1826   10.1024    9.1870 C.ar    1  UNL1       -0.0614
     23 C          -2.6056    9.2116   10.1682 C.ar    1  UNL1       -0.0615
     24 C          -2.6925    7.8509    9.8809 C.ar    1  UNL1       -0.0585
     25 C          -2.3302    7.3613    8.6182 C.ar    1  UNL1       -0.0441
     26 C          -2.4849    5.8949    8.3258 C.3     1  UNL1       -0.0393
     27 C           0.1675    6.4871    4.2165 C.ar    1  UNL1       -0.0193
     28 C           0.9642    5.9097    3.2126 C.ar    1  UNL1       -0.0496
     29 N           5.4406    4.0800   -3.0399 N.ar    1  UNL1       -0.1239
     30 N           5.9615    3.0873   -3.7494 N.ar    1  UNL1       -0.0581
     31 N           5.7576    1.9137   -3.1121 N.ar    1  UNL1       -0.1868
     32 C           6.0870    0.6484   -3.7117 C.ar    1  UNL1        0.2404
     33 N           7.2844    0.4201   -4.2582 N.ar    1  UNL1       -0.0272
     34 O           7.2206   -0.9217   -4.6769 O.2     1  UNL1       -0.2388
     35 N           5.9618   -1.4703   -4.4158 N.ar    1  UNL1       -0.0319
     36 C           5.2745   -0.4920   -3.8347 C.ar    1  UNL1        0.2064
     37 N           3.9643   -0.5598   -3.4744 N.pl3   1  UNL1       -0.3375
     38 H           0.8341   -1.2933    0.5242 H       1  UNL1        0.0281
     39 H           0.6704   -0.3831   -1.0036 H       1  UNL1        0.0281
     40 H           0.6093    0.3950    0.5993 H       1  UNL1        0.0281
     41 H           3.1003   -1.0610   -0.3884 H       1  UNL1        0.0812
     42 H           2.9813    0.1051    0.9667 H       1  UNL1        0.0812
     43 H           2.6568    0.6981   -1.8996 H       1  UNL1        0.2037
     44 H           2.7418    2.9767   -1.2956 H       1  UNL1        0.0812
     45 H           2.6006    2.3974    0.4437 H       1  UNL1        0.0812
     46 H           0.4878    2.1389   -1.6995 H       1  UNL1        0.0281
     47 H           0.7082    3.5903   -0.6850 H       1  UNL1        0.0281
     48 H           0.2995    2.1293    0.0949 H       1  UNL1        0.0281
     49 H           4.9317    0.1306   -1.2844 H       1  UNL1        0.0883
     50 H           4.8775    1.3100   -0.0091 H       1  UNL1        0.0883
     51 H           4.3859    3.2717    0.8462 H       1  UNL1        0.1776
     52 H           2.9639    3.2227    2.6727 H       1  UNL1        0.0851
     53 H           2.8682    3.8886    5.1877 H       1  UNL1        0.0625
     54 H           1.3712    4.8254    6.9156 H       1  UNL1        0.0654
     55 H          -2.0969    7.3678    5.7091 H       1  UNL1        0.0748
     56 H          -0.7729    8.5781    5.8099 H       1  UNL1        0.0748
     57 H          -1.5763   10.3566    7.1486 H       1  UNL1        0.0621
     58 H          -2.0857   11.1595    9.4224 H       1  UNL1        0.0618
     59 H          -2.8778    9.5759   11.1553 H       1  UNL1        0.0618
     60 H          -3.0261    7.1669   10.6578 H       1  UNL1        0.0620
     61 H          -2.8847    5.3515    9.1854 H       1  UNL1        0.0278
     62 H          -1.5261    5.4316    8.0863 H       1  UNL1        0.0278
     63 H          -3.1770    5.7607    7.4873 H       1  UNL1        0.0278
     64 H          -0.5782    7.2194    3.9253 H       1  UNL1        0.0654
     65 H           0.8126    6.2234    2.1853 H       1  UNL1        0.0625
     66 H           3.4874   -1.3661   -3.8910 H       1  UNL1        0.1439
     67 H           3.4360    0.2795   -3.6889 H       1  UNL1        0.1439
@<TRIPOS>UNITY_ATOM_ATTR
3 1
charge 1
@<TRIPOS>BOND
     1     1     2    1
     2     2     3    1
     3     3     4    1
     4     4     5    1
     5     3     6    1
     6     6     7    1
     7     7     8   ar
     8     8     9    1
     9     9    10    2
    10     9    11   am
    11    11    12    1
    12    12    13    2
    13    13    14    1
    14    14    15   ar
    15    15    16   ar
    16    16    17   ar
    17    17    18    1
    18    18    19    1
    19    19    20    1
    20    20    21   ar
    21    21    22   ar
    22    22    23   ar
    23    23    24   ar
    24    24    25   ar
    25    20    25   ar
    26    25    26    1
    27    17    27   ar
    28    27    28   ar
    29    14    28   ar
    30     8    29   ar
    31    29    30   ar
    32    30    31   ar
    33     7    31   ar
    34    31    32    1
    35    32    33   ar
    36    33    34   ar
    37    34    35   ar
    38    35    36   ar
    39    32    36   ar
    40    36    37    1
    41     1    38    1
    42     1    39    1
    43     1    40    1
    44     2    41    1
    45     2    42    1
    46     3    43    1
    47     4    44    1
    48     4    45    1
    49     5    46    1
    50     5    47    1
    51     5    48    1
    52     6    49    1
    53     6    50    1
    54    11    51    1
    55    13    52    1
    56    15    53    1
    57    16    54    1
    58    19    55    1
    59    19    56    1
    60    21    57    1
    61    22    58    1
    62    23    59    1
    63    24    60    1
    64    26    61    1
    65    26    62    1
    66    26    63    1
    67    27    64    1
    68    28    65    1
    69    37    66    1
    70    37    67    1
