@<TRIPOS>MOLECULE
*****
 48 49 0 0 0
SMALL
GASTEIGER

@<TRIPOS>ATOM
      1 C           1.6282   -4.0774    4.4779 C.3     1  UNL1       -0.0556
      2 C           2.4792   -2.9418    3.9062 C.3     1  UNL1        0.0167
      3 C           2.0785   -1.6242    4.5830 C.3     1  UNL1       -0.0556
      4 C           3.9309   -3.2407    4.0924 C.ar    1  UNL1        0.1743
      5 N           4.5544   -4.2704    3.5003 N.ar    1  UNL1       -0.0610
      6 O           5.8348   -4.2389    4.0702 O.2     1  UNL1       -0.3380
      7 C           5.8418   -3.1809    4.9313 C.ar    1  UNL1        0.2274
      8 C           7.0773   -2.9216    5.7063 C.3     1  UNL1        0.0280
      9 C           6.9005   -1.6876    6.5959 C.3     1  UNL1       -0.0289
     10 C           8.1556   -1.3921    7.4100 C.3     1  UNL1        0.0135
     11 N           7.9771   -0.2097    8.2296 N.am    1  UNL1       -0.2994
     12 C           8.9648    0.2533    9.0451 C.2     1  UNL1        0.3002
     13 O          10.0337   -0.3165    9.1884 O.2     1  UNL1       -0.2528
     14 N           8.7412    1.4337    9.6842 N.am    1  UNL1       -0.2904
     15 CA          7.5933    2.3348    9.7341 C.3     1  UNL1        0.0728
     16 C           6.6331    2.3423    8.5176 C.3     1  UNL1        0.0667
     17 O           5.3937    2.9674    8.8949 O.3     1  UNL1       -0.3928
     18 C           7.9957    3.8138   10.0174 C.ar    1  UNL1       -0.0250
     19 C           8.6752    4.1877   11.1809 C.ar    1  UNL1       -0.0567
     20 C           8.7885    5.5475   11.5201 C.ar    1  UNL1       -0.0614
     21 C           8.2680    6.5512   10.6977 C.ar    1  UNL1       -0.0617
     22 C           7.6132    6.2091    9.5347 C.ar    1  UNL1       -0.0614
     23 C           7.5133    4.8697    9.1946 C.ar    1  UNL1       -0.0567
     24 N           4.7031   -2.5337    4.9711 N.ar    1  UNL1       -0.1958
     25 H           0.5610   -3.8769    4.3421 H       1  UNL1        0.0236
     26 H           1.8186   -4.2061    5.5501 H       1  UNL1        0.0236
     27 H           1.8586   -5.0285    3.9857 H       1  UNL1        0.0236
     28 H           2.2717   -2.8484    2.8325 H       1  UNL1        0.0375
     29 H           2.2694   -1.6593    5.6629 H       1  UNL1        0.0236
     30 H           1.0137   -1.4143    4.4405 H       1  UNL1        0.0236
     31 H           2.6477   -0.7813    4.1750 H       1  UNL1        0.0236
     32 H           7.9155   -2.7694    5.0180 H       1  UNL1        0.0361
     33 H           7.3074   -3.7959    6.3261 H       1  UNL1        0.0361
     34 H           6.0472   -1.8385    7.2733 H       1  UNL1        0.0285
     35 H           6.6403   -0.8161    5.9787 H       1  UNL1        0.0285
     36 H           9.0092   -1.2132    6.7488 H       1  UNL1        0.0462
     37 H           8.3927   -2.2324    8.0697 H       1  UNL1        0.0462
     38 H           7.0446   -0.0980    8.5828 H       1  UNL1        0.1502
     39 H           9.4715    1.6041   10.3656 H       1  UNL1        0.1509
     40 HA          7.0117    2.0111   10.6108 H       1  UNL1        0.0571
     41 H1          7.1077    2.8473    7.6658 H       1  UNL1        0.0579
     42 H2          6.3059    1.4017    8.1018 H       1  UNL1        0.0579
     43 H           5.5572    3.5035    9.6961 H       1  UNL1        0.2095
     44 H           9.0865    3.4443   11.8596 H       1  UNL1        0.0621
     45 H           9.2548    5.8351   12.4584 H       1  UNL1        0.0618
     46 H           8.3606    7.5996   10.9617 H       1  UNL1        0.0618
     47 H           7.1387    6.9535    8.8996 H       1  UNL1        0.0618
     48 H           6.9514    4.6987    8.2794 H       1  UNL1        0.0621
@<TRIPOS>BOND
     1     1     2    1
     2     2     3    1
     3     2     4    1
     4     4     5   ar
     5     5     6   ar
     6     6     7   ar
     7     7     8    1
     8     8     9    1
     9     9    10    1
    10    10    11    1
    11    11    12   am
    12    12    13    2
    13    12    14   am
    14    16    17    1
    15    15    18    1
    16    18    19   ar
    17    19    20   ar
    18    20    21   ar
    19    21    22   ar
    20    22    23   ar
    21    18    23   ar
    22     7    24   ar
    23     4    24   ar
    24    15    16    1
    25    15    14    1
    26     1    25    1
    27     1    26    1
    28     1    27    1
    29     2    28    1
    30     3    29    1
    31     3    30    1
    32     3    31    1
    33     8    32    1
    34     8    33    1
    35     9    34    1
    36     9    35    1
    37    10    36    1
    38    10    37    1
    39    11    38    1
    40    14    39    1
    41    15    40    1
    42    16    41    1
    43    16    42    1
    44    17    43    1
    45    19    44    1
    46    20    45    1
    47    21    46    1
    48    22    47    1
    49    23    48    1
