@<TRIPOS>MOLECULE
*****
 74 77 0 0 0
SMALL
GASTEIGER

@<TRIPOS>ATOM
      1 C           2.7282   -3.3055    1.8250 C.3     1  UNL1       -0.0643
      2 C           2.4540   -2.4836    0.5514 C.3     1  UNL1       -0.0407
      3 C           3.2067   -1.1583    0.7172 C.3     1  UNL1        0.0605
      4 C           2.7300    0.0625   -0.2127 C.2     1  UNL1        0.2242
      5 O           1.8901   -0.1770   -1.0925 O.2     1  UNL1       -0.2749
      6 N           3.2001    1.4269   -0.0331 N.am    1  UNL1       -0.2778
      7 C           3.8083    1.9160    1.2461 C.3     1  UNL1        0.0737
      8 C           4.0973    3.2607    1.7207 C.ar    1  UNL1        0.1225
      9 C           3.5398    4.4720    1.4821 C.ar    1  UNL1       -0.0189
     10 C           4.4858    5.4242    1.8626 C.ar    1  UNL1       -0.0207
     11 C           5.5158    4.7536    2.4723 C.ar    1  UNL1        0.1023
     12 C           6.7327    5.2586    3.1246 C.3     1  UNL1       -0.0064
     13 O           5.2987    3.4129    2.3971 O.2     1  UNL1       -0.4633
     14 C           2.9488    2.4048   -1.1820 C.3     1  UNL1        0.1346
     15 C           1.4931    2.9246   -0.8863 C.2     1  UNL1        0.2386
     16 O           1.2481    4.0755   -0.5921 O.2     1  UNL1       -0.2734
     17 N           0.4564    1.9914   -0.8985 N.am    1  UNL1       -0.3106
     18 C          -0.9178    2.4008   -0.6183 C.3     1  UNL1        0.0232
     19 C          -1.0183    3.1547    0.7257 C.3     1  UNL1       -0.0345
     20 C          -2.3467    3.8490    0.9521 C.3     1  UNL1       -0.0514
     21 C          -2.7354    4.6971   -0.2542 C.3     1  UNL1       -0.0529
     22 C          -2.8080    3.8471   -1.5159 C.3     1  UNL1       -0.0514
     23 C          -1.4691    3.1902   -1.8126 C.3     1  UNL1       -0.0345
     24 C           4.0294    3.5413   -1.3925 C.ar    1  UNL1        0.0648
     25 C           5.3897    3.3910   -1.0537 C.ar    1  UNL1        0.1292
     26 O           5.9879    2.1736   -0.9058 O.3     1  UNL1       -0.5062
     27 C           6.2260    4.4824   -0.7548 C.ar    1  UNL1        0.0219
     28 C           5.7804    5.7710   -0.9835 C.ar    1  UNL1        0.1238
     29 O           6.5170    6.8598   -0.6187 O.3     1  UNL1       -0.5065
     30 C           4.5326    5.9632   -1.5515 C.ar    1  UNL1        0.0219
     31 C           3.6918    4.8557   -1.7859 C.ar    1  UNL1        0.1292
     32 O           2.5079    5.0993   -2.4249 O.3     1  UNL1       -0.5062
     33 C           4.7283   -1.4830    0.6777 C.ar    1  UNL1       -0.0355
     34 C           5.4899   -2.6272    0.5876 C.ar    1  UNL1       -0.0578
     35 C           6.8786   -2.5675    0.9045 C.ar    1  UNL1       -0.0615
     36 C           7.5617   -1.3543    1.1068 C.ar    1  UNL1       -0.0617
     37 C           6.8346   -0.2172    1.1584 C.ar    1  UNL1       -0.0615
     38 C           5.4912   -0.4192    1.0284 C.ar    1  UNL1       -0.0578
     39 H           2.5041   -4.3623    1.6917 H       1  UNL1        0.0230
     40 H           2.1696   -2.8827    2.6639 H       1  UNL1        0.0230
     41 H           3.7679   -3.2561    2.1628 H       1  UNL1        0.0230
     42 H           1.3702   -2.3570    0.4346 H       1  UNL1        0.0273
     43 H           2.8008   -2.9904   -0.3590 H       1  UNL1        0.0273
     44 H           2.9124   -0.8127    1.7240 H       1  UNL1        0.0443
     45 H           4.8543    1.8239    0.9551 H       1  UNL1        0.0545
     46 H           3.5439    1.2778    2.0969 H       1  UNL1        0.0545
     47 H           2.6636    4.6113    0.8930 H       1  UNL1        0.0652
     48 H           4.4553    6.4741    1.6367 H       1  UNL1        0.0652
     49 H           6.6993    6.3534    3.0835 H       1  UNL1        0.0308
     50 H           7.6615    4.9378    2.6437 H       1  UNL1        0.0308
     51 H           6.7376    4.9598    4.1746 H       1  UNL1        0.0308
     52 H           2.9141    1.8294   -2.1158 H       1  UNL1        0.0650
     53 H           0.6469    1.0270   -1.1718 H       1  UNL1        0.1490
     54 H          -1.5076    1.4771   -0.5239 H       1  UNL1        0.0498
     55 H          -0.2870    3.9586    0.8053 H       1  UNL1        0.0283
     56 H          -0.7708    2.4781    1.5519 H       1  UNL1        0.0283
     57 H          -2.2525    4.4965    1.8325 H       1  UNL1        0.0266
     58 H          -3.1202    3.1070    1.1681 H       1  UNL1        0.0266
     59 H          -2.0025    5.5031   -0.3983 H       1  UNL1        0.0265
     60 H          -3.7027    5.1733   -0.0686 H       1  UNL1        0.0265
     61 H          -3.0997    4.4707   -2.3681 H       1  UNL1        0.0266
     62 H          -3.5783    3.0770   -1.3964 H       1  UNL1        0.0266
     63 H          -0.7573    3.9679   -2.1138 H       1  UNL1        0.0283
     64 H          -1.5659    2.5257   -2.6814 H       1  UNL1        0.0283
     65 H           5.3074    1.4916   -1.0236 H       1  UNL1        0.2922
     66 H           7.1584    4.2997   -0.2250 H       1  UNL1        0.0691
     67 H           7.3462    6.5496   -0.2147 H       1  UNL1        0.2921
     68 H           4.1951    6.9761   -1.7493 H       1  UNL1        0.0691
     69 H           2.2093    5.9930   -2.1749 H       1  UNL1        0.2922
     70 H           5.0454   -3.5941    0.3753 H       1  UNL1        0.0620
     71 H           7.4342   -3.4877    1.0328 H       1  UNL1        0.0618
     72 H           8.6304   -1.2832    1.2506 H       1  UNL1        0.0618
     73 H           7.1989    0.7893    1.3429 H       1  UNL1        0.0618
     74 H           4.8608    0.3055    1.3559 H       1  UNL1        0.0620
@<TRIPOS>BOND
     1     1     2    1
     2     4     5    2
     3     4     6   am
     4     6     7    1
     5     7     8    1
     6     8     9   ar
     7     9    10   ar
     8    10    11   ar
     9    11    12    1
    10    11    13   ar
    11     8    13   ar
    12     6    14    1
    13    14    15    1
    14    15    16    2
    15    15    17   am
    16    17    18    1
    17    18    19    1
    18    19    20    1
    19    20    21    1
    20    21    22    1
    21    22    23    1
    22    18    23    1
    23    14    24    1
    24    24    25   ar
    25    25    26    1
    26    25    27   ar
    27    27    28   ar
    28    28    29    1
    29    28    30   ar
    30    30    31   ar
    31    24    31   ar
    32    31    32    1
    33     3    33    1
    34    33    34   ar
    35    34    35   ar
    36    35    36   ar
    37    36    37   ar
    38    37    38   ar
    39    33    38   ar
    40     3     4    1
    41     3     2    1
    42     1    39    1
    43     1    40    1
    44     1    41    1
    45     2    42    1
    46     2    43    1
    47     3    44    1
    48     7    45    1
    49     7    46    1
    50     9    47    1
    51    10    48    1
    52    12    49    1
    53    12    50    1
    54    12    51    1
    55    14    52    1
    56    17    53    1
    57    18    54    1
    58    19    55    1
    59    19    56    1
    60    20    57    1
    61    20    58    1
    62    21    59    1
    63    21    60    1
    64    22    61    1
    65    22    62    1
    66    23    63    1
    67    23    64    1
    68    26    65    1
    69    27    66    1
    70    29    67    1
    71    30    68    1
    72    32    69    1
    73    34    70    1
    74    35    71    1
    75    36    72    1
    76    37    73    1
    77    38    74    1
