REMARK  15 active torsions:
REMARK  status: ('A' for Active; 'I' for Inactive)
REMARK    1  A    between atoms: C_2  and  C_3 
REMARK    2  A    between atoms: C_3  and  C_4 
REMARK    3  A    between atoms: C_6  and  C_7 
REMARK    4  A    between atoms: N_8  and  N_9 
REMARK       I    between atoms: N_9  and  C_10 
REMARK    5  A    between atoms: C_10  and  C_12 
REMARK    6  A    between atoms: C_12  and  C_13 
REMARK    7  A    between atoms: C_13  and  C_14 
REMARK    8  A    between atoms: C_14  and  O_15 
REMARK    9  A    between atoms: C_14  and  C_16 
REMARK   10  A    between atoms: C_19  and  O_20 
REMARK   11  A    between atoms: O_20  and  C_21 
REMARK   12  A    between atoms: C_26  and  O_27 
REMARK   13  A    between atoms: C_29  and  O_30 
REMARK   14  A    between atoms: O_30  and  C_31 
REMARK   15  A    between atoms: C_31  and  C_32 
ROOT
ATOM      1  C   UNL d   1       7.581  -2.496   0.228  0.00  0.00     0.150 C 
ATOM      2  N   UNL d   1       8.780  -2.416   0.743  0.00  0.00    -0.184 NA
ENDROOT
BRANCH   1   3
ATOM      3  C   UNL d   1       6.691  -1.431  -0.311  0.00  0.00    -0.014 C 
ATOM      4  C   UNL d   1       5.358  -1.707  -0.606  0.00  0.00     0.023 C 
ATOM      5  C   UNL d   1       4.438  -0.650  -0.812  0.00  0.00    -0.018 C 
ATOM      6  C   UNL d   1       4.903   0.690  -0.796  0.00  0.00     0.109 C 
ATOM      7  C   UNL d   1       6.248   0.940  -0.513  0.00  0.00     0.102 C 
ATOM      8  C   UNL d   1       7.123  -0.123  -0.427  0.00  0.00     0.052 C 
BRANCH   5   9
ATOM      9  C   UNL d   1       2.973  -1.040  -0.904  0.00  0.00     0.068 C 
BRANCH   9  10
ATOM     10  C   UNL d   1       2.161  -0.435   0.223  0.00  0.00    -0.032 C 
ATOM     11  C   UNL d   1       0.842  -0.206   0.127  0.00  0.00     0.007 C 
ENDBRANCH   9  10
ENDBRANCH   5   9
BRANCH   6  12
ATOM     12  O   UNL d   1       4.195   1.820  -1.066  0.00  0.00    -0.343 OA
BRANCH  12  13
ATOM     13  C   UNL d   1       2.896   1.767  -1.591  0.00  0.00     0.214 C 
BRANCH  13  14
ATOM     14  C   UNL d   1       2.238   3.089  -1.752  0.00  0.00    -0.034 A 
ATOM     15  C   UNL d   1       2.960   4.268  -1.677  0.00  0.00     0.009 A 
ATOM     16  C   UNL d   1       2.296   5.474  -1.618  0.00  0.00     0.001 A 
ATOM     17  C   UNL d   1       0.910   5.500  -1.744  0.00  0.00     0.000 A 
ATOM     18  C   UNL d   1       0.174   4.319  -1.839  0.00  0.00     0.001 A 
ATOM     19  C   UNL d   1       0.837   3.107  -1.825  0.00  0.00     0.009 A 
ENDBRANCH  13  14
ENDBRANCH  12  13
ENDBRANCH   6  12
BRANCH   7  20
ATOM     20  O   UNL d   1       6.891   2.128  -0.264  0.00  0.00    -0.353 OA
ATOM     21  C   UNL d   1       6.115   3.308  -0.340  0.00  0.00     0.210 C 
ENDBRANCH   7  20
ENDBRANCH   1   3
BRANCH   2  22
ATOM     22  N   UNL d   1       9.376  -1.201   0.909  0.00  0.00    -0.247 N 
ATOM     23  C   UNL d   1      10.663  -1.049   1.355  0.00  0.00     0.237 C 
ATOM     24  O   UNL d   1      11.399  -1.970   1.733  0.00  0.00    -0.272 OA
ATOM     25  H   UNL d   1       8.792  -0.392   1.059  0.00  0.00     0.192 HD
BRANCH  23  26
ATOM     26  C   UNL d   1      11.102   0.416   1.313  0.00  0.00     0.107 C 
BRANCH  26  27
ATOM     27  C   UNL d   1      12.506   0.497   1.866  0.00  0.00     0.046 C 
BRANCH  27  28
ATOM     28  C   UNL d   1      13.140   1.885   1.918  0.00  0.00     0.151 C 
BRANCH  28  29
ATOM     29  O   UNL d   1      12.315   2.743   2.700  0.00  0.00    -0.391 OA
ATOM     30  H   UNL d   1      12.368   2.424   3.617  0.00  0.00     0.210 HD
ENDBRANCH  28  29
BRANCH  28  31
ATOM     31  C   UNL d   1      14.551   1.827   2.485  0.00  0.00    -0.029 A 
ATOM     32  C   UNL d   1      15.289   2.993   2.718  0.00  0.00     0.012 A 
ATOM     33  C   UNL d   1      16.641   2.912   3.089  0.00  0.00     0.037 A 
ATOM     34  C   UNL d   1      17.249   1.673   3.318  0.00  0.00     0.068 A 
ATOM     35  C   UNL d   1      16.516   0.516   3.105  0.00  0.00     0.037 A 
ATOM     36  C   UNL d   1      15.192   0.595   2.700  0.00  0.00     0.012 A 
BRANCH  34  37
ATOM     37  O   UNL d   1      18.546   1.691   3.760  0.00  0.00    -0.352 OA
BRANCH  37  38
ATOM     38  C   UNL d   1      19.089   0.413   4.114  0.00  0.00     0.171 C 
ATOM     39  C   UNL d   1      20.474   0.609   4.692  0.00  0.00     0.034 C 
ENDBRANCH  37  38
ENDBRANCH  34  37
ENDBRANCH  28  31
ENDBRANCH  27  28
ENDBRANCH  26  27
ENDBRANCH  23  26
ENDBRANCH   2  22
TORSDOF 15
