@<TRIPOS>MOLECULE
*****
 72 75 0 0 0
SMALL
GASTEIGER

@<TRIPOS>ATOM
      1 C           0.9607   -0.1045   -0.0540 C.3     1  UNL1       -0.0206
      2 C           2.4418   -0.0558   -0.0630 C.ar    1  UNL1        0.0607
      3 C           3.2486    1.0961   -0.0096 C.ar    1  UNL1       -0.0178
      4 C           4.5452    0.6364    0.0155 C.ar    1  UNL1        0.0453
      5 C           5.8203    1.3903    0.0052 C.3     1  UNL1       -0.0221
      6 N           4.4668   -0.7443   -0.0682 N.ar    1  UNL1       -0.2024
      7 C           5.5638   -1.6651   -0.0737 C.ar    1  UNL1        0.2528
      8 N           6.4767   -1.5526    0.9260 N.ar    1  UNL1       -0.2155
      9 C           7.4279   -2.4967    0.9684 C.ar    1  UNL1        0.0479
     10 C           8.4412   -2.4333    2.0993 C.3     1  UNL1       -0.0079
     11 C           9.6143   -3.4284    1.9383 C.3     1  UNL1       -0.0413
     12 C          10.4642   -3.1202    0.6908 C.3     1  UNL1       -0.0623
     13 C          10.5338   -3.4294    3.1522 C.3     1  UNL1       -0.0623
     14 C           7.4943   -3.4832   -0.0040 C.ar    1  UNL1       -0.0083
     15 C           6.6462   -3.4306   -1.0765 C.ar    1  UNL1        0.1025
     16 S           6.8469   -4.5065   -2.5120 S.3     1  UNL1       -0.1053
     17 C           8.4511   -5.4116   -2.2411 C.3     1  UNL1        0.0080
     18 C           8.8069   -6.3685   -3.4197 C.3     1  UNL1        0.0336
     19 C          10.2702   -6.9062   -3.3078 C.2     1  UNL1        0.2180
     20 O          11.0458   -6.3741   -2.5330 O.2     1  UNL1       -0.2754
     21 N          10.6402   -7.9856   -4.1464 N.am    1  UNL1       -0.2855
     22 C          11.8715   -8.7625   -4.0618 C.ar    1  UNL1        0.0338
     23 C          12.6148   -9.2284   -5.1111 C.ar    1  UNL1       -0.0405
     24 C          13.6656  -10.1747   -4.8710 C.ar    1  UNL1       -0.0596
     25 C          13.9237  -10.7613   -3.5980 C.ar    1  UNL1       -0.0534
     26 C          13.1203  -10.3855   -2.5447 C.ar    1  UNL1       -0.0012
     27 C          13.0345  -10.9813   -1.1352 C.3     1  UNL1       -0.0059
     28 N          11.7860  -10.5784   -0.2022 N.4     1  UNL1        0.2385
     29 C          10.4066  -11.1004   -0.6443 C.3     1  UNL1       -0.0314
     30 C           9.7764   -9.9642   -1.4127 C.3     1  UNL1       -0.0077
     31 C          10.2842   -8.7289   -0.6489 C.3     1  UNL1       -0.0077
     32 C          11.5935   -9.0885    0.0835 C.3     1  UNL1       -0.0314
     33 C          12.2691   -9.3291   -2.8667 C.ar    1  UNL1       -0.0323
     34 N           5.6303   -2.5591   -1.0945 N.ar    1  UNL1       -0.2043
     35 N           3.1717   -1.1728   -0.1540 N.ar    1  UNL1       -0.1689
     36 H           0.5469    0.9099   -0.0480 H       1  UNL1        0.0293
     37 H           0.5943   -0.6184    0.8405 H       1  UNL1        0.0293
     38 H           0.5804   -0.6195   -0.9405 H       1  UNL1        0.0293
     39 H           2.9263    2.1277   -0.0030 H       1  UNL1        0.0654
     40 H           5.6221    2.4671   -0.0160 H       1  UNL1        0.0293
     41 H           6.4085    1.1464   -0.8860 H       1  UNL1        0.0293
     42 H           6.4161    1.1774    0.8962 H       1  UNL1        0.0293
     43 H           7.9118   -2.6358    3.0413 H       1  UNL1        0.0331
     44 H           8.8379   -1.4119    2.1758 H       1  UNL1        0.0331
     45 H           9.1997   -4.4441    1.8702 H       1  UNL1        0.0299
     46 H          10.9622   -2.1532    0.7924 H       1  UNL1        0.0232
     47 H           9.9002   -3.0609   -0.2426 H       1  UNL1        0.0232
     48 H          11.2117   -3.9041    0.5405 H       1  UNL1        0.0232
     49 H          11.0249   -2.4594    3.2686 H       1  UNL1        0.0232
     50 H          11.3099   -4.1931    3.0243 H       1  UNL1        0.0232
     51 H           9.9841   -3.6597    4.0690 H       1  UNL1        0.0232
     52 H           8.2354   -4.2577    0.0397 H       1  UNL1        0.0662
     53 H           8.3613   -5.9929   -1.3142 H       1  UNL1        0.0385
     54 H           9.2491   -4.6753   -2.0984 H       1  UNL1        0.0385
     55 H           8.7518   -5.8110   -4.3584 H       1  UNL1        0.0367
     56 H           8.0715   -7.1833   -3.4492 H       1  UNL1        0.0367
     57 H          10.0754   -8.1316   -4.9725 H       1  UNL1        0.1548
     58 H          12.4565   -8.8167   -6.0998 H       1  UNL1        0.0636
     59 H          14.2808  -10.4779   -5.7166 H       1  UNL1        0.0618
     60 H          14.7347  -11.4812   -3.4820 H       1  UNL1        0.0622
     61 H          13.9228  -10.7250   -0.5431 H       1  UNL1        0.0867
     62 H          12.9717  -12.0776   -1.1852 H       1  UNL1        0.0867
     63 H          11.9921  -11.0130    0.7065 H       1  UNL1        0.2037
     64 H           9.8149  -11.2673    0.2604 H       1  UNL1        0.0814
     65 H          10.5309  -12.0259   -1.2102 H       1  UNL1        0.0814
     66 H           8.6890   -9.9570   -1.5188 H       1  UNL1        0.0319
     67 H          10.0866  -10.0795   -2.4592 H       1  UNL1        0.0319
     68 H           9.5279   -8.2103   -0.0662 H       1  UNL1        0.0319
     69 H          10.5509   -7.9484   -1.3289 H       1  UNL1        0.0319
     70 H          11.5091   -8.9120    1.1563 H       1  UNL1        0.0814
     71 H          12.4883   -8.5514   -0.2706 H       1  UNL1        0.0814
     72 H          11.7531   -8.9744   -2.0558 H       1  UNL1        0.0641
@<TRIPOS>UNITY_ATOM_ATTR
28 1
charge 1
@<TRIPOS>BOND
     1     1     2    1
     2     2     3   ar
     3     3     4   ar
     4     4     5    1
     5     4     6   ar
     6     6     7    1
     7     7     8   ar
     8     8     9   ar
     9     9    10    1
    10    10    11    1
    11    11    12    1
    12    11    13    1
    13     9    14   ar
    14    14    15   ar
    15    15    16    1
    16    16    17    1
    17    17    18    1
    18    18    19    1
    19    19    20    2
    20    19    21   am
    21    21    22    1
    22    22    23   ar
    23    23    24   ar
    24    24    25   ar
    25    25    26   ar
    26    26    27    1
    27    27    28    1
    28    28    29    1
    29    29    30    1
    30    30    31    1
    31    31    32    1
    32    28    32    1
    33    26    33   ar
    34    22    33   ar
    35    15    34   ar
    36     7    34   ar
    37     6    35   ar
    38     2    35   ar
    39     1    36    1
    40     1    37    1
    41     1    38    1
    42     3    39    1
    43     5    40    1
    44     5    41    1
    45     5    42    1
    46    10    43    1
    47    10    44    1
    48    11    45    1
    49    12    46    1
    50    12    47    1
    51    12    48    1
    52    13    49    1
    53    13    50    1
    54    13    51    1
    55    14    52    1
    56    17    53    1
    57    17    54    1
    58    18    55    1
    59    18    56    1
    60    21    57    1
    61    23    58    1
    62    24    59    1
    63    25    60    1
    64    27    61    1
    65    27    62    1
    66    28    63    1
    67    29    64    1
    68    29    65    1
    69    30    66    1
    70    30    67    1
    71    31    68    1
    72    31    69    1
    73    32    70    1
    74    32    71    1
    75    33    72    1
