REMARK  9 active torsions:
REMARK  status: ('A' for Active; 'I' for Inactive)
REMARK    1  A    between atoms: C_2  and  C_3 
REMARK    2  A    between atoms: C_3  and  O_4 
REMARK    3  A    between atoms: O_4  and  C_5 
REMARK    4  A    between atoms: C_8  and  C_9 
REMARK       I    between atoms: C_9  and  N_11 
REMARK    5  A    between atoms: N_11  and  C_12 
REMARK    6  A    between atoms: C_12  and  N_14 
REMARK    7  A    between atoms: N_14  and  C_15 
REMARK    8  A    between atoms: C_18  and  S_19 
REMARK    9  A    between atoms: S_19  and  N_22 
REMARK       I    between atoms: N_22  and  C_23 
REMARK       I    between atoms: C_23  and  N_24 
ROOT
ATOM      1  C   UNL d   1       7.936  -7.856  -7.932  0.00  0.00     0.034 A 
ATOM      2  C   UNL d   1       8.273  -7.649  -9.275  0.00  0.00     0.031 A 
ATOM      3  C   UNL d   1       8.918  -8.669 -10.025  0.00  0.00     0.027 A 
ATOM      4  C   UNL d   1       9.277  -9.887  -9.419  0.00  0.00     0.080 A 
ATOM      5  C   UNL d   1       8.904 -10.115  -8.101  0.00  0.00     0.027 A 
ATOM      6  C   UNL d   1       8.216  -9.120  -7.390  0.00  0.00     0.031 A 
ENDROOT
BRANCH   1   7
ATOM      7  N   UNL d   1       7.340  -6.818  -7.119  0.00  0.00    -0.333 N 
ATOM      8  H   UNL d   1       6.757  -6.155  -7.619  0.00  0.00     0.168 HD
BRANCH   7   9
ATOM      9  C   UNL d   1       7.819  -6.465  -5.826  0.00  0.00     0.179 C 
ATOM     10  S   UNL d   1       9.198  -7.182  -5.148  0.00  0.00    -0.040 SA
BRANCH   9  11
ATOM     11  N   UNL d   1       7.081  -5.437  -5.176  0.00  0.00    -0.299 N 
ATOM     12  C   UNL d   1       7.361  -4.943  -3.874  0.00  0.00     0.257 C 
ATOM     13  O   UNL d   1       8.244  -5.404  -3.152  0.00  0.00    -0.267 OA
ATOM     14  H   UNL d   1       6.305  -5.022  -5.669  0.00  0.00     0.171 HD
BRANCH  12  15
ATOM     15  C   UNL d   1       6.563  -3.855  -3.223  0.00  0.00     0.032 A 
ATOM     16  C   UNL d   1       6.909  -3.524  -1.890  0.00  0.00     0.020 A 
ATOM     17  C   UNL d   1       6.144  -2.637  -1.128  0.00  0.00     0.038 A 
ATOM     18  C   UNL d   1       5.054  -2.000  -1.705  0.00  0.00     0.068 A 
ATOM     19  C   UNL d   1       4.742  -2.260  -3.044  0.00  0.00     0.038 A 
ATOM     20  C   UNL d   1       5.486  -3.189  -3.802  0.00  0.00     0.020 A 
BRANCH  18  21
ATOM     21  O   UNL d   1       4.436  -1.059  -0.929  0.00  0.00    -0.351 OA
BRANCH  21  22
ATOM     22  C   UNL d   1       3.008  -1.062  -0.985  0.00  0.00     0.175 C 
BRANCH  22  23
ATOM     23  C   UNL d   1       2.486   0.047  -0.071  0.00  0.00     0.022 C 
ATOM     24  C   UNL d   1       0.968   0.074  -0.054  0.00  0.00     0.007 C 
ENDBRANCH  22  23
ENDBRANCH  21  22
ENDBRANCH  18  21
ENDBRANCH  12  15
ENDBRANCH   9  11
ENDBRANCH   7   9
ENDBRANCH   1   7
BRANCH   4  25
ATOM     25  S   UNL d   1      10.252 -11.082 -10.306  0.00  0.00     0.276 S 
ATOM     26  O   UNL d   1       9.451 -11.647 -11.372  0.00  0.00    -0.200 OA
ATOM     27  O   UNL d   1      11.546 -10.519 -10.591  0.00  0.00    -0.200 OA
BRANCH  25  28
ATOM     28  N   UNL d   1      10.633 -12.403  -9.410  0.00  0.00    -0.113 N 
ATOM     29  C   UNL d   1      11.359 -13.415  -9.882  0.00  0.00     0.679 C 
ATOM     30  N   UNL d   1      11.863 -13.489 -11.119  0.00  0.00    -0.234 N 
ATOM     31  N   UNL d   1      11.621 -14.466  -9.067  0.00  0.00    -0.234 N 
ATOM     32  H   UNL d   1      11.727 -12.745 -11.797  0.00  0.00     0.174 HD
ATOM     33  H   UNL d   1      12.411 -14.280 -11.436  0.00  0.00     0.174 HD
ATOM     34  H   UNL d   1      11.297 -14.525  -8.109  0.00  0.00     0.174 HD
ATOM     35  H   UNL d   1      12.168 -15.257  -9.391  0.00  0.00     0.174 HD
ATOM     36  H   UNL d   1      10.319 -12.412  -8.464  0.00  0.00     0.197 HD
ENDBRANCH  25  28
ENDBRANCH   4  25
TORSDOF 9
