REMARK  5 active torsions:
REMARK  status: ('A' for Active; 'I' for Inactive)
REMARK       I    between atoms: C_2  and  N_3 
REMARK       I    between atoms: C_2  and  N_12 
REMARK    1  A    between atoms: N_3  and  O_4 
REMARK    2  A    between atoms: O_4  and  C_5 
REMARK    3  A    between atoms: C_5  and  C_6 
REMARK    4  A    between atoms: C_13  and  N_12 
REMARK    5  A    between atoms: C_15  and  C_16 
ROOT
ATOM      1  O   UNL d   1       6.189   0.585  -1.119  0.00  0.00    -0.245 OA
ATOM      2  C   UNL d   1       5.499  -0.401  -1.373  0.00  0.00     0.340 C 
ATOM      3  N   UNL d   1       5.520  -0.939  -2.649  0.00  0.00    -0.216 N 
ATOM      4  N   UNL d   1       4.740  -1.077  -0.446  0.00  0.00    -0.336 N 
ATOM      5  H   UNL d   1       4.680  -1.265  -3.112  0.00  0.00     0.199 HD
ATOM      6  H   UNL d   1       3.957  -1.569  -0.863  0.00  0.00     0.164 HD
ENDROOT
BRANCH   3   7
ATOM      7  O   UNL d   1       6.462  -0.198  -3.449  0.00  0.00    -0.272 OA
BRANCH   7   8
ATOM      8  C   UNL d   1       6.306  -0.467  -4.832  0.00  0.00     0.240 C 
BRANCH   8   9
ATOM      9  C   UNL d   1       7.452   0.108  -5.635  0.00  0.00    -0.032 A 
ATOM     10  C   UNL d   1       8.185  -0.736  -6.483  0.00  0.00     0.009 A 
ATOM     11  C   UNL d   1       9.268  -0.252  -7.217  0.00  0.00     0.001 A 
ATOM     12  C   UNL d   1       9.574   1.106  -7.190  0.00  0.00     0.000 A 
ATOM     13  C   UNL d   1       8.841   1.966  -6.374  0.00  0.00     0.001 A 
ATOM     14  C   UNL d   1       7.794   1.468  -5.588  0.00  0.00     0.009 A 
ENDBRANCH   8   9
ENDBRANCH   7   8
ENDBRANCH   3   7
BRANCH   4  15
ATOM     15  C   UNL d   1       4.517  -0.724   0.954  0.00  0.00     0.095 A 
ATOM     16  C   UNL d   1       5.332  -1.348   2.067  0.00  0.00     0.037 A 
ATOM     17  C   UNL d   1       5.202   0.158   1.981  0.00  0.00     0.043 A 
BRANCH  17  18
ATOM     18  C   UNL d   1       6.467   1.009   1.982  0.00  0.00    -0.049 A 
ATOM     19  C   UNL d   1       7.540   0.856   1.099  0.00  0.00     0.008 A 
ATOM     20  C   UNL d   1       8.691   1.648   1.110  0.00  0.00     0.004 A 
ATOM     21  C   UNL d   1       8.865   2.580   2.112  0.00  0.00     0.042 A 
ATOM     22  C   UNL d   1       7.861   2.721   3.058  0.00  0.00     0.116 A 
ATOM     23  F   UNL d   1       8.060   3.540   4.100  0.00  0.00    -0.206 F 
ATOM     24  C   UNL d   1       6.669   1.986   2.979  0.00  0.00     0.049 A 
ENDBRANCH  17  18
ENDBRANCH   4  15
TORSDOF 5
