REMARK  9 active torsions:
REMARK  status: ('A' for Active; 'I' for Inactive)
REMARK       I    between atoms: C_2  and  N_3 
REMARK    1  A    between atoms: C_2  and  C_25 
REMARK    2  A    between atoms: N_3  and  N_4 
REMARK    3  A    between atoms: N_4  and  C_5 
REMARK    4  A    between atoms: C_5  and  N_7 
REMARK       I    between atoms: N_7  and  C_8 
REMARK    5  A    between atoms: C_8  and  C_10 
REMARK    6  A    between atoms: C_15  and  O_16 
REMARK    7  A    between atoms: O_16  and  C_17 
REMARK    8  A    between atoms: C_17  and  C_18 
REMARK    9  A    between atoms: C_18  and  C_19 
ROOT
ATOM      1  N   UNL d   1       2.597  -4.989   0.893  0.00  0.00    -0.298 N 
ATOM      2  C   UNL d   1       3.107  -6.291   0.613  0.00  0.00     0.260 C 
ATOM      3  O   UNL d   1       4.305  -6.531   0.398  0.00  0.00    -0.267 OA
ATOM      4  H   UNL d   1       1.623  -4.950   1.165  0.00  0.00     0.171 HD
ENDROOT
BRANCH   2   5
ATOM      5  C   UNL d   1       2.212  -7.512   0.547  0.00  0.00     0.065 A 
ATOM      6  C   UNL d   1       2.661  -8.588   1.355  0.00  0.00     0.020 A 
ATOM      7  C   UNL d   1       2.099  -9.870   1.273  0.00  0.00     0.001 A 
ATOM      8  C   UNL d   1       1.032 -10.100   0.418  0.00  0.00     0.003 A 
ATOM      9  C   UNL d   1       0.585  -9.069  -0.408  0.00  0.00     0.038 A 
ATOM     10  C   UNL d   1       1.181  -7.787  -0.390  0.00  0.00     0.084 A 
BRANCH  10  11
ATOM     11  O   UNL d   1       0.652  -7.000  -1.398  0.00  0.00    -0.350 OA
BRANCH  11  12
ATOM     12  C   UNL d   1       1.195  -5.703  -1.456  0.00  0.00     0.180 C 
BRANCH  12  13
ATOM     13  C   UNL d   1       0.566  -4.739  -2.435  0.00  0.00     0.065 C 
BRANCH  13  14
ATOM     14  C   UNL d   1       1.252  -3.390  -2.414  0.00  0.00    -0.056 A 
ATOM     15  C   UNL d   1       2.642  -3.240  -2.267  0.00  0.00     0.007 A 
ATOM     16  C   UNL d   1       3.216  -1.975  -2.236  0.00  0.00     0.001 A 
ATOM     17  C   UNL d   1       2.412  -0.862  -2.436  0.00  0.00     0.000 A 
ATOM     18  C   UNL d   1       1.036  -0.984  -2.528  0.00  0.00     0.001 A 
ATOM     19  C   UNL d   1       0.459  -2.243  -2.534  0.00  0.00     0.007 A 
ENDBRANCH  13  14
ENDBRANCH  12  13
ENDBRANCH  11  12
ENDBRANCH  10  11
ENDBRANCH   2   5
BRANCH   1  20
ATOM     20  C   UNL d   1       3.255  -3.729   0.792  0.00  0.00     0.193 C 
ATOM     21  S   UNL d   1       4.928  -3.550   0.670  0.00  0.00    -0.039 SA
BRANCH  20  22
ATOM     22  N   UNL d   1       2.390  -2.590   0.808  0.00  0.00    -0.273 N 
ATOM     23  H   UNL d   1       1.495  -2.627   0.306  0.00  0.00     0.189 HD
BRANCH  22  24
ATOM     24  N   UNL d   1       3.026  -1.245   0.671  0.00  0.00    -0.264 N 
ATOM     25  C   UNL d   1       2.314  -0.083   0.399  0.00  0.00     0.270 C 
ATOM     26  O   UNL d   1       1.074  -0.022   0.400  0.00  0.00    -0.266 OA
ATOM     27  H   UNL d   1       4.025  -1.284   0.482  0.00  0.00     0.190 HD
BRANCH  25  28
ATOM     28  C   UNL d   1       3.106   1.186   0.113  0.00  0.00     0.036 A 
ATOM     29  C   UNL d   1       2.658   2.348   0.739  0.00  0.00     0.036 A 
ATOM     30  C   UNL d   1       3.353   3.532   0.542  0.00  0.00     0.117 A 
ATOM     31  N   UNL d   1       4.399   3.665  -0.299  0.00  0.00    -0.273 NA
ATOM     32  C   UNL d   1       4.783   2.558  -0.959  0.00  0.00     0.117 A 
ATOM     33  C   UNL d   1       4.204   1.306  -0.761  0.00  0.00     0.036 A 
ENDBRANCH  25  28
ENDBRANCH  22  24
ENDBRANCH  20  22
ENDBRANCH   1  20
TORSDOF 9
