@<TRIPOS>MOLECULE
*****
 56 59 0 0 0
SMALL
GASTEIGER

@<TRIPOS>ATOM
      1 C           0.9464    0.1906   -0.0606 C.3     1  UNL1       -0.0307
      2 C           2.4574    0.3382   -0.0336 C.3     1  UNL1        0.0870
      3 O           2.9471    0.3648   -1.3801 O.3     1  UNL1       -0.4882
      4 C           4.2991    0.2725   -1.5884 C.ar    1  UNL1        0.1651
      5 C           4.8301    1.1204   -2.5694 C.ar    1  UNL1       -0.0159
      6 C           6.1791    1.0413   -2.9610 C.ar    1  UNL1       -0.0580
      7 C           7.0471    0.1659   -2.3299 C.ar    1  UNL1       -0.0577
      8 C           6.5396   -0.6546   -1.3442 C.ar    1  UNL1       -0.0130
      9 C           5.1613   -0.6489   -0.9918 C.ar    1  UNL1        0.1673
     10 N           4.8027   -1.5630    0.0029 N.pl3   1  UNL1       -0.1302
     11 C           5.2327   -1.2584    1.2782 C.2     1  UNL1        0.3315
     12 N           6.1088   -0.3555    1.6023 N.2     1  UNL1       -0.0984
     13 C           4.5971   -1.9601    2.3461 C.2     1  UNL1        0.1883
     14 C           4.6952   -1.9663    3.6715 C.2     1  UNL1        0.1084
     15 C           5.6690   -1.1672    4.4651 C.3     1  UNL1       -0.0175
     16 N           3.7607   -2.7935    4.2318 N.2     1  UNL1       -0.0388
     17 N           3.0440   -3.3088    3.3135 N.2     1  UNL1        0.0863
     18 C           3.4988   -2.8438    2.0957 C.2     1  UNL1        0.4088
     19 N           3.0023   -3.1329    0.9453 N.2     1  UNL1       -0.0163
     20 C           3.7055   -2.5404   -0.2464 C.3     1  UNL1        0.3259
     21 S           4.2579   -3.8891   -1.3647 S.3     1  UNL1       -0.0541
     22 C           4.9918   -3.0215   -2.8194 C.3     1  UNL1        0.0782
     23 C           5.5348   -4.0586   -3.7858 C.2     1  UNL1        0.2273
     24 O           5.4317   -5.2643   -3.5611 O.2     1  UNL1       -0.2746
     25 N           6.2485   -3.5519   -4.8721 N.am    1  UNL1       -0.2848
     26 C           6.8492   -4.4484   -5.7859 C.ar    1  UNL1        0.0334
     27 C           8.1493   -4.2375   -6.2420 C.ar    1  UNL1       -0.0402
     28 C           8.7310   -5.1550   -7.1281 C.ar    1  UNL1       -0.0571
     29 C           8.0370   -6.3054   -7.5281 C.ar    1  UNL1       -0.0503
     30 C           8.7048   -7.3690   -8.3479 C.3     1  UNL1       -0.0397
     31 C           6.7222   -6.4880   -7.0969 C.ar    1  UNL1       -0.0571
     32 C           6.1381   -5.5665   -6.2327 C.ar    1  UNL1       -0.0402
     33 H           0.5595    0.0574    0.9552 H       1  UNL1        0.0262
     34 H           0.6451   -0.6841   -0.6513 H       1  UNL1        0.0262
     35 H           0.4850    1.0689   -0.5143 H       1  UNL1        0.0262
     36 H           2.7911   -0.5114    0.5444 H       1  UNL1        0.0694
     37 H           2.7809    1.2273    0.5104 H       1  UNL1        0.0694
     38 H           4.1936    1.8688   -3.0353 H       1  UNL1        0.0655
     39 H           6.5546    1.6668   -3.7659 H       1  UNL1        0.0619
     40 H           8.0987    0.1014   -2.5943 H       1  UNL1        0.0619
     41 H           7.1991   -1.3808   -0.8605 H       1  UNL1        0.0659
     42 H           6.4786    0.1322    0.7877 H       1  UNL1        0.3633
     43 H           6.2992   -0.5205    3.8486 H       1  UNL1        0.0294
     44 H           6.3586   -1.8225    5.0015 H       1  UNL1        0.0294
     45 H           5.1609   -0.5000    5.1652 H       1  UNL1        0.0294
     46 H           2.8967   -2.0759   -0.8205 H       1  UNL1        0.1471
     47 H           5.8894   -2.5070   -2.5075 H       1  UNL1        0.0474
     48 H           4.2975   -2.3336   -3.3161 H       1  UNL1        0.0474
     49 H           6.5800   -2.5945   -4.8611 H       1  UNL1        0.1548
     50 H           8.7582   -3.4253   -5.8561 H       1  UNL1        0.0636
     51 H           9.7441   -4.9845   -7.4848 H       1  UNL1        0.0621
     52 H           9.7404   -7.1013   -8.5791 H       1  UNL1        0.0278
     53 H           8.1715   -7.5285   -9.2894 H       1  UNL1        0.0278
     54 H           8.7278   -8.3085   -7.7837 H       1  UNL1        0.0278
     55 H           6.1445   -7.3547   -7.4077 H       1  UNL1        0.0621
     56 H           5.1175   -5.7381   -5.8980 H       1  UNL1        0.0636
@<TRIPOS>BOND
     1     1     2    1
     2     2     3    1
     3     3     4    1
     4     4     5   ar
     5     5     6   ar
     6     6     7   ar
     7     7     8   ar
     8     8     9   ar
     9     4     9   ar
    10     9    10    1
    11    10    11    1
    12    11    12    2
    13    11    13    1
    14    13    14    2
    15    14    15    1
    16    14    16    1
    17    16    17    2
    18    17    18    1
    19    13    18    1
    20    18    19    2
    21    19    20    1
    22    10    20    1
    23    20    21    1
    24    21    22    1
    25    22    23    1
    26    23    24    2
    27    23    25   am
    28    25    26    1
    29    26    27   ar
    30    27    28   ar
    31    28    29   ar
    32    29    30    1
    33    29    31   ar
    34    31    32   ar
    35    26    32   ar
    36     1    33    1
    37     1    34    1
    38     1    35    1
    39     2    36    1
    40     2    37    1
    41     5    38    1
    42     6    39    1
    43     7    40    1
    44     8    41    1
    45    12    42    1
    46    15    43    1
    47    15    44    1
    48    15    45    1
    49    20    46    1
    50    22    47    1
    51    22    48    1
    52    25    49    1
    53    27    50    1
    54    28    51    1
    55    30    52    1
    56    30    53    1
    57    30    54    1
    58    31    55    1
    59    32    56    1
