@<TRIPOS>MOLECULE
*****
 43 45 0 0 0
SMALL
GASTEIGER

@<TRIPOS>ATOM
      1 C           7.3009   12.2393    1.2807 C.3     1  UNL1       -0.0249
      2 C           6.4063   11.0051    1.3790 C.3     1  UNL1        0.1213
      3 C           5.2573   11.2598    2.3527 C.3     1  UNL1       -0.0249
      4 O           5.8845   10.6961    0.0936 O.3     1  UNL1       -0.3771
      5 C           7.2291    9.8241    1.8676 C.1     1  UNL1       -0.0600
      6 C           7.9348    8.8110    2.2866 C.1     1  UNL1       -0.0256
      7 C           8.7051    7.5548    2.4201 C.ar    1  UNL1        0.1786
      8 C           9.9851    7.2658    1.9905 C.ar    1  UNL1       -0.0070
      9 C          10.4341    6.1191    2.7111 C.ar    1  UNL1       -0.0100
     10 C           9.3936    5.6979    3.5305 C.ar    1  UNL1        0.1908
     11 C           9.5402    4.8398    4.7490 C.2     1  UNL1        0.2800
     12 O          10.5385    4.1617    4.9497 O.2     1  UNL1       -0.2668
     13 N           8.6429    4.8990    5.8096 N.am    1  UNL1       -0.2995
     14 C           7.5033    5.7603    5.9275 C.3     1  UNL1        0.0752
     15 C           7.8212    7.2400    5.8872 C.ar    1  UNL1       -0.0215
     16 C           8.9160    7.9172    5.3755 C.ar    1  UNL1       -0.0565
     17 C           8.8290    9.2705    5.0980 C.ar    1  UNL1       -0.0614
     18 C           7.7638    9.9963    5.5989 C.ar    1  UNL1       -0.0615
     19 C           6.7996    9.3588    6.3873 C.ar    1  UNL1       -0.0582
     20 C           6.8152    7.9742    6.4947 C.ar    1  UNL1       -0.0398
     21 C           5.9153    7.0575    7.2765 C.3     1  UNL1        0.0008
     22 C           6.7571    5.7488    7.2921 C.3     1  UNL1        0.0816
     23 O           7.6952    5.7807    8.3868 O.3     1  UNL1       -0.3893
     24 O           8.2726    6.4923    3.2198 O.2     1  UNL1       -0.4420
     25 H           6.7352   13.1040    0.9159 H       1  UNL1        0.0267
     26 H           8.1210   12.0762    0.5723 H       1  UNL1        0.0267
     27 H           7.7372   12.4972    2.2527 H       1  UNL1        0.0267
     28 H           4.6380   12.0986    2.0159 H       1  UNL1        0.0267
     29 H           5.6275   11.4874    3.3590 H       1  UNL1        0.0267
     30 H           4.5984   10.3870    2.4224 H       1  UNL1        0.0267
     31 H           5.3556   11.4563   -0.1991 H       1  UNL1        0.2114
     32 H          10.5914    7.9017    1.3645 H       1  UNL1        0.0662
     33 H          11.4541    5.7600    2.7916 H       1  UNL1        0.0657
     34 H           8.8492    4.2719    6.5822 H       1  UNL1        0.1498
     35 H           6.7978    5.4553    5.1410 H       1  UNL1        0.0574
     36 H           9.8068    7.4142    5.0343 H       1  UNL1        0.0621
     37 H           9.5588    9.7133    4.4215 H       1  UNL1        0.0618
     38 H           7.7257   11.0601    5.3936 H       1  UNL1        0.0618
     39 H           6.0586    9.9525    6.9043 H       1  UNL1        0.0620
     40 H           4.9667    6.9129    6.7502 H       1  UNL1        0.0339
     41 H           5.7595    7.4518    8.2832 H       1  UNL1        0.0339
     42 H           6.1369    4.8595    7.4465 H       1  UNL1        0.0618
     43 H           8.2775    6.5513    8.2363 H       1  UNL1        0.2099
@<TRIPOS>BOND
     1     1     2    1
     2     2     3    1
     3     2     4    1
     4     2     5    1
     5     5     6    3
     6     6     7    1
     7     7     8   ar
     8     8     9   ar
     9     9    10   ar
    10    10    11    1
    11    11    12    2
    12    11    13   am
    13    14    15    1
    14    15    16   ar
    15    16    17   ar
    16    17    18   ar
    17    18    19   ar
    18    19    20   ar
    19    15    20   ar
    20    20    21    1
    21    21    22    1
    22    14    22    1
    23    22    23    1
    24    10    24   ar
    25     7    24   ar
    26    14    13    1
    27     1    25    1
    28     1    26    1
    29     1    27    1
    30     3    28    1
    31     3    29    1
    32     3    30    1
    33     4    31    1
    34     8    32    1
    35     9    33    1
    36    13    34    1
    37    14    35    1
    38    16    36    1
    39    17    37    1
    40    18    38    1
    41    19    39    1
    42    21    40    1
    43    21    41    1
    44    22    42    1
    45    23    43    1
