REMARK  7 active torsions:
REMARK  status: ('A' for Active; 'I' for Inactive)
REMARK    1  A    between atoms: C_3  and  C_25 
REMARK    2  A    between atoms: C_4  and  C_5 
REMARK    3  A    between atoms: N_7  and  C_8 
REMARK    4  A    between atoms: C_8  and  C_9 
REMARK    5  A    between atoms: C_13  and  C_14 
REMARK       I    between atoms: C_25  and  N_27 
REMARK    6  A    between atoms: N_27  and  C_28 
REMARK    7  A    between atoms: C_33  and  N_34 
ROOT
ATOM      1  N   UNL d   1       0.925   0.037   0.054  0.00  0.00    -0.096 N 
ATOM      2  C   UNL d   1       2.186   0.037   0.054  0.00  0.00     0.025 C 
ATOM      3  C   UNL d   1       3.706   0.037   0.054  0.00  0.00     0.099 C 
ATOM      4  C   UNL d   1       4.343  -0.081   1.237  0.00  0.00     0.041 C 
ENDROOT
BRANCH   3   5
ATOM      5  C   UNL d   1       4.417   0.226  -1.260  0.00  0.00     0.265 C 
ATOM      6  O   UNL d   1       3.740   0.292  -2.293  0.00  0.00    -0.267 OA
ATOM      7  N   UNL d   1       5.812   0.240  -1.269  0.00  0.00    -0.320 N 
ATOM      8  H   UNL d   1       6.303  -0.165  -0.475  0.00  0.00     0.169 HD
BRANCH   7   9
ATOM      9  C   UNL d   1       6.574   0.284  -2.482  0.00  0.00     0.068 C 
ATOM     10  C   UNL d   1       6.173   1.157  -3.503  0.00  0.00     0.032 C 
ATOM     11  C   UNL d   1       6.770   1.121  -4.768  0.00  0.00     0.002 C 
ATOM     12  C   UNL d   1       7.859   0.291  -5.005  0.00  0.00     0.003 C 
ATOM     13  C   UNL d   1       8.371  -0.486  -3.967  0.00  0.00     0.038 C 
ATOM     14  C   UNL d   1       7.710  -0.521  -2.719  0.00  0.00     0.129 C 
BRANCH  14  15
ATOM     15  N   UNL d   1       8.173  -1.516  -1.739  0.00  0.00    -0.113 N 
ATOM     16  O   UNL d   1       9.124  -2.242  -2.048  0.00  0.00    -0.532 OA
ATOM     17  O   UNL d   1       7.579  -1.573  -0.645  0.00  0.00    -0.532 OA
ENDBRANCH  14  15
ENDBRANCH   7   9
ENDBRANCH   3   5
BRANCH   4  18
ATOM     18  C   UNL d   1       3.679  -0.244   2.490  0.00  0.00    -0.006 A 
ATOM     19  C   UNL d   1       4.008   0.458   3.617  0.00  0.00     0.104 A 
ATOM     20  N   UNL d   1       3.087   0.164   4.600  0.00  0.00    -0.351 N 
ATOM     21  C   UNL d   1       2.198  -0.791   4.123  0.00  0.00     0.045 A 
ATOM     22  C   UNL d   1       1.091  -1.428   4.710  0.00  0.00     0.030 A 
ATOM     23  C   UNL d   1       2.586  -1.090   2.814  0.00  0.00     0.002 A 
ATOM     24  C   UNL d   1       0.364  -2.347   3.935  0.00  0.00     0.002 A 
ATOM     25  C   UNL d   1       0.735  -2.649   2.634  0.00  0.00     0.001 A 
ATOM     26  C   UNL d   1       1.866  -2.062   2.088  0.00  0.00     0.014 A 
BRANCH  20  27
ATOM     27  C   UNL d   1       3.035   0.749   5.951  0.00  0.00     0.167 C 
BRANCH  27  28
ATOM     28  C   UNL d   1       4.121   1.776   6.197  0.00  0.00    -0.039 C 
ATOM     29  C   UNL d   1       4.163   2.962   5.444  0.00  0.00     0.009 C 
ATOM     30  C   UNL d   1       5.276   3.797   5.493  0.00  0.00     0.001 C 
ATOM     31  C   UNL d   1       6.377   3.432   6.262  0.00  0.00     0.016 C 
ATOM     32  C   UNL d   1       6.337   2.279   7.063  0.00  0.00     0.048 C 
ATOM     33  C   UNL d   1       5.176   1.492   7.074  0.00  0.00     0.025 C 
BRANCH  32  34
ATOM     34  C   UNL d   1       7.561   1.867   7.841  0.00  0.00     0.417 C 
ATOM     35  F   UNL d   1       8.625   1.615   7.027  0.00  0.00    -0.166 F 
ATOM     36  F   UNL d   1       7.973   2.826   8.713  0.00  0.00    -0.166 F 
ATOM     37  F   UNL d   1       7.382   0.736   8.578  0.00  0.00    -0.166 F 
ENDBRANCH  32  34
ENDBRANCH  27  28
ENDBRANCH  20  27
ENDBRANCH   4  18
TORSDOF 7
