@<TRIPOS>MOLECULE
*****
 62 63 0 0 0
SMALL
GASTEIGER

@<TRIPOS>ATOM
      1 C           4.2799   -2.9927    1.6099 C.3     1  UNL1       -0.0652
      2 C           3.9136   -1.9682    0.6088 C.3     1  UNL1       -0.0538
      3 C           5.0109   -1.4378   -0.3161 C.3     1  UNL1       -0.0256
      4 C           4.5141   -0.4306   -1.4037 C.3     1  UNL1        0.1073
      5 C           3.0152   -0.5022   -1.1562 C.2     1  UNL1        0.2340
      6 O           2.3734   -1.4638   -1.5867 O.2     1  UNL1       -0.2738
      7 N           2.4351    0.3660   -0.2460 N.am    1  UNL1       -0.3138
      8 C           1.0337    0.1380   -0.0187 C.3     1  UNL1        0.0119
      9 C           0.4118    0.7833    1.1845 C.3     1  UNL1       -0.0350
     10 C          -1.1299    0.7685    1.0989 C.3     1  UNL1       -0.0453
     11 C          -1.7039   -0.6400    0.9184 C.3     1  UNL1       -0.0626
     12 C          -1.6895    1.4103    2.3592 C.3     1  UNL1       -0.0626
     13 N           4.9552   -0.7542   -2.8276 N.am    1  UNL1       -0.2551
     14 C           4.0530   -0.9499   -3.9808 C.2     1  UNL1        0.2614
     15 O           4.5018   -1.4263   -5.0153 O.2     1  UNL1       -0.2689
     16 C           2.6035   -0.6256   -3.9201 C.ar    1  UNL1        0.1156
     17 S           1.4318   -1.8444   -4.3199 S.2     1  UNL1        0.0190
     18 N           0.0883   -1.0620   -3.6803 N.ar    1  UNL1       -0.2031
     19 C           0.4470    0.1798   -3.3127 C.ar    1  UNL1        0.1554
     20 C          -0.5194    1.1048   -2.6517 C.2     1  UNL1        0.2624
     21 N          -1.7823    0.6777   -2.3476 N.am    1  UNL1       -0.3240
     22 O          -0.1840    2.2273   -2.2180 O.2     1  UNL1       -0.2687
     23 C           1.8841    0.4676   -3.4637 C.ar    1  UNL1        0.0765
     24 N           2.4786    1.5871   -2.9540 N.pl3   1  UNL1       -0.3551
     25 C           6.4221   -0.7991   -3.0678 C.ar    1  UNL1        0.0374
     26 C           7.3497   -1.3560   -2.1625 C.ar    1  UNL1       -0.0400
     27 C           8.7320   -1.4115   -2.3924 C.ar    1  UNL1       -0.0571
     28 C           9.2701   -0.8698   -3.5446 C.ar    1  UNL1       -0.0503
     29 C          10.7502   -0.9200   -3.7751 C.3     1  UNL1       -0.0397
     30 C           8.3905   -0.2854   -4.4602 C.ar    1  UNL1       -0.0571
     31 C           6.9926   -0.2597   -4.2301 C.ar    1  UNL1       -0.0400
     32 H           3.3370   -3.2813    2.0886 H       1  UNL1        0.0230
     33 H           4.9562   -2.5572    2.3385 H       1  UNL1        0.0230
     34 H           4.7061   -3.8582    1.1039 H       1  UNL1        0.0230
     35 H           3.4468   -1.1501    1.1573 H       1  UNL1        0.0263
     36 H           3.1772   -2.5036    0.0052 H       1  UNL1        0.0263
     37 H           5.3842   -2.3354   -0.8094 H       1  UNL1        0.0288
     38 H           5.8060   -0.9650    0.2757 H       1  UNL1        0.0288
     39 H           4.8850    0.5849   -1.1926 H       1  UNL1        0.0600
     40 H           2.9914    0.8072    0.4752 H       1  UNL1        0.1487
     41 H           0.7644   -0.9189   -0.1277 H       1  UNL1        0.0462
     42 H           0.6016    0.6449   -0.8456 H       1  UNL1        0.0462
     43 H           0.7521    1.8236    1.2328 H       1  UNL1        0.0283
     44 H           0.7566    0.2704    2.0856 H       1  UNL1        0.0283
     45 H          -1.4543    1.3844    0.2515 H       1  UNL1        0.0296
     46 H          -1.3650   -1.2973    1.7247 H       1  UNL1        0.0232
     47 H          -1.4012   -1.0899   -0.0331 H       1  UNL1        0.0232
     48 H          -2.7990   -0.6251    0.9217 H       1  UNL1        0.0232
     49 H          -1.3615    0.8569    3.2438 H       1  UNL1        0.0232
     50 H          -2.7829    1.4255    2.3411 H       1  UNL1        0.0232
     51 H          -1.3357    2.4428    2.4467 H       1  UNL1        0.0232
     52 H          -2.0910   -0.2707   -2.5196 H       1  UNL1        0.1453
     53 H          -2.3361    1.2779   -1.7471 H       1  UNL1        0.1453
     54 H           1.9766    2.0190   -2.1672 H       1  UNL1        0.1424
     55 H           3.4749    1.5789   -2.7626 H       1  UNL1        0.1424
     56 H           7.0906   -1.8582   -1.2491 H       1  UNL1        0.0636
     57 H           9.3686   -1.9027   -1.6568 H       1  UNL1        0.0621
     58 H          11.2647   -1.4447   -2.9597 H       1  UNL1        0.0278
     59 H          11.1587    0.0933   -3.8219 H       1  UNL1        0.0278
     60 H          10.9761   -1.4552   -4.7017 H       1  UNL1        0.0278
     61 H           8.7857    0.1559   -5.3729 H       1  UNL1        0.0621
     62 H           6.3714    0.2217   -4.9815 H       1  UNL1        0.0636
@<TRIPOS>BOND
     1     1     2    1
     2     2     3    1
     3     5     6    2
     4     5     7   am
     5     7     8    1
     6     8     9    1
     7     9    10    1
     8    10    11    1
     9    10    12    1
    10     4    13    1
    11    13    14   am
    12    14    15    2
    13    14    16    1
    14    16    17   ar
    15    17    18   ar
    16    18    19   ar
    17    19    20    1
    18    20    21   am
    19    20    22    2
    20    19    23   ar
    21    16    23   ar
    22    23    24    1
    23    13    25    1
    24    25    26   ar
    25    26    27   ar
    26    27    28   ar
    27    28    29    1
    28    28    30   ar
    29    30    31   ar
    30    25    31   ar
    31     4     5    1
    32     4     3    1
    33     1    32    1
    34     1    33    1
    35     1    34    1
    36     2    35    1
    37     2    36    1
    38     3    37    1
    39     3    38    1
    40     4    39    1
    41     7    40    1
    42     8    41    1
    43     8    42    1
    44     9    43    1
    45     9    44    1
    46    10    45    1
    47    11    46    1
    48    11    47    1
    49    11    48    1
    50    12    49    1
    51    12    50    1
    52    12    51    1
    53    21    52    1
    54    21    53    1
    55    24    54    1
    56    24    55    1
    57    26    56    1
    58    27    57    1
    59    29    58    1
    60    29    59    1
    61    29    60    1
    62    30    61    1
    63    31    62    1
