REMARK  3 active torsions:
REMARK  status: ('A' for Active; 'I' for Inactive)
REMARK    1  A    between atoms: C_6  and  C_7 
REMARK       I    between atoms: C_7  and  N_9 
REMARK    2  A    between atoms: N_9  and  N_10 
REMARK       I    between atoms: N_10  and  C_11 
REMARK    3  A    between atoms: C_11  and  C_13 
ROOT
ATOM      1  N   UNL d   1      -1.838   5.012   0.046  0.00  0.00    -0.263 N 
ATOM      2  C   UNL d   1      -1.103   6.202   0.059  0.00  0.00     0.270 C 
ATOM      3  O   UNL d   1      -1.483   7.152   0.738  0.00  0.00    -0.266 OA
ATOM      4  H   UNL d   1      -2.796   5.105   0.379  0.00  0.00     0.190 HD
ENDROOT
BRANCH   1   5
ATOM      5  N   UNL d   1      -1.244   3.775   0.513  0.00  0.00    -0.263 N 
ATOM      6  C   UNL d   1      -1.918   2.585   0.182  0.00  0.00     0.270 C 
ATOM      7  O   UNL d   1      -3.115   2.571  -0.070  0.00  0.00    -0.266 OA
ATOM      8  H   UNL d   1      -0.242   3.798   0.656  0.00  0.00     0.190 HD
BRANCH   6   9
ATOM      9  C   UNL d   1      -1.120   1.294   0.110  0.00  0.00     0.034 A 
ATOM     10  C   UNL d   1      -1.818   0.076   0.032  0.00  0.00     0.017 A 
ATOM     11  C   UNL d   1      -1.136  -1.150  -0.001  0.00  0.00     0.002 A 
ATOM     12  C   UNL d   1       0.257  -1.180   0.002  0.00  0.00     0.007 A 
ATOM     13  C   UNL d   1       0.977   0.016   0.021  0.00  0.00    -0.061 A 
ATOM     14  C   UNL d   1       2.479   0.007  -0.013  0.00  0.00     0.048 C 
ATOM     15  C   UNL d   1       0.284   1.243   0.077  0.00  0.00     0.024 A 
ENDBRANCH   6   9
ENDBRANCH   1   5
BRANCH   2  16
ATOM     16  C   UNL d   1       0.083   6.373  -0.875  0.00  0.00     0.039 A 
ATOM     17  C   UNL d   1       0.800   7.593  -0.826  0.00  0.00     0.018 A 
ATOM     18  C   UNL d   1       1.880   7.846  -1.695  0.00  0.00     0.008 A 
ATOM     19  C   UNL d   1       2.280   6.881  -2.617  0.00  0.00    -0.061 A 
ATOM     20  C   UNL d   1       3.411   7.082  -3.577  0.00  0.00     0.048 C 
ATOM     21  C   UNL d   1       1.577   5.684  -2.674  0.00  0.00     0.014 A 
ATOM     22  C   UNL d   1       0.461   5.440  -1.860  0.00  0.00    -0.046 A 
ATOM     23  C   UNL d   1      -0.237   4.153  -2.135  0.00  0.00     0.049 C 
ENDBRANCH   2  16
TORSDOF 3
