@<TRIPOS>MOLECULE
*****
 52 54 0 0 0
SMALL
GASTEIGER

@<TRIPOS>ATOM
      1 C           1.8663   -2.3291    0.1127 C.3     1  UNL1       -0.0632
      2 C           2.4536   -1.8733    1.4360 C.3     1  UNL1       -0.0303
      3 C           2.9161   -0.3879    1.3160 C.3     1  UNL1        0.0810
      4 N           2.3201    0.3124    0.1271 N.am    1  UNL1       -0.3016
      5 C           0.9361    0.4098   -0.1619 C.2     1  UNL1        0.2447
      6 O           0.0663    0.2174    0.7046 O.2     1  UNL1       -0.2702
      7 C           0.4534    0.6286   -1.5906 C.ar    1  UNL1        0.0385
      8 C          -0.8600    0.5130   -2.0312 C.ar    1  UNL1       -0.0493
      9 C          -1.1916    0.8645   -3.3602 C.ar    1  UNL1       -0.0564
     10 C          -0.2149    1.3383   -4.2737 C.ar    1  UNL1       -0.0292
     11 C          -0.6555    1.7760   -5.6467 C.3     1  UNL1       -0.0380
     12 C           1.1243    1.3631   -3.8582 C.ar    1  UNL1        0.0370
     13 N           2.1767    1.8172   -4.6896 N.am    1  UNL1       -0.2855
     14 C           3.5258    1.9834   -4.5033 C.2     1  UNL1        0.2141
     15 C           4.3145    1.6373   -3.2557 C.3     1  UNL1        0.0125
     16 O           4.1672    2.4508   -5.4563 O.2     1  UNL1       -0.2758
     17 C           1.3817    0.9292   -2.5657 C.ar    1  UNL1       -0.0281
     18 C           4.4557   -0.3334    1.2400 C.ar    1  UNL1        0.1282
     19 N           5.2304    0.7098    1.4982 N.ar    1  UNL1       -0.2306
     20 C           6.5304    0.2698    1.3690 C.ar    1  UNL1        0.0889
     21 C           7.7125    1.0664    1.6030 C.ar    1  UNL1        0.0018
     22 C           8.6956    1.1840    0.6115 C.ar    1  UNL1       -0.0525
     23 C           9.8948    1.8420    0.8873 C.ar    1  UNL1       -0.0611
     24 C          10.0880    2.4424    2.1308 C.ar    1  UNL1       -0.0617
     25 C           9.1017    2.3499    3.1134 C.ar    1  UNL1       -0.0611
     26 C           7.9178    1.6573    2.8527 C.ar    1  UNL1       -0.0525
     27 C           6.5662   -1.0648    1.0489 C.ar    1  UNL1        0.0293
     28 N           5.2558   -1.4309    0.9534 N.ar    1  UNL1       -0.3462
     29 H           1.5798   -3.3719    0.0275 H       1  UNL1        0.0230
     30 H           2.5322   -2.0552   -0.7163 H       1  UNL1        0.0230
     31 H           0.9181   -1.8184    0.0036 H       1  UNL1        0.0230
     32 H           3.2482   -2.5655    1.7453 H       1  UNL1        0.0285
     33 H           1.7114   -1.9586    2.2370 H       1  UNL1        0.0285
     34 H           2.6027    0.1720    2.2058 H       1  UNL1        0.0579
     35 H           3.0166    0.5313   -0.5662 H       1  UNL1        0.1497
     36 H          -1.6320    0.1375   -1.3633 H       1  UNL1        0.0625
     37 H          -2.2347    0.7925   -3.6717 H       1  UNL1        0.0621
     38 H          -1.7394    1.6688   -5.7755 H       1  UNL1        0.0278
     39 H          -0.1744    1.1697   -6.4210 H       1  UNL1        0.0278
     40 H          -0.4137    2.8320   -5.8071 H       1  UNL1        0.0278
     41 H           1.9118    2.1512   -5.6124 H       1  UNL1        0.1548
     42 H           3.8239    1.3235   -2.3631 H       1  UNL1        0.0323
     43 H           4.8284    2.5288   -2.8948 H       1  UNL1        0.0323
     44 H           5.0074    0.8235   -3.4823 H       1  UNL1        0.0323
     45 H           2.3569    0.7132   -2.2629 H       1  UNL1        0.0644
     46 H           8.5308    0.7648   -0.3782 H       1  UNL1        0.0624
     47 H          10.6791    1.8799    0.1361 H       1  UNL1        0.0618
     48 H          11.0069    2.9864    2.3328 H       1  UNL1        0.0618
     49 H           9.2594    2.8039    4.0879 H       1  UNL1        0.0618
     50 H           7.1617    1.5632    3.6286 H       1  UNL1        0.0624
     51 H           7.3810   -1.7649    0.9102 H       1  UNL1        0.0829
     52 H           4.9458   -2.3722    0.7589 H       1  UNL1        0.1666
@<TRIPOS>BOND
     1     1     2    1
     2     4     5   am
     3     5     6    2
     4     5     7    1
     5     7     8   ar
     6     8     9   ar
     7     9    10   ar
     8    10    11    1
     9    10    12   ar
    10    12    13    1
    11    13    14   am
    12    14    15    1
    13    14    16    2
    14    12    17   ar
    15     7    17   ar
    16     3    18    1
    17    18    19   ar
    18    19    20   ar
    19    20    21    1
    20    21    22   ar
    21    22    23   ar
    22    23    24   ar
    23    24    25   ar
    24    25    26   ar
    25    21    26   ar
    26    20    27   ar
    27    27    28   ar
    28    18    28   ar
    29     3     4    1
    30     3     2    1
    31     1    29    1
    32     1    30    1
    33     1    31    1
    34     2    32    1
    35     2    33    1
    36     3    34    1
    37     4    35    1
    38     8    36    1
    39     9    37    1
    40    11    38    1
    41    11    39    1
    42    11    40    1
    43    13    41    1
    44    15    42    1
    45    15    43    1
    46    15    44    1
    47    17    45    1
    48    22    46    1
    49    23    47    1
    50    24    48    1
    51    25    49    1
    52    26    50    1
    53    27    51    1
    54    28    52    1
