REMARK  6 active torsions:
REMARK  status: ('A' for Active; 'I' for Inactive)
REMARK    1  A    between atoms: C_5  and  C_6 
REMARK       I    between atoms: C_6  and  N_8 
REMARK    2  A    between atoms: N_8  and  C_9 
REMARK    3  A    between atoms: C_16  and  C_17 
REMARK       I    between atoms: C_17  and  N_19 
REMARK    4  A    between atoms: N_19  and  C_20 
REMARK    5  A    between atoms: C_22  and  C_23 
REMARK    6  A    between atoms: C_23  and  C_24 
REMARK       I    between atoms: C_24  and  N_25 
ROOT
ATOM      1  C   UNL d   1      -5.447   1.255  -0.143  0.00  0.00     0.174 A 
ATOM      2  N   UNL d   1      -6.213   2.097  -0.834  0.00  0.00    -0.227 NA
ATOM      3  C   UNL d   1      -7.533   1.783  -0.564  0.00  0.00     0.063 A 
ATOM      4  C   UNL d   1      -7.710   0.802   0.367  0.00  0.00     0.012 A 
ATOM      5  S   UNL d   1      -6.279   0.207   0.958  0.00  0.00    -0.054 SA
ATOM      6  C   UNL d   1      -9.107   0.474   0.670  0.00  0.00     0.049 C 
ATOM      7  C   UNL d   1      -9.825   1.130  -0.546  0.00  0.00     0.025 C 
ATOM      8  C   UNL d   1      -8.867   2.285  -1.056  0.00  0.00     0.131 C 
ENDROOT
BRANCH   8   9
ATOM      9  C   UNL d   1      -9.051   2.531  -2.540  0.00  0.00     0.233 C 
ATOM     10  O   UNL d   1     -10.110   2.983  -2.970  0.00  0.00    -0.272 OA
ATOM     11  N   UNL d   1      -8.000   2.129  -3.307  0.00  0.00    -0.305 N 
ATOM     12  H   UNL d   1      -7.381   1.413  -2.949  0.00  0.00     0.171 HD
BRANCH  11  13
ATOM     13  C   UNL d   1      -8.024   2.219  -4.656  0.00  0.00     0.173 A 
ATOM     14  N   UNL d   1      -8.410   3.160  -5.487  0.00  0.00    -0.228 NA
ATOM     15  C   UNL d   1      -8.123   2.761  -6.807  0.00  0.00     0.052 A 
ATOM     16  C   UNL d   1      -7.652   1.461  -6.834  0.00  0.00     0.081 A 
ATOM     17  S   UNL d   1      -7.372   0.803  -5.300  0.00  0.00    -0.062 SA
BRANCH  15  18
ATOM     18  C   UNL d   1      -8.360   3.756  -7.935  0.00  0.00     0.162 C 
BRANCH  18  19
ATOM     19  C   UNL d   1      -8.051   3.357  -9.383  0.00  0.00     0.221 C 
ATOM     20  N   UNL d   1      -7.578   2.135  -9.718  0.00  0.00    -0.370 N 
ATOM     21  H   UNL d   1      -7.311   1.416  -9.088  0.00  0.00     0.159 HD
ATOM     22  H   UNL d   1      -7.384   1.916 -10.684  0.00  0.00     0.159 HD
ATOM     23  O   UNL d   1      -8.228   4.152 -10.321  0.00  0.00    -0.273 OA
ENDBRANCH  18  19
ENDBRANCH  15  18
ENDBRANCH  11  13
ENDBRANCH   8   9
BRANCH   1  24
ATOM     24  N   UNL d   1      -4.063   1.238  -0.100  0.00  0.00    -0.301 N 
ATOM     25  C   UNL d   1      -3.360   0.035  -0.046  0.00  0.00     0.257 C 
ATOM     26  O   UNL d   1      -3.885  -1.079  -0.088  0.00  0.00    -0.267 OA
ATOM     27  H   UNL d   1      -3.614   2.104  -0.347  0.00  0.00     0.171 HD
BRANCH  25  28
ATOM     28  C   UNL d   1      -1.861   0.071  -0.010  0.00  0.00     0.032 A 
ATOM     29  C   UNL d   1      -1.159  -1.152   0.000  0.00  0.00     0.017 A 
ATOM     30  C   UNL d   1       0.241  -1.187   0.006  0.00  0.00     0.007 A 
ATOM     31  C   UNL d   1       0.971   0.003   0.003  0.00  0.00    -0.062 A 
ATOM     32  C   UNL d   1       2.473  -0.002  -0.013  0.00  0.00     0.048 C 
ATOM     33  C   UNL d   1       0.278   1.219   0.007  0.00  0.00     0.007 A 
ATOM     34  C   UNL d   1      -1.123   1.257   0.005  0.00  0.00     0.017 A 
ENDBRANCH  25  28
ENDBRANCH   1  24
TORSDOF 6
