REMARK  13 active torsions:
REMARK  status: ('A' for Active; 'I' for Inactive)
REMARK    1  A    between atoms: O_2  and  C_3 
REMARK    2  A    between atoms: C_8  and  O_9 
REMARK    3  A    between atoms: O_9  and  C_10 
REMARK    4  A    between atoms: C_11  and  C_12 
REMARK    5  A    between atoms: N_13  and  C_12 
REMARK    6  A    between atoms: N_13  and  C_23 
REMARK    7  A    between atoms: N_13  and  C_14 
REMARK    8  A    between atoms: C_15  and  C_14 
REMARK    9  A    between atoms: C_15  and  C_17 
REMARK   10  A    between atoms: C_15  and  O_16 
REMARK   11  A    between atoms: C_17  and  O_18 
REMARK   12  A    between atoms: O_18  and  C_19 
REMARK   13  A    between atoms: N_29  and  C_30 
ROOT
ATOM      1  C   UNL d   1       0.216  -2.386  -2.189  0.00  0.00     0.181 C 
ATOM      2  C   UNL d   1      -0.460  -1.156  -1.546  0.00  0.00     0.047 C 
ATOM      3  C   UNL d   1      -1.496  -0.831  -2.563  0.00  0.00     0.063 C 
ATOM      4  C   UNL d   1      -2.507   0.291  -2.732  0.00  0.00     0.073 C 
ATOM      5  N   UNL d   1      -1.425  -1.649  -3.622  0.00  0.00    -0.170 NA
ATOM      6  N   UNL d   1      -0.528  -2.612  -3.349  0.00  0.00    -0.210 N 
ENDROOT
BRANCH   2   7
ATOM      7  C   UNL d   1      -0.013  -0.083  -0.251  0.00  0.00     0.280 C 
BRANCH   7   8
ATOM      8  N   UNL d   1       1.327  -0.277   0.655  0.00  0.00    -0.060 N 
ATOM      9  H   UNL d   1       1.648   0.648   0.994  0.00  0.00     0.280 HD
BRANCH   8  10
ATOM     10  C   UNL d   1       0.924  -1.082   1.797  0.00  0.00     0.188 A 
ATOM     11  C   UNL d   1       0.186  -0.273   2.816  0.00  0.00     0.035 A 
ATOM     12  C   UNL d   1      -0.549  -1.319   2.019  0.00  0.00     0.035 A 
ENDBRANCH   8  10
BRANCH   8  13
ATOM     13  C   UNL d   1       2.572  -0.722  -0.047  0.00  0.00     0.269 C 
BRANCH  13  14
ATOM     14  C   UNL d   1       2.322  -0.506  -1.488  0.00  0.00     0.167 C 
BRANCH  14  15
ATOM     15  C   UNL d   1       1.874   0.726  -2.191  0.00  0.00     0.202 C 
BRANCH  15  16
ATOM     16  O   UNL d   1       0.726   1.446  -1.915  0.00  0.00    -0.379 OA
BRANCH  16  17
ATOM     17  C   UNL d   1       0.473   2.637  -2.628  0.00  0.00     0.050 C 
ATOM     18  C   UNL d   1       1.821   3.281  -2.841  0.00  0.00     0.045 C 
ATOM     19  C   UNL d   1      -0.203   2.342  -3.958  0.00  0.00     0.045 C 
ATOM     20  C   UNL d   1      -0.431   3.372  -1.637  0.00  0.00     0.045 C 
ENDBRANCH  16  17
ENDBRANCH  15  16
ENDBRANCH  14  15
BRANCH  14  21
ATOM     21  O   UNL d   1       3.291  -1.092  -2.190  0.00  0.00    -0.392 OA
ATOM     22  H   UNL d   1       3.993  -0.486  -2.577  0.00  0.00     0.210 HD
ENDBRANCH  14  21
ENDBRANCH  13  14
ENDBRANCH   8  13
ENDBRANCH   7   8
ENDBRANCH   2   7
BRANCH   1  23
ATOM     23  O   UNL d   1       1.452  -3.130  -2.009  0.00  0.00    -0.288 OA
BRANCH  23  24
ATOM     24  C   UNL d   1       2.697  -3.246  -2.887  0.00  0.00     0.111 A 
ATOM     25  C   UNL d   1       3.926  -3.641  -2.190  0.00  0.00     0.040 A 
ATOM     26  C   UNL d   1       5.252  -3.449  -2.747  0.00  0.00     0.003 A 
ATOM     27  C   UNL d   1       5.430  -2.848  -3.985  0.00  0.00     0.003 A 
ATOM     28  C   UNL d   1       4.301  -2.402  -4.645  0.00  0.00     0.039 A 
ATOM     29  C   UNL d   1       2.969  -2.634  -4.163  0.00  0.00     0.102 A 
BRANCH  29  30
ATOM     30  O   UNL d   1       2.116  -2.111  -5.093  0.00  0.00    -0.353 OA
ATOM     31  C   UNL d   1       1.539  -0.899  -4.712  0.00  0.00     0.210 C 
ENDBRANCH  29  30
ENDBRANCH  23  24
ENDBRANCH   1  23
BRANCH   6  32
ATOM     32  C   UNL d   1      -0.240  -3.655  -4.260  0.00  0.00     0.061 A 
ATOM     33  C   UNL d   1      -0.022  -3.452  -5.636  0.00  0.00     0.031 A 
ATOM     34  C   UNL d   1       0.378  -4.522  -6.433  0.00  0.00     0.002 A 
ATOM     35  C   UNL d   1       0.457  -5.795  -5.876  0.00  0.00     0.000 A 
ATOM     36  C   UNL d   1       0.254  -5.986  -4.511  0.00  0.00     0.002 A 
ATOM     37  C   UNL d   1      -0.042  -4.911  -3.697  0.00  0.00     0.031 A 
ENDBRANCH   6  32
TORSDOF 13
