REMARK  8 active torsions:
REMARK  status: ('A' for Active; 'I' for Inactive)
REMARK    1  A    between atoms: C_5  and  C_6 
REMARK       I    between atoms: C_6  and  N_8 
REMARK    2  A    between atoms: N_8  and  N_9 
REMARK       I    between atoms: N_9  and  C_10 
REMARK    3  A    between atoms: C_10  and  C_12 
REMARK    4  A    between atoms: C_12  and  O_14 
REMARK    5  A    between atoms: O_14  and  C_15 
REMARK    6  A    between atoms: C_15  and  C_16 
REMARK    7  A    between atoms: C_16  and  C_17 
REMARK    8  A    between atoms: C_20  and  O_21 
ROOT
ATOM      1  C   UNL d   1      -2.421  -2.012  -0.058  0.00  0.00     0.272 C 
ATOM      2  O   UNL d   1      -3.507  -1.419  -0.071  0.00  0.00    -0.266 OA
ATOM      3  N   UNL d   1      -2.341  -3.398  -0.077  0.00  0.00    -0.263 N 
ATOM      4  H   UNL d   1      -1.477  -3.936  -0.071  0.00  0.00     0.190 HD
ENDROOT
BRANCH   3   5
ATOM      5  N   UNL d   1      -3.519  -4.186  -0.109  0.00  0.00    -0.265 N 
ATOM      6  C   UNL d   1      -3.384  -5.571  -0.144  0.00  0.00     0.264 C 
ATOM      7  O   UNL d   1      -2.265  -6.092  -0.107  0.00  0.00    -0.269 OA
ATOM      8  H   UNL d   1      -4.406  -3.686  -0.132  0.00  0.00     0.190 HD
BRANCH   6   9
ATOM      9  C   UNL d   1      -4.711  -6.384  -0.207  0.00  0.00     0.210 C 
ATOM     10  C   UNL d   1      -5.505  -5.993  -1.458  0.00  0.00     0.050 C 
BRANCH   9  11
ATOM     11  O   UNL d   1      -4.439  -7.798  -0.192  0.00  0.00    -0.377 OA
BRANCH  11  12
ATOM     12  C   UNL d   1      -5.619  -8.594  -0.201  0.00  0.00     0.169 C 
BRANCH  12  13
ATOM     13  C   UNL d   1      -5.301 -10.082  -0.233  0.00  0.00     0.030 C 
BRANCH  13  14
ATOM     14  C   UNL d   1      -6.595 -10.915  -0.314  0.00  0.00    -0.021 C 
ATOM     15  C   UNL d   1      -7.417 -10.588  -1.567  0.00  0.00     0.009 C 
ATOM     16  C   UNL d   1      -6.260 -12.403  -0.305  0.00  0.00     0.009 C 
ENDBRANCH  13  14
ENDBRANCH  12  13
ENDBRANCH  11  12
ENDBRANCH   9  11
ENDBRANCH   6   9
ENDBRANCH   3   5
BRANCH   1  17
ATOM     17  C   UNL d   1      -1.145  -1.210  -0.022  0.00  0.00     0.066 A 
ATOM     18  C   UNL d   1       0.119  -1.822  -0.000  0.00  0.00     0.020 A 
ATOM     19  C   UNL d   1       1.300  -1.056   0.018  0.00  0.00     0.008 A 
ATOM     20  C   UNL d   1       1.248   0.340   0.004  0.00  0.00    -0.059 A 
ATOM     21  C   UNL d   1       2.490   1.184  -0.001  0.00  0.00     0.048 C 
ATOM     22  C   UNL d   1      -0.004   0.959  -0.007  0.00  0.00     0.044 A 
ATOM     23  C   UNL d   1      -1.181   0.199  -0.013  0.00  0.00     0.082 A 
BRANCH  23  24
ATOM     24  O   UNL d   1      -2.338   0.936  -0.005  0.00  0.00    -0.360 OA
ATOM     25  H   UNL d   1      -3.098   0.316  -0.000  0.00  0.00     0.217 HD
ENDBRANCH  23  24
ENDBRANCH   1  17
TORSDOF 8
