@<TRIPOS>MOLECULE
*****
 53 57 0 0 0
SMALL
GASTEIGER

@<TRIPOS>ATOM
      1 O           0.9547    0.0805    0.0316 O.2     1  UNL1       -0.2666
      2 C           2.1873    0.0176    0.0744 C.2     1  UNL1        0.2845
      3 N           2.8674   -1.1407   -0.2842 N.am    1  UNL1       -0.3079
      4 C           2.1359   -2.3237   -0.7470 C.3     1  UNL1        0.0213
      5 C           3.0647   -3.4547   -1.1805 C.3     1  UNL1        0.0140
      6 S           2.2180   -4.9560   -1.7321 S.3     1  UNL1       -0.1210
      7 C           3.4670   -6.1563   -2.1242 C.ar    1  UNL1        0.0409
      8 C           4.7302   -6.0254   -2.6778 C.ar    1  UNL1        0.0611
      9 C           5.4731   -4.8658   -3.0987 C.ar    1  UNL1       -0.0006
     10 C           5.8349   -3.9316   -2.1424 C.ar    1  UNL1       -0.0526
     11 C           6.2370   -2.6844   -2.5574 C.ar    1  UNL1       -0.0611
     12 C           6.4829   -2.4431   -3.9100 C.ar    1  UNL1       -0.0617
     13 C           6.2193   -3.4071   -4.8651 C.ar    1  UNL1       -0.0611
     14 C           5.7017   -4.6244   -4.4582 C.ar    1  UNL1       -0.0526
     15 N           5.2421   -7.2854   -2.8789 N.ar    1  UNL1       -0.3533
     16 C           4.3234   -8.2396   -2.5280 C.ar    1  UNL1        0.0480
     17 C           4.3895   -9.6346   -2.6193 C.ar    1  UNL1       -0.0378
     18 C           3.2646  -10.3570   -2.2121 C.ar    1  UNL1       -0.0598
     19 C           2.1332   -9.7108   -1.7215 C.ar    1  UNL1       -0.0610
     20 C           2.0934   -8.3186   -1.6278 C.ar    1  UNL1       -0.0515
     21 C           3.2042   -7.5600   -2.0429 C.ar    1  UNL1        0.0137
     22 C           3.0058    1.2492    0.5618 C.2     1  UNL1        0.2492
     23 O           2.3866    2.2379    0.9716 O.2     1  UNL1       -0.2817
     24 C           4.4645    1.2604    0.5507 C.ar    1  UNL1        0.0519
     25 C           5.2934    1.7450    1.5470 C.ar    1  UNL1        0.0137
     26 N           6.5963    1.5490    1.1649 N.ar    1  UNL1       -0.3599
     27 C           6.6372    1.0628   -0.1207 C.ar    1  UNL1        0.0472
     28 C           7.7249    0.7598   -0.9470 C.ar    1  UNL1       -0.0378
     29 C           7.4328    0.4241   -2.2689 C.ar    1  UNL1       -0.0598
     30 C           6.1136    0.3991   -2.7274 C.ar    1  UNL1       -0.0611
     31 C           5.0465    0.5485   -1.8568 C.ar    1  UNL1       -0.0519
     32 C           5.3123    0.9237   -0.5370 C.ar    1  UNL1        0.0106
     33 H           3.8805   -1.1665   -0.2499 H       1  UNL1        0.1491
     34 H           1.5136   -2.0116   -1.5935 H       1  UNL1        0.0470
     35 H           1.4855   -2.6429    0.0718 H       1  UNL1        0.0470
     36 H           3.7344   -3.6944   -0.3485 H       1  UNL1        0.0395
     37 H           3.6166   -3.0533   -2.0268 H       1  UNL1        0.0395
     38 H           5.6711   -4.1132   -1.0842 H       1  UNL1        0.0624
     39 H           6.2884   -1.9156   -1.7966 H       1  UNL1        0.0618
     40 H           6.8817   -1.5011   -4.2588 H       1  UNL1        0.0618
     41 H           6.3803   -3.1805   -5.9140 H       1  UNL1        0.0618
     42 H           5.4439   -5.3657   -5.2067 H       1  UNL1        0.0624
     43 H           6.1506   -7.4755   -3.2808 H       1  UNL1        0.1659
     44 H           5.2685  -10.1436   -3.0026 H       1  UNL1        0.0638
     45 H           3.2697  -11.4418   -2.2828 H       1  UNL1        0.0618
     46 H           1.2658  -10.2861   -1.4117 H       1  UNL1        0.0618
     47 H           1.2069   -7.8182   -1.2512 H       1  UNL1        0.0624
     48 H           5.0602    2.2102    2.4960 H       1  UNL1        0.0814
     49 H           7.4118    1.7983    1.7098 H       1  UNL1        0.1654
     50 H           8.7528    0.8118   -0.6015 H       1  UNL1        0.0638
     51 H           8.2397    0.1311   -2.9390 H       1  UNL1        0.0618
     52 H           5.8702    0.1430   -3.7531 H       1  UNL1        0.0618
     53 H           4.0357    0.3794   -2.2178 H       1  UNL1        0.0624
@<TRIPOS>BOND
     1     1     2    2
     2     2     3   am
     3     3     4    1
     4     4     5    1
     5     5     6    1
     6     6     7    1
     7     7     8   ar
     8     8     9    1
     9     9    10   ar
    10    10    11   ar
    11    11    12   ar
    12    12    13   ar
    13    13    14   ar
    14     9    14   ar
    15     8    15   ar
    16    15    16   ar
    17    16    17   ar
    18    17    18   ar
    19    18    19   ar
    20    19    20   ar
    21    20    21   ar
    22     7    21   ar
    23    16    21   ar
    24     2    22    1
    25    22    23    2
    26    22    24    1
    27    24    25   ar
    28    25    26   ar
    29    26    27   ar
    30    27    28   ar
    31    28    29   ar
    32    29    30   ar
    33    30    31   ar
    34    31    32   ar
    35    24    32   ar
    36    27    32   ar
    37     3    33    1
    38     4    34    1
    39     4    35    1
    40     5    36    1
    41     5    37    1
    42    10    38    1
    43    11    39    1
    44    12    40    1
    45    13    41    1
    46    14    42    1
    47    15    43    1
    48    17    44    1
    49    18    45    1
    50    19    46    1
    51    20    47    1
    52    25    48    1
    53    26    49    1
    54    28    50    1
    55    29    51    1
    56    30    52    1
    57    31    53    1
