@<TRIPOS>MOLECULE
*****
 51 53 0 0 0
SMALL
GASTEIGER

@<TRIPOS>ATOM
      1 C           2.5100    1.0880    0.0083 C.3     1  UNL1       -0.0397
      2 C           1.2108    0.3385    0.0023 C.ar    1  UNL1       -0.0501
      3 C           1.2241   -1.0505    0.0064 C.ar    1  UNL1       -0.0571
      4 C           0.0285   -1.7608    0.0053 C.ar    1  UNL1       -0.0400
      5 C          -1.2280   -1.1269    0.0021 C.ar    1  UNL1        0.0357
      6 N          -2.4092   -1.9032    0.0415 N.pl3   1  UNL1       -0.2935
      7 C          -2.4290   -3.2563    0.0815 C.ar    1  UNL1        0.1631
      8 N          -1.8626   -3.9805    1.0257 N.ar    1  UNL1       -0.2200
      9 C          -2.0179   -5.3373    0.7652 C.ar    1  UNL1        0.1346
     10 C          -1.5114   -6.3780    1.6636 C.2     1  UNL1        0.2630
     11 O          -1.6537   -7.5738    1.4190 O.2     1  UNL1       -0.2685
     12 N          -0.8701   -5.9223    2.8033 N.am    1  UNL1       -0.3098
     13 C          -0.3375   -6.8816    3.7418 C.3     1  UNL1        0.0159
     14 C           0.3727   -6.3006    4.9712 C.3     1  UNL1       -0.0120
     15 C           0.8082   -7.3639    5.9698 C.ar    1  UNL1       -0.0458
     16 C           0.7238   -8.7348    5.6739 C.ar    1  UNL1       -0.0567
     17 C           0.8973   -9.6987    6.6614 C.ar    1  UNL1       -0.0351
     18 C           1.2938   -9.3064    7.9363 C.ar    1  UNL1        0.1050
     19 S           1.7195  -10.5602    9.1143 S.O2    1  UNL1        0.0559
     20 N           0.2746  -11.3695    9.3026 N.3     1  UNL1       -0.2035
     21 O           2.6339  -11.4724    8.4552 O.2     1  UNL1       -0.1533
     22 O           2.0136   -9.9290   10.3722 O.2     1  UNL1       -0.1533
     23 C           1.4640   -7.9536    8.2414 C.ar    1  UNL1       -0.0351
     24 C           1.2237   -6.9858    7.2570 C.ar    1  UNL1       -0.0567
     25 C          -2.6865   -5.6152   -0.4134 C.ar    1  UNL1        0.0094
     26 S          -3.2045   -4.1667   -1.1615 S.2     1  UNL1       -0.0598
     27 C          -1.2521    0.2843    0.0047 C.ar    1  UNL1       -0.0290
     28 C          -2.5294    1.0855    0.0001 C.3     1  UNL1       -0.0379
     29 C          -0.0271    0.9996   -0.0030 C.ar    1  UNL1       -0.0542
     30 H           3.3625    0.3975    0.0029 H       1  UNL1        0.0278
     31 H           2.5920    1.7024    0.9095 H       1  UNL1        0.0278
     32 H           2.5944    1.7195   -0.8807 H       1  UNL1        0.0278
     33 H           2.1592   -1.6042    0.0091 H       1  UNL1        0.0621
     34 H           0.1012   -2.8444   -0.0057 H       1  UNL1        0.0636
     35 H          -3.2696   -1.4299   -0.1853 H       1  UNL1        0.1541
     36 H          -0.7877   -4.9200    2.9422 H       1  UNL1        0.1491
     37 H           0.3544   -7.5208    3.1794 H       1  UNL1        0.0465
     38 H          -1.1766   -7.5143    4.0642 H       1  UNL1        0.0465
     39 H          -0.3318   -5.6347    5.4873 H       1  UNL1        0.0328
     40 H           1.2312   -5.6921    4.6637 H       1  UNL1        0.0328
     41 H           0.5040   -9.0898    4.6703 H       1  UNL1        0.0621
     42 H           0.7304  -10.7439    6.4153 H       1  UNL1        0.0637
     43 H           0.0134  -12.0086    8.5593 H       1  UNL1        0.1442
     44 H          -0.4331  -10.8977    9.8563 H       1  UNL1        0.1442
     45 H           1.7788   -7.6450    9.2359 H       1  UNL1        0.0637
     46 H           1.3560   -5.9338    7.5060 H       1  UNL1        0.0621
     47 H          -2.9046   -6.5864   -0.8365 H       1  UNL1        0.0717
     48 H          -3.4282    0.4669    0.0318 H       1  UNL1        0.0278
     49 H          -2.5938    1.6908   -0.9104 H       1  UNL1        0.0278
     50 H          -2.5721    1.7407    0.8760 H       1  UNL1        0.0278
     51 H          -0.0402    2.0895   -0.0122 H       1  UNL1        0.0623
@<TRIPOS>BOND
     1     1     2    1
     2     2     3   ar
     3     3     4   ar
     4     4     5   ar
     5     5     6    1
     6     6     7    1
     7     7     8   ar
     8     8     9   ar
     9     9    10    1
    10    10    11    2
    11    10    12   am
    12    12    13    1
    13    13    14    1
    14    14    15    1
    15    15    16   ar
    16    16    17   ar
    17    17    18   ar
    18    18    19    1
    19    19    20    1
    20    19    21    2
    21    19    22    2
    22    18    23   ar
    23    23    24   ar
    24    15    24   ar
    25     9    25   ar
    26    25    26   ar
    27     7    26   ar
    28     5    27   ar
    29    27    28    1
    30    27    29   ar
    31     2    29   ar
    32     1    30    1
    33     1    31    1
    34     1    32    1
    35     3    33    1
    36     4    34    1
    37     6    35    1
    38    12    36    1
    39    13    37    1
    40    13    38    1
    41    14    39    1
    42    14    40    1
    43    16    41    1
    44    17    42    1
    45    20    43    1
    46    20    44    1
    47    23    45    1
    48    24    46    1
    49    25    47    1
    50    28    48    1
    51    28    49    1
    52    28    50    1
    53    29    51    1
