REMARK  10 active torsions:
REMARK  status: ('A' for Active; 'I' for Inactive)
REMARK       I    between atoms: C_2  and  N_3 
REMARK       I    between atoms: C_2  and  N_12 
REMARK    1  A    between atoms: N_3  and  C_4 
REMARK    2  A    between atoms: C_4  and  C_5 
REMARK    3  A    between atoms: C_5  and  C_6 
REMARK    4  A    between atoms: C_6  and  N_7 
REMARK    5  A    between atoms: N_12  and  N_13 
REMARK       I    between atoms: N_13  and  C_14 
REMARK    6  A    between atoms: C_14  and  C_16 
REMARK    7  A    between atoms: C_19  and  C_20 
REMARK    8  A    between atoms: C_20  and  O_21 
REMARK    9  A    between atoms: O_21  and  C_22 
REMARK   10  A    between atoms: C_22  and  C_23 
ROOT
ATOM      1  N   UNL d   1       4.429  -0.062   1.281  0.00  0.00    -0.262 N 
ATOM      2  C   UNL d   1       5.030  -0.268   2.518  0.00  0.00     0.270 C 
ATOM      3  O   UNL d   1       4.401  -0.457   3.560  0.00  0.00    -0.266 OA
ATOM      4  H   UNL d   1       4.984  -0.017   0.443  0.00  0.00     0.190 HD
ENDROOT
BRANCH   1   5
ATOM      5  N   UNL d   1       3.023  -0.074   1.191  0.00  0.00    -0.249 N 
ATOM      6  C   UNL d   1       2.268   0.061   0.050  0.00  0.00     0.334 C 
ATOM      7  O   UNL d   1       1.040   0.056   0.091  0.00  0.00    -0.246 OA
ATOM      8  N   UNL d   1       2.950   0.201  -1.134  0.00  0.00    -0.342 N 
ATOM      9  H   UNL d   1       3.951   0.184  -1.112  0.00  0.00     0.164 HD
ATOM     10  H   UNL d   1       2.518  -0.171   2.075  0.00  0.00     0.192 HD
BRANCH   8  11
ATOM     11  C   UNL d   1       2.246   0.338  -2.401  0.00  0.00     0.126 C 
BRANCH  11  12
ATOM     12  C   UNL d   1       3.203   0.472  -3.585  0.00  0.00     0.040 C 
BRANCH  12  13
ATOM     13  C   UNL d   1       2.463   0.620  -4.913  0.00  0.00     0.130 C 
BRANCH  13  14
ATOM     14  N   UNL d   1       3.410   0.734  -6.037  0.00  0.00    -0.352 N 
ATOM     15  C   UNL d   1       4.015  -0.327  -6.705  0.00  0.00     0.108 A 
ATOM     16  C   UNL d   1       4.811   0.215  -7.675  0.00  0.00     0.106 A 
ATOM     17  N   UNL d   1       4.663   1.578  -7.575  0.00  0.00    -0.361 N 
ATOM     18  C   UNL d   1       3.812   1.890  -6.593  0.00  0.00     0.182 A 
ATOM     19  H   UNL d   1       5.127   2.264  -8.168  0.00  0.00     0.166 HD
ENDBRANCH  13  14
ENDBRANCH  12  13
ENDBRANCH  11  12
ENDBRANCH   8  11
ENDBRANCH   1   5
BRANCH   2  20
ATOM     20  C   UNL d   1       6.524  -0.236   2.541  0.00  0.00     0.033 A 
ATOM     21  C   UNL d   1       7.242  -1.104   3.376  0.00  0.00     0.017 A 
ATOM     22  C   UNL d   1       8.637  -0.991   3.488  0.00  0.00     0.010 A 
ATOM     23  C   UNL d   1       9.342  -0.056   2.717  0.00  0.00    -0.035 A 
ATOM     24  C   UNL d   1       8.611   0.817   1.896  0.00  0.00     0.010 A 
ATOM     25  C   UNL d   1       7.217   0.732   1.809  0.00  0.00     0.017 A 
BRANCH  23  26
ATOM     26  C   UNL d   1      10.854  -0.044   2.758  0.00  0.00     0.206 C 
BRANCH  26  27
ATOM     27  O   UNL d   1      11.359   0.931   1.850  0.00  0.00    -0.378 OA
BRANCH  27  28
ATOM     28  C   UNL d   1      12.790   0.954   1.811  0.00  0.00     0.285 C 
BRANCH  28  29
ATOM     29  C   UNL d   1      13.285   2.018   0.841  0.00  0.00     0.408 C 
ATOM     30  F   UNL d   1      12.851   1.780  -0.418  0.00  0.00    -0.169 F 
ATOM     31  F   UNL d   1      12.866   3.252   1.199  0.00  0.00    -0.169 F 
ATOM     32  F   UNL d   1      14.637   2.039   0.807  0.00  0.00    -0.169 F 
ENDBRANCH  28  29
ENDBRANCH  27  28
ENDBRANCH  26  27
ENDBRANCH  23  26
ENDBRANCH   2  20
TORSDOF 10
