REMARK  7 active torsions:
REMARK  status: ('A' for Active; 'I' for Inactive)
REMARK       I    between atoms: C_2  and  N_3 
REMARK       I    between atoms: C_2  and  N_12 
REMARK    1  A    between atoms: N_3  and  C_4 
REMARK    2  A    between atoms: C_4  and  C_5 
REMARK    3  A    between atoms: C_5  and  C_6 
REMARK    4  A    between atoms: C_6  and  N_7 
REMARK    5  A    between atoms: N_12  and  N_13 
REMARK       I    between atoms: N_13  and  C_14 
REMARK    6  A    between atoms: C_14  and  C_16 
REMARK    7  A    between atoms: C_20  and  N_21 
ROOT
ATOM      1  N   UNL d   1       4.369   0.836  -1.117  0.00  0.00    -0.261 N 
ATOM      2  C   UNL d   1       4.965   1.660  -2.111  0.00  0.00     0.277 C 
ATOM      3  O   UNL d   1       4.269   2.247  -2.971  0.00  0.00    -0.265 OA
ATOM      4  H   UNL d   1       4.942   0.316  -0.463  0.00  0.00     0.190 HD
ENDROOT
BRANCH   1   5
ATOM      5  N   UNL d   1       2.973   0.675  -1.033  0.00  0.00    -0.249 N 
ATOM      6  C   UNL d   1       2.249  -0.001  -0.073  0.00  0.00     0.334 C 
ATOM      7  O   UNL d   1       1.020   0.008  -0.094  0.00  0.00    -0.246 OA
ATOM      8  N   UNL d   1       2.940  -0.679   0.904  0.00  0.00    -0.342 N 
ATOM      9  H   UNL d   1       3.941  -0.712   0.856  0.00  0.00     0.164 HD
ATOM     10  H   UNL d   1       2.434   1.180  -1.739  0.00  0.00     0.192 HD
BRANCH   8  11
ATOM     11  C   UNL d   1       2.237  -1.444   1.938  0.00  0.00     0.126 C 
BRANCH  11  12
ATOM     12  C   UNL d   1       3.193  -2.139   2.912  0.00  0.00     0.040 C 
BRANCH  12  13
ATOM     13  C   UNL d   1       2.447  -2.910   4.001  0.00  0.00     0.130 C 
BRANCH  13  14
ATOM     14  N   UNL d   1       3.371  -3.599   4.925  0.00  0.00    -0.352 N 
ATOM     15  C   UNL d   1       3.402  -4.971   5.164  0.00  0.00     0.108 A 
ATOM     16  C   UNL d   1       4.364  -5.192   6.108  0.00  0.00     0.106 A 
ATOM     17  N   UNL d   1       4.890  -3.959   6.415  0.00  0.00    -0.361 N 
ATOM     18  C   UNL d   1       4.284  -3.000   5.708  0.00  0.00     0.182 A 
ATOM     19  H   UNL d   1       5.630  -3.791   7.093  0.00  0.00     0.166 HD
ENDBRANCH  13  14
ENDBRANCH  12  13
ENDBRANCH  11  12
ENDBRANCH   8  11
ENDBRANCH   1   5
BRANCH   2  20
ATOM     20  C   UNL d   1       6.421   1.662  -2.070  0.00  0.00     0.075 C 
ATOM     21  C   UNL d   1       7.084   0.531  -1.682  0.00  0.00     0.034 C 
ATOM     22  C   UNL d   1       8.411   0.753  -1.279  0.00  0.00    -0.028 C 
ATOM     23  C   UNL d   1       9.403  -0.082  -0.689  0.00  0.00     0.091 C 
ATOM     24  C   UNL d   1       8.876   1.562  -2.326  0.00  0.00     0.013 C 
ATOM     25  C   UNL d   1       9.696  -1.009  -1.636  0.00  0.00     0.090 C 
ATOM     26  C   UNL d   1      10.386  -0.317  -2.643  0.00  0.00     0.034 C 
ATOM     27  C   UNL d   1      10.136   1.161  -2.816  0.00  0.00     0.021 C 
ATOM     28  S   UNL d   1       7.632   2.780  -2.603  0.00  0.00    -0.084 SA
BRANCH  25  29
ATOM     29  N   UNL d   1       8.796  -2.219  -1.693  0.00  0.00    -0.119 N 
ATOM     30  O   UNL d   1       9.309  -3.325  -1.491  0.00  0.00    -0.532 OA
ATOM     31  O   UNL d   1       7.566  -2.077  -1.712  0.00  0.00    -0.532 OA
ENDBRANCH  25  29
ENDBRANCH   2  20
TORSDOF 7
