@<TRIPOS>MOLECULE
*****
 43 47 0 0 0
SMALL
GASTEIGER

@<TRIPOS>ATOM
      1 C           1.2358    5.8258   -0.7930 C.3     1  UNL1       -0.0045
      2 C           0.0711    5.2999   -0.0207 C.ar    1  UNL1        0.1263
      3 O          -0.5833    6.2358    0.7318 O.2     1  UNL1       -0.4402
      4 C          -1.5120    5.5271    1.4375 C.ar    1  UNL1        0.2277
      5 C          -2.3972    6.3023    2.2735 C.ar    1  UNL1        0.0369
      6 C          -3.1737    7.3119    1.6962 C.ar    1  UNL1       -0.0495
      7 C          -4.0137    8.0878    2.4892 C.ar    1  UNL1       -0.0610
      8 C          -4.1247    7.8197    3.8526 C.ar    1  UNL1       -0.0617
      9 C          -3.3747    6.7957    4.4314 C.ar    1  UNL1       -0.0610
     10 C          -2.5082    6.0375    3.6438 C.ar    1  UNL1       -0.0495
     11 N          -1.4423    4.2274    1.2792 N.ar    1  UNL1       -0.2131
     12 C          -0.4576    4.0448    0.3311 C.ar    1  UNL1        0.0906
     13 C           0.0722    2.6294    0.1950 C.3     1  UNL1        0.0397
     14 C          -0.5337    1.7321   -0.8750 C.3     1  UNL1        0.0367
     15 C           0.4189    1.2843   -1.9490 C.2     1  UNL1        0.2181
     16 O           0.0082    0.5504   -2.8918 O.2     1  UNL1       -0.2754
     17 N           1.7493    1.5911   -1.8708 N.am    1  UNL1       -0.2851
     18 C           2.3495    2.2505   -0.7820 C.ar    1  UNL1        0.0394
     19 C           3.7362    2.4302   -0.5898 C.ar    1  UNL1       -0.0086
     20 C           4.2510    3.1398    0.5493 C.ar    1  UNL1        0.1407
     21 C           3.5192    4.2421    0.8037 C.ar    1  UNL1        0.0503
     22 C           2.1777    3.7800    1.0066 C.ar    1  UNL1       -0.0447
     23 C           1.5571    2.8259    0.1616 C.ar    1  UNL1       -0.0161
     24 C           4.2619    5.0316    1.8548 C.3     1  UNL1        0.1956
     25 N           4.1339    3.9371    2.7972 N.2     1  UNL1       -0.1309
     26 N           4.3153    2.7057    2.0108 N.2     1  UNL1       -0.0045
     27 H           1.2847    6.9156   -0.7960 H       1  UNL1        0.0308
     28 H           1.2810    5.4040   -1.7956 H       1  UNL1        0.0308
     29 H           2.1986    5.6039   -0.3532 H       1  UNL1        0.0308
     30 H          -3.1428    7.4765    0.6206 H       1  UNL1        0.0625
     31 H          -4.5864    8.8950    2.0409 H       1  UNL1        0.0618
     32 H          -4.8103    8.4033    4.4620 H       1  UNL1        0.0618
     33 H          -3.4700    6.5888    5.4944 H       1  UNL1        0.0618
     34 H          -1.9305    5.2376    4.1005 H       1  UNL1        0.0625
     35 H          -0.1644    2.1269    1.1476 H       1  UNL1        0.0419
     36 H          -1.4389    2.1627   -1.3225 H       1  UNL1        0.0368
     37 H          -0.8631    0.7976   -0.3885 H       1  UNL1        0.0368
     38 H           2.2994    1.2189   -2.6392 H       1  UNL1        0.1548
     39 H           4.3333    2.4177   -1.5159 H       1  UNL1        0.0659
     40 H           1.5885    4.0838    1.8771 H       1  UNL1        0.0627
     41 H           3.8783    6.0392    2.0543 H       1  UNL1        0.1104
     42 H           5.3592    5.1046    1.8286 H       1  UNL1        0.1104
     43 H           3.5036    4.0354    3.6088 H       1  UNL1        0.4815
@<TRIPOS>UNITY_ATOM_ATTR
25 1
charge 1
@<TRIPOS>BOND
     1     1     2    1
     2     2     3   ar
     3     3     4   ar
     4     4     5    1
     5     5     6   ar
     6     6     7   ar
     7     7     8   ar
     8     8     9   ar
     9     9    10   ar
    10     5    10   ar
    11     4    11   ar
    12    11    12   ar
    13     2    12   ar
    14    13    14    1
    15    14    15    1
    16    15    16    2
    17    15    17   am
    18    17    18    1
    19    18    19   ar
    20    19    20   ar
    21    20    21   ar
    22    21    22   ar
    23    22    23   ar
    24    18    23   ar
    25    13    23    1
    26    21    24    1
    27    24    25    1
    28    25    26    2
    29    20    26    1
    30    13    12    1
    31     1    27    1
    32     1    28    1
    33     1    29    1
    34     6    30    1
    35     7    31    1
    36     8    32    1
    37     9    33    1
    38    10    34    1
    39    13    35    1
    40    14    36    1
    41    14    37    1
    42    17    38    1
    43    19    39    1
    44    22    40    1
    45    24    41    1
    46    24    42    1
    47    25    43    1
