@<TRIPOS>MOLECULE
*****
 31 32 0 0 0
SMALL
GASTEIGER

@<TRIPOS>ATOM
      1 O           1.1203    0.0192    0.0069 O.2     1  UNL1       -0.2687
      2 C           2.3506   -0.0192    0.0559 C.2     1  UNL1        0.2603
      3 N           3.0700    0.4431    1.1485 N.am    1  UNL1       -0.2301
      4 N           2.3809    1.0243    2.2537 N.am    1  UNL1       -0.2301
      5 C           3.1319    1.5644    3.2908 C.2     1  UNL1        0.2616
      6 O           4.3625    1.5165    3.2868 O.2     1  UNL1       -0.2686
      7 C           2.4068    2.1840    4.4495 C.ar    1  UNL1        0.0565
      8 C           1.3005    1.5293    5.0211 C.ar    1  UNL1       -0.0468
      9 C           0.6878    2.0370    6.1806 C.ar    1  UNL1       -0.0426
     10 C           1.1693    3.2005    6.7769 C.ar    1  UNL1        0.0424
     11 CL          0.4231    3.8105    8.2036 Cl      1  UNL1       -0.0835
     12 C           2.2553    3.8679    6.2223 C.ar    1  UNL1       -0.0243
     13 C           2.8747    3.3627    5.0658 C.ar    1  UNL1        0.0545
     14 CL          4.1885    4.2972    4.4391 Cl      1  UNL1       -0.0827
     15 C           3.1329   -0.5444   -1.1092 C.ar    1  UNL1        0.0416
     16 C           2.6902   -0.2679   -2.4139 C.ar    1  UNL1       -0.0494
     17 C           3.4087   -0.7305   -3.5267 C.ar    1  UNL1       -0.0576
     18 C           4.5656   -1.4900   -3.3480 C.ar    1  UNL1       -0.0201
     19 C           4.9834   -1.7892   -2.0536 C.ar    1  UNL1        0.1176
     20 O           6.1026   -2.5368   -1.8237 O.3     1  UNL1       -0.5067
     21 C           4.2764   -1.3324   -0.9372 C.ar    1  UNL1       -0.0080
     22 H           4.0861    0.5357    1.1568 H       1  UNL1        0.1731
     23 H           1.3663    1.0680    2.1784 H       1  UNL1        0.1731
     24 H           0.9260    0.5970    4.6054 H       1  UNL1        0.0626
     25 H          -0.1542    1.5114    6.6282 H       1  UNL1        0.0632
     26 H           2.6247    4.7787    6.6910 H       1  UNL1        0.0647
     27 H           1.7867    0.3180   -2.5723 H       1  UNL1        0.0625
     28 H           3.0658   -0.4945   -4.5328 H       1  UNL1        0.0619
     29 H           5.1144   -1.8397   -4.2192 H       1  UNL1        0.0654
     30 H           6.5286   -2.7527   -2.6704 H       1  UNL1        0.2921
     31 H           4.6160   -1.6226    0.0518 H       1  UNL1        0.0661
@<TRIPOS>BOND
     1     1     2    2
     2     2     3   am
     3     3     4    1
     4     4     5   am
     5     5     6    2
     6     5     7    1
     7     7     8   ar
     8     8     9   ar
     9     9    10   ar
    10    10    11    1
    11    10    12   ar
    12    12    13   ar
    13     7    13   ar
    14    13    14    1
    15     2    15    1
    16    15    16   ar
    17    16    17   ar
    18    17    18   ar
    19    18    19   ar
    20    19    20    1
    21    19    21   ar
    22    15    21   ar
    23     3    22    1
    24     4    23    1
    25     8    24    1
    26     9    25    1
    27    12    26    1
    28    16    27    1
    29    17    28    1
    30    18    29    1
    31    20    30    1
    32    21    31    1
