@<TRIPOS>MOLECULE
*****
 55 56 0 0 0
SMALL
GASTEIGER

@<TRIPOS>ATOM
      1 C           0.9700   -0.0948   -0.0369 C.3     1  UNL1       -0.0653
      2 C           2.4900   -0.0760   -0.0410 C.3     1  UNL1       -0.0559
      3 C           3.0235    1.3265   -0.3494 C.3     1  UNL1       -0.0529
      4 C           4.5537    1.3483   -0.3542 C.3     1  UNL1       -0.0448
      5 C           5.1352    2.7390   -0.6599 C.3     1  UNL1        0.0254
      6 C           6.6658    2.7191   -0.6550 C.2     1  UNL1        0.2291
      7 O           7.3199    1.6987   -0.4319 O.2     1  UNL1       -0.2743
      8 N           7.2836    3.9311   -0.9180 N.am    1  UNL1       -0.2342
      9 N           8.7036    3.9798   -0.9353 N.am    1  UNL1       -0.2304
     10 C           9.3564    5.1891   -1.1233 C.2     1  UNL1        0.2601
     11 O           8.7583    6.2554   -1.2909 O.2     1  UNL1       -0.2687
     12 C          10.8524    5.1666   -1.1537 C.ar    1  UNL1        0.0383
     13 C          11.6208    6.2189   -0.6245 C.ar    1  UNL1       -0.0478
     14 C          13.0278    6.2522   -0.7947 C.ar    1  UNL1       -0.0398
     15 C          13.6883    5.2028   -1.4510 C.ar    1  UNL1        0.0334
     16 N          15.1123    5.1747   -1.5271 N.am    1  UNL1       -0.2853
     17 C          15.8653    4.1302   -2.0585 C.2     1  UNL1        0.2203
     18 O          15.3957    3.1313   -2.6071 O.2     1  UNL1       -0.2752
     19 C          17.3929    4.2054   -1.9677 C.3     1  UNL1        0.0359
     20 C          17.9589    5.4385   -1.2742 C.3     1  UNL1       -0.0419
     21 C          19.4789    5.3903   -1.1635 C.3     1  UNL1       -0.0524
     22 C          19.9478    4.1174   -0.4685 C.3     1  UNL1       -0.0530
     23 C          19.4311    2.8822   -1.1939 C.3     1  UNL1       -0.0524
     24 C          17.9100    2.9079   -1.3092 C.3     1  UNL1       -0.0419
     25 C          12.8984    4.1846   -1.9890 C.ar    1  UNL1       -0.0398
     26 C          11.5085    4.1536   -1.8424 C.ar    1  UNL1       -0.0478
     27 H           0.5995   -1.1006    0.1843 H       1  UNL1        0.0230
     28 H           0.5748    0.2075   -1.0119 H       1  UNL1        0.0230
     29 H           0.5748    0.5887    0.7213 H       1  UNL1        0.0230
     30 H           2.8573   -0.7908   -0.7872 H       1  UNL1        0.0263
     31 H           2.8573   -0.4118    0.9362 H       1  UNL1        0.0263
     32 H           2.6442    2.0318    0.3997 H       1  UNL1        0.0265
     33 H           2.6442    1.6525   -1.3253 H       1  UNL1        0.0265
     34 H           4.9191    0.6274   -1.0966 H       1  UNL1        0.0270
     35 H           4.9191    1.0053    0.6221 H       1  UNL1        0.0270
     36 H           4.7832    3.4549    0.0918 H       1  UNL1        0.0359
     37 H           4.7834    3.0735   -1.6428 H       1  UNL1        0.0359
     38 H           6.7929    4.8020   -1.1135 H       1  UNL1        0.1728
     39 H           9.1796    3.1024   -0.7229 H       1  UNL1        0.1731
     40 H          11.1282    7.0208   -0.0756 H       1  UNL1        0.0626
     41 H          13.5757    7.1143   -0.4160 H       1  UNL1        0.0636
     42 H          15.5923    5.9436   -1.0768 H       1  UNL1        0.1548
     43 H          17.7442    4.2121   -3.0107 H       1  UNL1        0.0394
     44 H          17.5353    5.5215   -0.2666 H       1  UNL1        0.0272
     45 H          17.6679    6.3379   -1.8290 H       1  UNL1        0.0272
     46 H          19.8269    6.2663   -0.6065 H       1  UNL1        0.0265
     47 H          19.9228    5.4445   -2.1652 H       1  UNL1        0.0265
     48 H          19.5893    4.1097    0.5685 H       1  UNL1        0.0265
     49 H          21.0421    4.0967   -0.4319 H       1  UNL1        0.0265
     50 H          19.7485    1.9779   -0.6619 H       1  UNL1        0.0265
     51 H          19.8730    2.8340   -2.1969 H       1  UNL1        0.0265
     52 H          17.4658    2.8027   -0.3107 H       1  UNL1        0.0272
     53 H          17.5872    2.0280   -1.8809 H       1  UNL1        0.0272
     54 H          13.3269    3.3767   -2.5674 H       1  UNL1        0.0636
     55 H          10.9687    3.3410   -2.3174 H       1  UNL1        0.0626
@<TRIPOS>BOND
     1     1     2    1
     2     2     3    1
     3     3     4    1
     4     4     5    1
     5     5     6    1
     6     6     7    2
     7     6     8   am
     8     8     9    1
     9     9    10   am
    10    10    11    2
    11    10    12    1
    12    12    13   ar
    13    13    14   ar
    14    14    15   ar
    15    15    16    1
    16    16    17   am
    17    17    18    2
    18    17    19    1
    19    19    20    1
    20    20    21    1
    21    21    22    1
    22    22    23    1
    23    23    24    1
    24    19    24    1
    25    15    25   ar
    26    25    26   ar
    27    12    26   ar
    28     1    27    1
    29     1    28    1
    30     1    29    1
    31     2    30    1
    32     2    31    1
    33     3    32    1
    34     3    33    1
    35     4    34    1
    36     4    35    1
    37     5    36    1
    38     5    37    1
    39     8    38    1
    40     9    39    1
    41    13    40    1
    42    14    41    1
    43    16    42    1
    44    19    43    1
    45    20    44    1
    46    20    45    1
    47    21    46    1
    48    21    47    1
    49    22    48    1
    50    22    49    1
    51    23    50    1
    52    23    51    1
    53    24    52    1
    54    24    53    1
    55    25    54    1
    56    26    55    1
