REMARK  7 active torsions:
REMARK  status: ('A' for Active; 'I' for Inactive)
REMARK    1  A    between atoms: C_2  and  O_3 
REMARK    2  A    between atoms: C_2  and  C_14 
REMARK    3  A    between atoms: O_3  and  C_4 
REMARK    4  A    between atoms: C_4  and  C_6 
REMARK       I    between atoms: C_14  and  N_16 
REMARK    5  A    between atoms: N_16  and  C_17 
REMARK    6  A    between atoms: C_20  and  S_21 
REMARK    7  A    between atoms: S_21  and  N_22 
ROOT
ATOM      1  C   UNL d   1       3.114   0.987  -1.058  0.00  0.00     0.251 C 
ATOM      2  O   UNL d   1       2.281   1.645  -1.690  0.00  0.00    -0.270 OA
ATOM      3  N   UNL d   1       4.488   1.153  -1.255  0.00  0.00    -0.325 N 
ATOM      4  H   UNL d   1       5.129   0.455  -0.899  0.00  0.00     0.169 HD
ENDROOT
BRANCH   1   5
ATOM      5  C   UNL d   1       2.639  -0.058   0.001  0.00  0.00     0.220 C 
ATOM      6  C   UNL d   1       1.101   0.007   0.027  0.00  0.00     0.050 C 
BRANCH   5   7
ATOM      7  O   UNL d   1       3.082  -1.395  -0.321  0.00  0.00    -0.302 OA
BRANCH   7   8
ATOM      8  C   UNL d   1       2.756  -2.390   0.560  0.00  0.00     0.314 C 
ATOM      9  O   UNL d   1       2.109  -2.254   1.587  0.00  0.00    -0.257 OA
BRANCH   8  10
ATOM     10  C   UNL d   1       3.309  -3.711   0.132  0.00  0.00     0.155 A 
ATOM     11  N   UNL d   1       2.459  -4.779   0.254  0.00  0.00    -0.229 NA
ATOM     12  C   UNL d   1       2.968  -5.998  -0.026  0.00  0.00     0.127 A 
ATOM     13 CL   UNL d   1       1.877  -7.313   0.132  0.00  0.00    -0.062 Cl
ATOM     14  C   UNL d   1       4.277  -6.226  -0.413  0.00  0.00     0.046 A 
ATOM     15  C   UNL d   1       5.126  -5.127  -0.517  0.00  0.00     0.030 A 
ATOM     16  C   UNL d   1       4.646  -3.845  -0.237  0.00  0.00     0.069 A 
ATOM     17 CL   UNL d   1       5.776  -2.543  -0.297  0.00  0.00    -0.082 Cl
ENDBRANCH   8  10
ENDBRANCH   7   8
ENDBRANCH   5   7
ENDBRANCH   1   5
BRANCH   3  18
ATOM     18  C   UNL d   1       4.978   2.141  -2.162  0.00  0.00     0.034 A 
ATOM     19  C   UNL d   1       6.022   1.883  -3.062  0.00  0.00     0.031 A 
ATOM     20  C   UNL d   1       6.432   2.876  -3.982  0.00  0.00     0.027 A 
ATOM     21  C   UNL d   1       5.779   4.116  -4.011  0.00  0.00     0.079 A 
ATOM     22  C   UNL d   1       4.786   4.399  -3.080  0.00  0.00     0.027 A 
ATOM     23  C   UNL d   1       4.398   3.417  -2.167  0.00  0.00     0.031 A 
BRANCH  21  24
ATOM     24  S   UNL d   1       6.094   5.291  -5.312  0.00  0.00     0.256 S 
ATOM     25  O   UNL d   1       5.996   4.585  -6.574  0.00  0.00    -0.201 OA
ATOM     26  O   UNL d   1       5.360   6.497  -5.034  0.00  0.00    -0.201 OA
BRANCH  24  27
ATOM     27  N   UNL d   1       7.700   5.650  -5.074  0.00  0.00    -0.324 N 
ATOM     28  H   UNL d   1       8.374   4.978  -5.421  0.00  0.00     0.169 HD
ATOM     29  H   UNL d   1       7.912   6.271  -4.300  0.00  0.00     0.169 HD
ENDBRANCH  24  27
ENDBRANCH  21  24
ENDBRANCH   3  18
TORSDOF 7
