@<TRIPOS>MOLECULE
*****
 31 30 0 0 0
SMALL
GASTEIGER

@<TRIPOS>ATOM
      1 C           1.0228    0.0450   -0.0816 C.3     1  UNL1       -0.0622
      2 C           2.5567    0.0514   -0.0434 C.3     1  UNL1       -0.0384
      3 C           2.9995    0.6966    1.2744 C.3     1  UNL1       -0.0622
      4 C           3.1470   -1.3708   -0.2065 C.3     1  UNL1        0.0277
      5 C           4.6806   -1.3762   -0.2642 C.2     1  UNL1        0.2293
      6 O           5.3651   -0.3497   -0.2642 O.2     1  UNL1       -0.2743
      7 N           5.2822   -2.6180   -0.3159 N.am    1  UNL1       -0.2344
      8 N           6.7008   -2.6718   -0.3380 N.am    1  UNL1       -0.2342
      9 C           7.3307   -3.8969   -0.4388 C.2     1  UNL1        0.2316
     10 O           6.6812   -4.9395   -0.5555 O.2     1  UNL1       -0.2740
     11 C           8.8701   -3.8703   -0.4289 C.3     1  UNL1        0.0314
     12 C           9.4263   -3.2680    0.8601 C.3     1  UNL1       -0.0543
     13 C           9.4369   -5.2868   -0.5923 C.3     1  UNL1       -0.0543
     14 H           0.6316    1.0666    0.0088 H       1  UNL1        0.0232
     15 H           0.6067   -0.5389    0.7468 H       1  UNL1        0.0232
     16 H           0.6432   -0.3707   -1.0196 H       1  UNL1        0.0232
     17 H           2.9090    0.6750   -0.8756 H       1  UNL1        0.0300
     18 H           2.6456    0.1137    2.1306 H       1  UNL1        0.0232
     19 H           2.6046    1.7140    1.3613 H       1  UNL1        0.0232
     20 H           4.0856    0.7743    1.3547 H       1  UNL1        0.0232
     21 H           2.7708   -1.8124   -1.1384 H       1  UNL1        0.0361
     22 H           2.8090   -2.0073    0.6205 H       1  UNL1        0.0361
     23 H           4.7878   -3.5050   -0.4013 H       1  UNL1        0.1728
     24 H           7.1830   -1.7765   -0.2581 H       1  UNL1        0.1728
     25 H           9.2077   -3.2673   -1.2819 H       1  UNL1        0.0389
     26 H           9.0931   -3.8406    1.7324 H       1  UNL1        0.0237
     27 H           9.1035   -2.2321    0.9947 H       1  UNL1        0.0237
     28 H          10.5234   -3.2752    0.8548 H       1  UNL1        0.0237
     29 H           9.1122   -5.9364    0.2291 H       1  UNL1        0.0237
     30 H          10.5332   -5.2822   -0.5989 H       1  UNL1        0.0237
     31 H           9.0989   -5.7427   -1.5286 H       1  UNL1        0.0237
@<TRIPOS>BOND
     1     1     2    1
     2     2     3    1
     3     2     4    1
     4     4     5    1
     5     5     6    2
     6     5     7   am
     7     7     8    1
     8     8     9   am
     9     9    10    2
    10     9    11    1
    11    11    12    1
    12    11    13    1
    13     1    14    1
    14     1    15    1
    15     1    16    1
    16     2    17    1
    17     3    18    1
    18     3    19    1
    19     3    20    1
    20     4    21    1
    21     4    22    1
    22     7    23    1
    23     8    24    1
    24    11    25    1
    25    12    26    1
    26    12    27    1
    27    12    28    1
    28    13    29    1
    29    13    30    1
    30    13    31    1
