REMARK  4 active torsions:
REMARK  status: ('A' for Active; 'I' for Inactive)
REMARK       I    between atoms: C_2  and  N_3 
REMARK    1  A    between atoms: C_2  and  C_18 
REMARK    2  A    between atoms: N_3  and  C_4 
REMARK    3  A    between atoms: C_4  and  C_5 
REMARK    4  A    between atoms: C_21  and  N_22 
ROOT
ATOM      1  C   UNL d   1       3.269  -1.859   3.234  0.00  0.00    -0.040 C 
ATOM      2  C   UNL d   1       4.022  -1.041   4.203  0.00  0.00     0.011 C 
ATOM      3  C   UNL d   1       4.930  -1.552   5.082  0.00  0.00     0.030 C 
ATOM      4  C   UNL d   1       5.181  -3.028   5.058  0.00  0.00     0.039 C 
ATOM      5  C   UNL d   1       4.239  -3.800   4.249  0.00  0.00    -0.005 C 
ATOM      6  C   UNL d   1       3.368  -3.189   3.292  0.00  0.00     0.023 C 
ATOM      7  C   UNL d   1       4.449  -5.051   4.559  0.00  0.00    -0.045 C 
ATOM      8  C   UNL d   1       3.849  -6.250   3.958  0.00  0.00     0.037 C 
ATOM      9  C   UNL d   1       4.393  -7.544   4.614  0.00  0.00     0.004 C 
ATOM     10  C   UNL d   1       5.605  -7.682   3.764  0.00  0.00     0.003 C 
ATOM     11  C   UNL d   1       6.537  -6.327   4.407  0.00  0.00     0.029 C 
ATOM     12  C   UNL d   1       5.663  -5.292   5.377  0.00  0.00     0.112 C 
ATOM     13  N   UNL d   1       6.016  -3.825   5.649  0.00  0.00    -0.381 N 
ATOM     14  H   UNL d   1       6.574  -3.490   6.440  0.00  0.00     0.160 HD
ENDROOT
BRANCH   1  15
ATOM     15  C   UNL d   1       2.295  -1.237   2.253  0.00  0.00     0.161 C 
BRANCH  15  16
ATOM     16  N   UNL d   1       2.996  -0.648   1.125  0.00  0.00    -0.353 N 
ATOM     17  C   UNL d   1       2.269  -0.037   0.117  0.00  0.00     0.251 C 
ATOM     18  O   UNL d   1       1.044   0.009   0.126  0.00  0.00    -0.268 OA
ATOM     19  H   UNL d   1       4.005  -0.626   1.112  0.00  0.00     0.163 HD
BRANCH  17  20
ATOM     20  C   UNL d   1       3.009   0.584  -1.025  0.00  0.00     0.032 A 
ATOM     21  C   UNL d   1       2.533   1.800  -1.546  0.00  0.00     0.019 A 
ATOM     22  C   UNL d   1       2.988   2.279  -2.784  0.00  0.00     0.037 A 
ATOM     23  C   UNL d   1       4.001   1.590  -3.458  0.00  0.00     0.102 A 
ATOM     24  C   UNL d   1       4.586   0.455  -2.874  0.00  0.00     0.037 A 
ATOM     25  C   UNL d   1       4.051  -0.078  -1.686  0.00  0.00     0.019 A 
BRANCH  23  26
ATOM     26  N   UNL d   1       4.412   2.021  -4.806  0.00  0.00    -0.116 N 
ATOM     27  O   UNL d   1       3.823   2.988  -5.308  0.00  0.00    -0.532 OA
ATOM     28  O   UNL d   1       5.312   1.377  -5.364  0.00  0.00    -0.532 OA
ENDBRANCH  23  26
ENDBRANCH  17  20
ENDBRANCH  15  16
ENDBRANCH   1  15
TORSDOF 4
