REMARK  6 active torsions:
REMARK  status: ('A' for Active; 'I' for Inactive)
REMARK    1  A    between atoms: C_4  and  C_5 
REMARK    2  A    between atoms: C_8  and  C_9 
REMARK    3  A    between atoms: C_9  and  C_10 
REMARK    4  A    between atoms: C_10  and  C_11 
REMARK       I    between atoms: C_11  and  N_13 
REMARK    5  A    between atoms: N_13  and  N_14 
REMARK       I    between atoms: N_14  and  C_15 
REMARK       I    between atoms: C_15  and  N_17 
REMARK    6  A    between atoms: N_17  and  C_18 
ROOT
ATOM      1  C   UNL d   1      -6.378   4.371  -3.699  0.00  0.00     0.236 C 
ATOM      2  O   UNL d   1      -7.532   4.577  -3.321  0.00  0.00    -0.272 OA
ATOM      3  N   UNL d   1      -5.892   4.897  -4.887  0.00  0.00    -0.266 N 
ATOM      4  H   UNL d   1      -4.941   4.760  -5.232  0.00  0.00     0.190 HD
ENDROOT
BRANCH   1   5
ATOM      5  C   UNL d   1      -5.393   3.519  -2.894  0.00  0.00     0.112 C 
BRANCH   5   6
ATOM      6  C   UNL d   1      -6.007   2.975  -1.588  0.00  0.00     0.098 C 
BRANCH   6   7
ATOM      7  C   UNL d   1      -5.029   2.151  -0.820  0.00  0.00     0.173 A 
ATOM      8  O   UNL d   1      -5.457   1.568   0.342  0.00  0.00    -0.196 OA
ATOM      9  N   UNL d   1      -4.373   0.828   0.840  0.00  0.00    -0.106 NA
ATOM     10  C   UNL d   1      -3.401   1.057  -0.058  0.00  0.00     0.189 A 
ATOM     11  N   UNL d   1      -3.773   1.882  -1.095  0.00  0.00    -0.204 NA
BRANCH  10  12
ATOM     12  C   UNL d   1      -2.058   0.501   0.011  0.00  0.00     0.015 A 
ATOM     13  C   UNL d   1      -0.948   1.363  -0.004  0.00  0.00     0.025 A 
ATOM     14  C   UNL d   1       0.360   0.853   0.001  0.00  0.00    -0.022 A 
ATOM     15  C   UNL d   1       1.552   1.761   0.009  0.00  0.00     0.051 C 
ATOM     16  C   UNL d   1       0.538  -0.531   0.003  0.00  0.00     0.122 A 
ATOM     17  C   UNL d   1      -0.550  -1.399   0.015  0.00  0.00     0.044 A 
ATOM     18  F   UNL d   1       1.778  -1.044  -0.006  0.00  0.00    -0.206 F 
ATOM     19  C   UNL d   1      -1.850  -0.885   0.031  0.00  0.00     0.018 A 
ENDBRANCH  10  12
ENDBRANCH   6   7
ENDBRANCH   5   6
ENDBRANCH   1   5
BRANCH   3  20
ATOM     20  N   UNL d   1      -6.757   5.657  -5.755  0.00  0.00    -0.249 N 
ATOM     21  C   UNL d   1      -6.174   6.309  -6.838  0.00  0.00     0.339 C 
ATOM     22  O   UNL d   1      -4.953   6.230  -7.000  0.00  0.00    -0.245 OA
ATOM     23  N   UNL d   1      -7.057   6.981  -7.679  0.00  0.00    -0.307 N 
ATOM     24  H   UNL d   1      -7.897   7.350  -7.254  0.00  0.00     0.170 HD
ATOM     25  H   UNL d   1      -7.683   5.864  -5.392  0.00  0.00     0.192 HD
BRANCH  23  26
ATOM     26  C   UNL d   1      -6.688   7.561  -8.942  0.00  0.00     0.042 A 
ATOM     27  C   UNL d   1      -7.157   8.850  -9.274  0.00  0.00     0.030 A 
ATOM     28  C   UNL d   1      -6.862   9.441 -10.519  0.00  0.00     0.002 A 
ATOM     29  C   UNL d   1      -6.126   8.743 -11.469  0.00  0.00     0.001 A 
ATOM     30  C   UNL d   1      -5.682   7.460 -11.170  0.00  0.00     0.009 A 
ATOM     31  C   UNL d   1      -5.955   6.857  -9.921  0.00  0.00    -0.035 A 
ATOM     32  C   UNL d   1      -5.521   5.431  -9.745  0.00  0.00     0.050 C 
ENDBRANCH  23  26
ENDBRANCH   3  20
TORSDOF 6
