REMARK  11 active torsions:
REMARK  status: ('A' for Active; 'I' for Inactive)
REMARK    1  A    between atoms: CA_4  and  CB_2 
REMARK    2  A    between atoms: CA_4  and  C_31 
REMARK    3  A    between atoms: CA_4  and  N_5 
REMARK       I    between atoms: N_5  and  C_6 
REMARK    4  A    between atoms: C_8  and  C_6 
REMARK    5  A    between atoms: C_8  and  N_19 
REMARK    6  A    between atoms: C_8  and  C_9 
REMARK    7  A    between atoms: C_9  and  C_10 
REMARK       I    between atoms: C_31  and  N_33 
REMARK    8  A    between atoms: CA_34  and  N_33 
REMARK    9  A    between atoms: CA_34  and  C_35 
REMARK   10  A    between atoms: CB_38  and  CA_34 
REMARK   11  A    between atoms: CB_38  and  OG1_40 
ROOT
ATOM      1  C   UNK d   0      -5.394   2.310  -4.506  0.00  0.00     0.194 C 
ENDROOT
BRANCH   1   2
ATOM      2  N   UNK d   0      -6.151   2.815  -3.364  0.00  0.00    -0.251 N 
ATOM      3  C   UNK d   0      -5.596   2.687  -2.098  0.00  0.00     0.330 C 
ATOM      4  O   UNK d   0      -4.476   2.229  -1.873  0.00  0.00    -0.246 OA
ATOM      5  N   UNK d   0      -6.371   3.097  -1.048  0.00  0.00    -0.307 N 
ATOM      6  C   UNK d   0      -7.622   3.687  -1.206  0.00  0.00     0.052 C 
ATOM      7  H   UNK d   0      -5.941   3.029  -0.134  0.00  0.00     0.170 HD
ATOM      8  C   UNK d   0      -8.310   4.203  -0.120  0.00  0.00     0.030 C 
ATOM      9  C   UNK d   0      -8.160   3.829  -2.475  0.00  0.00     0.059 C 
ATOM     10  C   UNK d   0      -9.448   4.981  -0.352  0.00  0.00     0.002 C 
ATOM     11  C   UNK d   0     -10.043   5.015  -1.615  0.00  0.00     0.001 C 
ATOM     12  C   UNK d   0      -9.420   4.388  -2.678  0.00  0.00     0.019 C 
ATOM     13  C   UNK d   0      -7.354   3.450  -3.619  0.00  0.00     0.264 C 
ATOM     14  O   UNK d   0      -7.818   3.706  -4.741  0.00  0.00    -0.267 OA
ENDBRANCH   1   2
BRANCH   1  15
ATOM     15  C   UNK d   0      -6.275   1.727  -5.609  0.00  0.00     0.076 C 
BRANCH  15  16
ATOM     16  C   UNK d   0      -5.877   0.382  -6.055  0.00  0.00    -0.028 A 
ATOM     17  C   UNK d   0      -4.809  -0.394  -5.668  0.00  0.00     0.096 A 
ATOM     18  N   UNK d   0      -4.925  -1.591  -6.310  0.00  0.00    -0.365 N 
ATOM     19  C   UNK d   0      -6.004  -1.570  -7.163  0.00  0.00     0.042 A 
ATOM     20  H   UNK d   0      -4.288  -2.363  -6.190  0.00  0.00     0.165 HD
ATOM     21  C   UNK d   0      -6.479  -2.528  -8.055  0.00  0.00     0.030 A 
ATOM     22  C   UNK d   0      -6.622  -0.336  -7.020  0.00  0.00    -0.002 A 
ATOM     23  C   UNK d   0      -7.597  -2.189  -8.829  0.00  0.00     0.002 A 
ATOM     24  C   UNK d   0      -8.236  -0.958  -8.694  0.00  0.00     0.001 A 
ATOM     25  C   UNK d   0      -7.766  -0.023  -7.778  0.00  0.00     0.014 A 
ENDBRANCH  15  16
ENDBRANCH   1  15
BRANCH   1  26
ATOM     26  C   UNK d   0      -4.528   3.360  -5.163  0.00  0.00     0.242 C 
ATOM     27  N   VAL d   1      -3.642   3.994  -4.336  0.00  0.00    -0.346 N 
ATOM     28  H   VAL d   1      -3.294   3.522  -3.507  0.00  0.00     0.163 HD
ATOM     29  O   UNK d   0      -4.515   3.551  -6.379  0.00  0.00    -0.271 OA
BRANCH  27  30
ATOM     30  CA  VAL d   1      -2.764   4.986  -4.949  0.00  0.00     0.180 C 
BRANCH  30  31
ATOM     31  C   VAL d   1      -3.688   6.085  -5.632  0.00  0.00     0.241 C 
ATOM     32  O   VAL d   1      -4.926   6.102  -5.510  0.00  0.00    -0.271 OA
ATOM     33  N   THR d   2      -3.184   7.095  -6.383  0.00  0.00    -0.343 N 
ATOM     34  H   THR d   2      -3.922   7.607  -6.853  0.00  0.00     0.163 HD
BRANCH  33  35
ATOM     35  CA  THR d   2      -1.817   7.693  -6.472  0.00  0.00     0.214 C 
BRANCH  35  36
ATOM     36  C   THR d   2      -0.825   7.582  -5.244  0.00  0.00     0.199 C 
ATOM     37  O   THR d   2       0.383   7.859  -5.489  0.00  0.00    -0.646 OA
ATOM     38  OXT THR d   2      -1.308   7.205  -4.141  0.00  0.00    -0.646 OA
ENDBRANCH  35  36
BRANCH  35  39
ATOM     39  CB  THR d   2      -1.339   7.556  -7.965  0.00  0.00     0.147 C 
ATOM     40  CG2 THR d   2       0.123   7.209  -8.283  0.00  0.00     0.042 C 
BRANCH  39  41
ATOM     41  OG1 THR d   2      -1.595   8.811  -8.625  0.00  0.00    -0.393 OA
ATOM     42  HG1 THR d   2      -1.031   9.444  -8.143  0.00  0.00     0.210 HD
ENDBRANCH  39  41
ENDBRANCH  35  39
ENDBRANCH  33  35
ENDBRANCH  30  31
BRANCH  30  43
ATOM     43  CB  VAL d   1      -1.706   4.268  -5.873  0.00  0.00     0.009 C 
ATOM     44  CG1 VAL d   1      -1.221   2.914  -5.384  0.00  0.00     0.012 C 
ATOM     45  CG2 VAL d   1      -0.374   4.949  -6.054  0.00  0.00     0.012 C 
ENDBRANCH  30  43
ENDBRANCH  27  30
ENDBRANCH   1  26
TORSDOF 11
