@<TRIPOS>MOLECULE
*****
 43 44 0 0 0
SMALL
GASTEIGER

@<TRIPOS>ATOM
      1 C           0.9468    0.0025    0.0691 C.3     1  UNL1       -0.0639
      2 C           2.4697    0.0220    0.0588 C.3     1  UNL1       -0.0402
      3 C           3.0052    1.1321   -0.8469 C.3     1  UNL1        0.0116
      4 N           4.4573    1.2062   -0.8473 N.am    1  UNL1       -0.3113
      5 C           5.1423    2.1247   -1.6269 C.2     1  UNL1        0.2455
      6 O           4.5868    2.9936   -2.2918 O.2     1  UNL1       -0.2702
      7 C           6.6357    2.0484   -1.6156 C.ar    1  UNL1        0.0551
      8 C           7.3971    3.2316   -1.5339 C.ar    1  UNL1       -0.0465
      9 C           8.8194    3.1955   -1.5130 C.ar    1  UNL1       -0.0397
     10 C           9.5064    1.9728   -1.5885 C.ar    1  UNL1        0.0352
     11 N          10.9384    1.9032   -1.5532 N.am    1  UNL1       -0.2777
     12 C          11.6895    0.7166   -1.6208 C.2     1  UNL1        0.3031
     13 O          11.2623   -0.4305   -1.7219 O.2     1  UNL1       -0.2648
     14 C          13.2322    0.8398   -1.5591 C.2     1  UNL1        0.2996
     15 O          13.7648    1.9384   -1.4459 O.2     1  UNL1       -0.2652
     16 N          13.8962   -0.3779   -1.6403 N.am    1  UNL1       -0.3030
     17 C          15.3357   -0.4914   -1.5836 C.3     1  UNL1        0.0434
     18 C          15.8653   -1.9020   -1.7019 C.ar    1  UNL1        0.0069
     19 C          17.1801   -2.2597   -1.9668 C.ar    1  UNL1       -0.0500
     20 C          17.3842   -3.6702   -2.0032 C.ar    1  UNL1       -0.0544
     21 C          16.2190   -4.3585   -1.7581 C.ar    1  UNL1       -0.0240
     22 S          14.9007   -3.3030   -1.4691 S.2     1  UNL1       -0.1000
     23 C           8.7233    0.8201   -1.7051 C.ar    1  UNL1       -0.0214
     24 C           7.3205    0.8431   -1.7272 C.ar    1  UNL1        0.0548
     25 CL          6.5384   -0.6849   -1.9477 Cl      1  UNL1       -0.0827
     26 H           0.5750   -0.7918    0.7249 H       1  UNL1        0.0230
     27 H           0.5494   -0.1754   -0.9355 H       1  UNL1        0.0230
     28 H           0.5461    0.9546    0.4320 H       1  UNL1        0.0230
     29 H           2.8403   -0.9540   -0.2783 H       1  UNL1        0.0278
     30 H           2.8353    0.1616    1.0830 H       1  UNL1        0.0278
     31 H           2.6253    2.1055   -0.5189 H       1  UNL1        0.0462
     32 H           2.6688    0.9737   -1.8783 H       1  UNL1        0.0462
     33 H           4.9757    0.4790   -0.3688 H       1  UNL1        0.1490
     34 H           6.8803    4.1919   -1.4818 H       1  UNL1        0.0626
     35 H           9.3526    4.1431   -1.4388 H       1  UNL1        0.0636
     36 H          11.4676    2.7690   -1.4665 H       1  UNL1        0.1553
     37 H          13.3284   -1.2202   -1.7176 H       1  UNL1        0.1495
     38 H          15.6777   -0.0519   -0.6404 H       1  UNL1        0.0517
     39 H          15.7435    0.1119   -2.4025 H       1  UNL1        0.0517
     40 H          17.9716   -1.5370   -2.1293 H       1  UNL1        0.0626
     41 H          18.3350   -4.1537   -2.1994 H       1  UNL1        0.0623
     42 H          16.0835   -5.4323   -1.7296 H       1  UNL1        0.0693
     43 H           9.1787   -0.1565   -1.7931 H       1  UNL1        0.0651
@<TRIPOS>BOND
     1     1     2    1
     2     2     3    1
     3     3     4    1
     4     4     5   am
     5     5     6    2
     6     5     7    1
     7     7     8   ar
     8     8     9   ar
     9     9    10   ar
    10    10    11    1
    11    11    12   am
    12    12    13    2
    13    12    14    1
    14    14    15    2
    15    14    16   am
    16    16    17    1
    17    17    18    1
    18    18    19   ar
    19    19    20   ar
    20    20    21   ar
    21    21    22   ar
    22    18    22   ar
    23    10    23   ar
    24    23    24   ar
    25     7    24   ar
    26    24    25    1
    27     1    26    1
    28     1    27    1
    29     1    28    1
    30     2    29    1
    31     2    30    1
    32     3    31    1
    33     3    32    1
    34     4    33    1
    35     8    34    1
    36     9    35    1
    37    11    36    1
    38    16    37    1
    39    17    38    1
    40    17    39    1
    41    19    40    1
    42    20    41    1
    43    21    42    1
    44    23    43    1
