@<TRIPOS>MOLECULE
*****
 43 44 0 0 0
SMALL
GASTEIGER

@<TRIPOS>ATOM
      1 C           0.9061    0.2096   -0.0448 C.3     1  UNL1       -0.0605
      2 C           2.4206    0.0714    0.0381 C.3     1  UNL1       -0.0197
      3 C           2.9234    1.3459    0.7238 C.3     1  UNL1       -0.0605
      4 C           2.9092   -1.2237    0.7709 C.3     1  UNL1        0.1023
      5 N           2.3680   -2.4523    0.1576 N.am    1  UNL1       -0.2998
      6 C           1.0169   -2.7654    0.1275 C.2     1  UNL1        0.2447
      7 O           0.1328   -2.2174    0.7711 O.2     1  UNL1       -0.2702
      8 C           0.6306   -3.9346   -0.6734 C.ar    1  UNL1        0.0367
      9 C          -0.4259   -3.9263   -1.5981 C.ar    1  UNL1       -0.0496
     10 C          -0.9012   -5.1468   -2.0890 C.ar    1  UNL1       -0.0610
     11 C          -0.2718   -6.3382   -1.7182 C.ar    1  UNL1       -0.0617
     12 C           0.7804   -6.3264   -0.8036 C.ar    1  UNL1       -0.0610
     13 C           1.2235   -5.1264   -0.2740 C.ar    1  UNL1       -0.0496
     14 C           4.4668   -1.2697    0.6613 C.2     1  UNL1        0.2378
     15 O           5.0756   -0.5295   -0.1157 O.2     1  UNL1       -0.2734
     16 N           5.1518   -2.2242    1.4028 N.am    1  UNL1       -0.2829
     17 C           6.5800   -2.2088    1.4696 C.ar    1  UNL1        0.0509
     18 C           7.2894   -3.4100    1.3096 C.ar    1  UNL1       -0.0392
     19 C           8.6840   -3.4409    1.4682 C.ar    1  UNL1       -0.0599
     20 C           9.3903   -2.2680    1.7238 C.ar    1  UNL1       -0.0604
     21 C           8.7012   -1.0684    1.8741 C.ar    1  UNL1       -0.0425
     22 C           7.3044   -1.0264    1.7471 C.ar    1  UNL1        0.0729
     23 C           6.6657    0.2334    1.9895 C.1     1  UNL1        0.1010
     24 N           6.1477    1.2562    2.2074 N.1     1  UNL1       -0.1908
     25 H           0.5934    1.1587   -0.4828 H       1  UNL1        0.0233
     26 H           0.4697    0.1389    0.9586 H       1  UNL1        0.0233
     27 H           0.4909   -0.5456   -0.7123 H       1  UNL1        0.0233
     28 H           2.8004    0.0505   -0.9926 H       1  UNL1        0.0318
     29 H           2.5813    1.3891    1.7627 H       1  UNL1        0.0233
     30 H           2.5505    2.2311    0.1979 H       1  UNL1        0.0233
     31 H           4.0085    1.4249    0.7183 H       1  UNL1        0.0233
     32 H           2.6082   -1.2043    1.8263 H       1  UNL1        0.0597
     33 H           3.0120   -3.0361   -0.3616 H       1  UNL1        0.1498
     34 H          -0.8986   -2.9994   -1.9202 H       1  UNL1        0.0625
     35 H          -1.7781   -5.1846   -2.7337 H       1  UNL1        0.0618
     36 H          -0.6087   -7.2848   -2.1320 H       1  UNL1        0.0618
     37 H           1.2333   -7.2507   -0.4638 H       1  UNL1        0.0618
     38 H           1.9858   -5.1106    0.4973 H       1  UNL1        0.0625
     39 H           4.6580   -3.0392    1.7462 H       1  UNL1        0.1549
     40 H           6.7908   -4.3225    0.9902 H       1  UNL1        0.0636
     41 H           9.2291   -4.3806    1.3932 H       1  UNL1        0.0618
     42 H          10.4754   -2.2825    1.8022 H       1  UNL1        0.0618
     43 H           9.2518   -0.1607    2.1161 H       1  UNL1        0.0631
@<TRIPOS>BOND
     1     1     2    1
     2     2     3    1
     3     2     4    1
     4     4     5    1
     5     5     6   am
     6     6     7    2
     7     6     8    1
     8     8     9   ar
     9     9    10   ar
    10    10    11   ar
    11    11    12   ar
    12    12    13   ar
    13     8    13   ar
    14     4    14    1
    15    14    15    2
    16    14    16   am
    17    16    17    1
    18    17    18   ar
    19    18    19   ar
    20    19    20   ar
    21    20    21   ar
    22    21    22   ar
    23    17    22   ar
    24    22    23    1
    25    23    24    3
    26     1    25    1
    27     1    26    1
    28     1    27    1
    29     2    28    1
    30     3    29    1
    31     3    30    1
    32     3    31    1
    33     4    32    1
    34     5    33    1
    35     9    34    1
    36    10    35    1
    37    11    36    1
    38    12    37    1
    39    13    38    1
    40    16    39    1
    41    18    40    1
    42    19    41    1
    43    20    42    1
    44    21    43    1
