REMARK  8 active torsions:
REMARK  status: ('A' for Active; 'I' for Inactive)
REMARK    1  A    between atoms: O_2  and  C_3 
REMARK    2  A    between atoms: C_6  and  N_7 
REMARK       I    between atoms: N_7  and  C_8 
REMARK       I    between atoms: C_8  and  N_22 
REMARK       I    between atoms: N_9  and  C_10 
REMARK    3  A    between atoms: C_10  and  C_12 
REMARK    4  A    between atoms: C_16  and  N_17 
REMARK       I    between atoms: N_17  and  C_18 
REMARK    5  A    between atoms: N_22  and  C_23 
REMARK    6  A    between atoms: C_23  and  C_24 
REMARK    7  A    between atoms: C_24  and  C_25 
REMARK    8  A    between atoms: C_35  and  O_36 
ROOT
ATOM      1  N   UNL d   1       5.451  -1.787   4.151  0.00  0.00    -0.190 N 
ATOM      2  C   UNL d   1       4.979  -2.837   4.975  0.00  0.00     0.704 C 
ATOM      3  N   UNL d   1       3.918  -3.589   4.862  0.00  0.00    -0.023 NA
ATOM      4  C   UNL d   1       2.839  -3.056   4.198  0.00  0.00     0.294 C 
ATOM      5  O   UNL d   1       2.408  -1.958   4.477  0.00  0.00    -0.265 OA
ATOM      6  N   UNL d   1       5.764  -3.158   6.101  0.00  0.00    -0.224 N 
ATOM      7  H   UNL d   1       6.143  -1.171   4.558  0.00  0.00     0.184 HD
ATOM      8  H   UNL d   1       6.458  -2.504   6.446  0.00  0.00     0.177 HD
ENDROOT
BRANCH   1   9
ATOM      9  C   UNL d   1       4.873  -1.252   2.940  0.00  0.00     0.052 C 
ATOM     10  C   UNL d   1       5.135  -0.001   2.404  0.00  0.00     0.033 C 
ATOM     11  C   UNL d   1       4.289   0.556   1.374  0.00  0.00     0.042 C 
ATOM     12  C   UNL d   1       3.097  -0.055   0.925  0.00  0.00     0.101 C 
ATOM     13  C   UNL d   1       2.864  -1.288   1.466  0.00  0.00     0.103 C 
ATOM     14  C   UNL d   1       3.920  -1.919   2.190  0.00  0.00     0.069 C 
BRANCH  12  15
ATOM     15  O   UNL d   1       2.529   0.448  -0.218  0.00  0.00    -0.353 OA
ATOM     16  C   UNL d   1       1.131   0.682  -0.360  0.00  0.00     0.210 C 
ENDBRANCH  12  15
BRANCH  13  17
ATOM     17  O   UNL d   1       1.705  -1.988   1.558  0.00  0.00    -0.353 OA
ATOM     18  C   UNL d   1       0.626  -1.811   0.693  0.00  0.00     0.210 C 
ENDBRANCH  13  17
ENDBRANCH   1   9
BRANCH   6  19
ATOM     19  C   UNL d   1       5.265  -4.170   7.072  0.00  0.00     0.142 C 
BRANCH  19  20
ATOM     20  C   UNL d   1       6.165  -4.402   8.282  0.00  0.00     0.057 C 
BRANCH  20  21
ATOM     21  C   UNL d   1       5.785  -5.512   9.239  0.00  0.00    -0.048 A 
ATOM     22  C   UNL d   1       6.588  -5.822  10.260  0.00  0.00    -0.006 A 
ATOM     23  C   UNL d   1       7.834  -5.270  10.650  0.00  0.00     0.014 C 
ATOM     24  C   UNL d   1       5.984  -6.962  10.959  0.00  0.00     0.038 A 
ATOM     25  C   UNL d   1       8.537  -5.898  11.597  0.00  0.00     0.001 C 
ATOM     26  C   UNL d   1       7.974  -7.020  12.332  0.00  0.00     0.002 C 
ATOM     27  C   UNL d   1       6.761  -7.554  12.074  0.00  0.00     0.030 C 
ATOM     28  N   UNL d   1       4.850  -7.269  10.452  0.00  0.00    -0.385 N 
ATOM     29  C   UNL d   1       4.590  -6.433   9.229  0.00  0.00     0.155 A 
ATOM     30  H   UNL d   1       4.245  -7.983  10.861  0.00  0.00     0.160 HD
ENDBRANCH  20  21
ENDBRANCH  19  20
ENDBRANCH   6  19
BRANCH   4  31
ATOM     31  C   UNL d   1       1.942  -4.040   3.448  0.00  0.00     0.036 C 
ATOM     32  C   UNL d   1       1.688  -4.394   2.123  0.00  0.00     0.017 C 
ATOM     33  C   UNL d   1       0.383  -4.812   1.765  0.00  0.00     0.003 C 
ATOM     34  C   UNL d   1      -0.622  -4.958   2.738  0.00  0.00     0.029 C 
ATOM     35  C   UNL d   1      -0.303  -4.697   4.064  0.00  0.00     0.035 C 
ATOM     36  C   UNL d   1       0.987  -4.365   4.349  0.00  0.00     0.046 C 
BRANCH  35  37
ATOM     37  N   UNL d   1      -1.195  -4.766   5.135  0.00  0.00    -0.327 N 
ATOM     38  C   UNL d   1      -1.031  -4.408   6.455  0.00  0.00     0.218 C 
ATOM     39  C   UNL d   1       0.197  -3.724   7.074  0.00  0.00     0.117 C 
ATOM     40  O   UNL d   1      -1.955  -4.697   7.227  0.00  0.00    -0.274 OA
ATOM     41  H   UNL d   1      -2.119  -5.131   4.934  0.00  0.00     0.169 HD
ENDBRANCH  35  37
ENDBRANCH   4  31
TORSDOF 8
