REMARK  6 active torsions:
REMARK  status: ('A' for Active; 'I' for Inactive)
REMARK    1  A    between atoms: C_2  and  O_3 
REMARK    2  A    between atoms: O_3  and  C_4 
REMARK    3  A    between atoms: C_7  and  C_8 
REMARK       I    between atoms: C_8  and  N_10 
REMARK    4  A    between atoms: N_10  and  N_11 
REMARK       I    between atoms: N_11  and  C_12 
REMARK    5  A    between atoms: C_12  and  C_14 
REMARK    6  A    between atoms: C_14  and  C_15 
ROOT
ATOM      1  N   UNL d   1      11.382   0.419   1.855  0.00  0.00    -0.267 N 
ATOM      2  C   UNL d   1      12.322   1.406   1.261  0.00  0.00     0.240 C 
ATOM      3  O   UNL d   1      11.857   2.416   0.722  0.00  0.00    -0.272 OA
ATOM      4  H   UNL d   1      11.674  -0.334   2.474  0.00  0.00     0.190 HD
ENDROOT
BRANCH   1   5
ATOM      5  N   UNL d   1       9.771   0.541   1.804  0.00  0.00    -0.263 N 
ATOM      6  C   UNL d   1       8.892  -0.493   2.320  0.00  0.00     0.270 C 
ATOM      7  O   UNL d   1       9.338  -1.439   2.973  0.00  0.00    -0.266 OA
ATOM      8  H   UNL d   1       9.427   1.321   1.254  0.00  0.00     0.190 HD
BRANCH   6   9
ATOM      9  C   UNL d   1       7.330  -0.472   2.047  0.00  0.00     0.033 A 
ATOM     10  C   UNL d   1       6.465  -1.521   2.488  0.00  0.00     0.020 A 
ATOM     11  C   UNL d   1       5.065  -1.552   2.180  0.00  0.00     0.038 A 
ATOM     12  C   UNL d   1       4.475  -0.542   1.421  0.00  0.00     0.068 A 
ATOM     13  C   UNL d   1       5.293   0.517   1.029  0.00  0.00     0.038 A 
ATOM     14  C   UNL d   1       6.690   0.548   1.333  0.00  0.00     0.020 A 
BRANCH  12  15
ATOM     15  O   UNL d   1       3.120  -0.631   1.201  0.00  0.00    -0.352 OA
BRANCH  15  16
ATOM     16  C   UNL d   1       2.622  -0.107  -0.041  0.00  0.00     0.171 C 
ATOM     17  C   UNL d   1       1.094  -0.102  -0.036  0.00  0.00     0.034 C 
ENDBRANCH  15  16
ENDBRANCH  12  15
ENDBRANCH   6   9
ENDBRANCH   1   5
BRANCH   2  18
ATOM     18  C   UNL d   1      14.067   1.073   1.360  0.00  0.00     0.141 C 
BRANCH  18  19
ATOM     19  C   UNL d   1      15.355   2.230   1.221  0.00  0.00    -0.039 C 
ATOM     20  C   UNL d   1      15.248   3.208   2.238  0.00  0.00     0.113 C 
ATOM     21  N   UNL d   1      15.462   4.275   1.372  0.00  0.00    -0.282 NA
ATOM     22  C   UNL d   1      16.789   4.131   1.053  0.00  0.00     0.021 A 
ATOM     23  H   UNL d   1      14.850   4.534   0.609  0.00  0.00     0.128 HD
ATOM     24  C   UNL d   1      17.723   5.150   1.069  0.00  0.00     0.048 A 
ATOM     25  C   UNL d   1      16.927   2.734   0.811  0.00  0.00    -0.010 A 
ATOM     26  C   UNL d   1      19.060   4.966   0.891  0.00  0.00     0.035 A 
ATOM     27 CL   UNL d   1      20.118   6.320   1.062  0.00  0.00    -0.084 Cl
ATOM     28  C   UNL d   1      19.428   3.657   0.629  0.00  0.00     0.025 A 
ATOM     29  C   UNL d   1      18.396   2.535   0.550  0.00  0.00     0.015 A 
ENDBRANCH  18  19
ENDBRANCH   2  18
TORSDOF 6
