REMARK  4 active torsions:
REMARK  status: ('A' for Active; 'I' for Inactive)
REMARK    1  A    between atoms: N_1  and  C_2 
REMARK    2  A    between atoms: C_7  and  N_8 
REMARK       I    between atoms: N_8  and  C_9 
REMARK    3  A    between atoms: C_11  and  C_9 
REMARK    4  A    between atoms: C_13  and  C_14 
ROOT
ATOM      1  C   UNL d   1       1.928  -0.976   2.657  0.00  0.00     0.036 C 
ATOM      2  C   UNL d   1       1.457  -1.068   1.337  0.00  0.00     0.030 C 
ATOM      3  C   UNL d   1       1.261   0.068   0.597  0.00  0.00     0.003 C 
ATOM      4  C   UNL d   1       1.479   1.289   1.198  0.00  0.00     0.014 C 
ATOM      5  C   UNL d   1       2.115   1.477   2.424  0.00  0.00     0.003 A 
ATOM      6  C   UNL d   1       2.487   2.784   2.871  0.00  0.00     0.045 A 
ATOM      7  C   UNL d   1       2.939   2.900   4.202  0.00  0.00     0.030 A 
ATOM      8  C   UNL d   1       3.089   1.764   5.021  0.00  0.00     0.003 A 
ATOM      9  C   UNL d   1       2.778   0.487   4.534  0.00  0.00     0.014 A 
ATOM     10  C   UNL d   1       2.289   0.302   3.219  0.00  0.00     0.003 A 
ENDROOT
BRANCH   6  11
ATOM     11  N   UNL d   1       2.365   4.001   2.070  0.00  0.00    -0.326 N 
ATOM     12  C   UNL d   1       2.245   4.115   0.664  0.00  0.00     0.227 C 
ATOM     13  O   UNL d   1       2.625   3.327  -0.168  0.00  0.00    -0.273 OA
ATOM     14  H   UNL d   1       2.463   4.870   2.575  0.00  0.00     0.169 HD
BRANCH  12  15
ATOM     15  C   UNL d   1       1.382   5.229   0.156  0.00  0.00     0.087 A 
ATOM     16  C   UNL d   1       1.577   6.686   0.442  0.00  0.00     0.025 A 
ATOM     17  C   UNL d   1       1.773   6.180  -0.978  0.00  0.00     0.032 A 
BRANCH  17  18
ATOM     18  C   UNL d   1       0.724   6.445  -2.072  0.00  0.00    -0.053 A 
ATOM     19  C   UNL d   1       1.028   6.322  -3.442  0.00  0.00     0.007 A 
ATOM     20  C   UNL d   1       0.099   6.672  -4.434  0.00  0.00     0.001 A 
ATOM     21  C   UNL d   1      -1.193   7.052  -4.082  0.00  0.00     0.000 A 
ATOM     22  C   UNL d   1      -1.544   7.122  -2.742  0.00  0.00     0.001 A 
ATOM     23  C   UNL d   1      -0.596   6.827  -1.761  0.00  0.00     0.007 A 
ENDBRANCH  17  18
ENDBRANCH  12  15
ENDBRANCH   6  11
BRANCH   1  24
ATOM     24  N   UNL d   1       1.946  -2.169   3.376  0.00  0.00    -0.398 N 
ATOM     25  H   UNL d   1       1.693  -3.026   2.900  0.00  0.00     0.156 HD
ATOM     26  H   UNL d   1       2.319  -2.224   4.308  0.00  0.00     0.156 HD
ENDBRANCH   1  24
TORSDOF 4
