REMARK  6 active torsions:
REMARK  status: ('A' for Active; 'I' for Inactive)
REMARK    1  A    between atoms: C_2  and  C_3 
REMARK       I    between atoms: C_3  and  N_5 
REMARK    2  A    between atoms: N_5  and  C_6 
REMARK    3  A    between atoms: C_9  and  C_10 
REMARK       I    between atoms: C_10  and  N_12 
REMARK    4  A    between atoms: N_12  and  N_13 
REMARK    5  A    between atoms: N_13  and  C_14 
REMARK    6  A    between atoms: C_14  and  N_16 
REMARK       I    between atoms: N_16  and  C_17 
ROOT
ATOM      1  C   UNL d   1       6.828   5.139   4.867  0.00  0.00     0.270 C 
ATOM      2  O   UNL d   1       7.876   5.717   4.575  0.00  0.00    -0.266 OA
ATOM      3  N   UNL d   1       6.171   5.369   6.054  0.00  0.00    -0.264 N 
ATOM      4  H   UNL d   1       5.293   4.910   6.288  0.00  0.00     0.190 HD
ENDROOT
BRANCH   1   5
ATOM      5  C   UNL d   1       6.184   4.146   3.912  0.00  0.00     0.033 A 
ATOM      6  C   UNL d   1       6.786   3.905   2.664  0.00  0.00     0.019 A 
ATOM      7  C   UNL d   1       6.190   3.051   1.704  0.00  0.00     0.030 A 
ATOM      8  C   UNL d   1       4.993   2.391   1.992  0.00  0.00     0.034 A 
ATOM      9  C   UNL d   1       4.401   2.622   3.236  0.00  0.00     0.030 A 
ATOM     10  C   UNL d   1       4.987   3.472   4.188  0.00  0.00     0.019 A 
BRANCH   8  11
ATOM     11  N   UNL d   1       4.428   1.447   1.091  0.00  0.00    -0.327 N 
ATOM     12  C   UNL d   1       3.058   1.233   0.992  0.00  0.00     0.221 C 
ATOM     13  O   UNL d   1       2.218   1.939   1.550  0.00  0.00    -0.273 OA
ATOM     14  H   UNL d   1       5.056   0.962   0.461  0.00  0.00     0.169 HD
BRANCH  12  15
ATOM     15  C   UNL d   1       2.625   0.067   0.112  0.00  0.00     0.098 C 
ATOM     16  C   UNL d   1       1.097  -0.005   0.067  0.00  0.00     0.014 C 
ENDBRANCH  12  15
ENDBRANCH   8  11
ENDBRANCH   1   5
BRANCH   3  17
ATOM     17  N   UNL d   1       6.600   6.294   7.061  0.00  0.00    -0.273 N 
ATOM     18  H   UNL d   1       7.451   6.820   6.862  0.00  0.00     0.189 HD
BRANCH  17  19
ATOM     19  C   UNL d   1       5.785   6.382   8.198  0.00  0.00     0.193 C 
ATOM     20  S   UNL d   1       4.404   5.411   8.267  0.00  0.00    -0.039 SA
BRANCH  19  21
ATOM     21  N   UNL d   1       6.221   7.287   9.183  0.00  0.00    -0.303 N 
ATOM     22  C   UNL d   1       5.748   7.680  10.439  0.00  0.00     0.219 C 
ATOM     23  C   UNL d   1       4.486   7.106  11.037  0.00  0.00     0.117 C 
ATOM     24  O   UNL d   1       6.386   8.525  11.078  0.00  0.00    -0.274 OA
ATOM     25  H   UNL d   1       7.076   7.797   8.985  0.00  0.00     0.171 HD
ENDBRANCH  19  21
ENDBRANCH  17  19
ENDBRANCH   3  17
TORSDOF 6
