@<TRIPOS>MOLECULE
*****
 40 41 0 0 0
SMALL
GASTEIGER

@<TRIPOS>ATOM
      1 C           1.1434    0.0345    0.0050 C.3     1  UNL1       -0.0469
      2 C           2.6796    0.0184   -0.0286 C.3     1  UNL1        0.0179
      3 C           3.1294   -1.3368   -0.5791 C.3     1  UNL1       -0.0469
      4 N           3.2480    1.1301   -0.8112 N.am    1  UNL1       -0.3052
      5 C           4.6235    1.3614   -0.9211 C.2     1  UNL1        0.3006
      6 O           5.4862    0.6781   -0.3767 O.2     1  UNL1       -0.2651
      7 C           5.0666    2.5725   -1.8112 C.2     1  UNL1        0.3150
      8 O           4.2172    3.2921   -2.3333 O.2     1  UNL1       -0.2636
      9 N           6.4474    2.7479   -1.9487 N.am    1  UNL1       -0.2263
     10 N           6.9866    3.8604   -2.6934 N.am    1  UNL1       -0.2300
     11 C           8.3701    3.9850   -2.8579 C.2     1  UNL1        0.2602
     12 O           9.1624    3.1845   -2.3599 O.2     1  UNL1       -0.2687
     13 C           8.9129    5.1403   -3.6761 C.ar    1  UNL1        0.0384
     14 C           8.3657    6.4373   -3.6007 C.ar    1  UNL1       -0.0493
     15 C           8.9700    7.5249   -4.2712 C.ar    1  UNL1       -0.0576
     16 C          10.1292    7.3141   -5.0051 C.ar    1  UNL1       -0.0441
     17 C          10.6757    6.0324   -5.1037 C.ar    1  UNL1       -0.0435
     18 C          10.0810    4.9467   -4.4509 C.ar    1  UNL1       -0.0461
     19 C          11.8994    6.0561   -5.9789 C.3     1  UNL1       -0.0271
     20 C          12.2724    7.5489   -5.9488 C.3     1  UNL1       -0.0450
     21 C          10.9480    8.3110   -5.7793 C.3     1  UNL1       -0.0271
     22 H           0.7572   -0.7982    0.6098 H       1  UNL1        0.0247
     23 H           0.7197   -0.0722   -1.0001 H       1  UNL1        0.0247
     24 H           0.7541    0.9611    0.4375 H       1  UNL1        0.0247
     25 H           3.0465    0.1234    1.0002 H       1  UNL1        0.0493
     26 H           2.7808   -1.4710   -1.6087 H       1  UNL1        0.0247
     27 H           2.7354   -2.1609    0.0263 H       1  UNL1        0.0247
     28 H           4.2178   -1.4296   -0.5832 H       1  UNL1        0.0247
     29 H           2.6246    1.7851   -1.2760 H       1  UNL1        0.1494
     30 H           7.1130    2.1189   -1.4913 H       1  UNL1        0.1733
     31 H           6.3109    4.4431   -3.1801 H       1  UNL1        0.1731
     32 H           7.4961    6.6342   -2.9798 H       1  UNL1        0.0625
     33 H           8.5502    8.5244   -4.1893 H       1  UNL1        0.0621
     34 H          10.5318    3.9602   -4.5228 H       1  UNL1        0.0628
     35 H          11.6457    5.7494   -6.9996 H       1  UNL1        0.0313
     36 H          12.7132    5.4349   -5.5957 H       1  UNL1        0.0313
     37 H          12.8278    7.8646   -6.8399 H       1  UNL1        0.0272
     38 H          12.9235    7.7484   -5.0854 H       1  UNL1        0.0272
     39 H          10.4937    8.5142   -6.7551 H       1  UNL1        0.0313
     40 H          11.1003    9.2521   -5.2414 H       1  UNL1        0.0313
@<TRIPOS>BOND
     1     1     2    1
     2     2     3    1
     3     2     4    1
     4     4     5   am
     5     5     6    2
     6     5     7    1
     7     7     8    2
     8     7     9   am
     9     9    10    1
    10    10    11   am
    11    11    12    2
    12    11    13    1
    13    13    14   ar
    14    14    15   ar
    15    15    16   ar
    16    16    17   ar
    17    17    18   ar
    18    13    18   ar
    19    17    19    1
    20    19    20    1
    21    20    21    1
    22    16    21    1
    23     1    22    1
    24     1    23    1
    25     1    24    1
    26     2    25    1
    27     3    26    1
    28     3    27    1
    29     3    28    1
    30     4    29    1
    31     9    30    1
    32    10    31    1
    33    14    32    1
    34    15    33    1
    35    18    34    1
    36    19    35    1
    37    19    36    1
    38    20    37    1
    39    20    38    1
    40    21    39    1
    41    21    40    1
