@<TRIPOS>MOLECULE
*****
 37 38 0 0 0
SMALL
GASTEIGER

@<TRIPOS>ATOM
      1 N          -3.0767    0.0018    0.0355 N.1     1  UNL1       -0.1909
      2 C          -1.9222    0.0237   -0.0202 C.1     1  UNL1        0.0992
      3 C          -0.4871    0.0096   -0.0526 C.ar    1  UNL1        0.0536
      4 C           0.2352    1.1991   -0.0414 C.ar    1  UNL1       -0.0442
      5 C           1.6256    1.1450    0.0124 C.ar    1  UNL1       -0.0588
      6 C           2.2858   -0.1010    0.0562 C.ar    1  UNL1       -0.0393
      7 C           1.5740   -1.3207    0.0142 C.ar    1  UNL1        0.0457
      8 N           2.2448   -2.5574    0.0521 N.pl3   1  UNL1       -0.2633
      9 N           1.5536   -3.8013   -0.0015 N.am    1  UNL1       -0.2203
     10 C           2.2922   -4.9759   -0.0079 C.2     1  UNL1        0.3161
     11 O           3.5210   -4.9637    0.0303 O.2     1  UNL1       -0.2513
     12 N           1.5392   -6.1526   -0.0441 N.am    1  UNL1       -0.2954
     13 C           2.2133   -7.4696    0.0349 C.3     1  UNL1        0.0246
     14 C           2.9347   -7.6061    1.3858 C.3     1  UNL1       -0.0345
     15 C           3.7342   -8.8955    1.5051 C.3     1  UNL1       -0.0514
     16 C           2.8545  -10.1161    1.2952 C.3     1  UNL1       -0.0529
     17 C           2.1305  -10.0242   -0.0449 C.3     1  UNL1       -0.0514
     18 C           1.3144   -8.7180   -0.1734 C.3     1  UNL1       -0.0345
     19 C           0.1804   -1.2252   -0.0509 C.ar    1  UNL1       -0.0220
     20 H          -0.2767    2.1602   -0.0602 H       1  UNL1        0.0630
     21 H           2.1914    2.0763    0.0326 H       1  UNL1        0.0619
     22 H           3.3734   -0.0893    0.1262 H       1  UNL1        0.0636
     23 H           3.2644   -2.6055    0.1037 H       1  UNL1        0.1700
     24 H           0.5498   -3.8022   -0.0554 H       1  UNL1        0.1743
     25 H           0.5299   -6.1175   -0.0540 H       1  UNL1        0.1506
     26 H           2.9499   -7.4720   -0.7787 H       1  UNL1        0.0499
     27 H           2.1958   -7.5529    2.1955 H       1  UNL1        0.0283
     28 H           3.6259   -6.7756    1.5408 H       1  UNL1        0.0283
     29 H           4.2041   -8.9390    2.4933 H       1  UNL1        0.0266
     30 H           4.5418   -8.8931    0.7625 H       1  UNL1        0.0266
     31 H           2.1229  -10.1918    2.1090 H       1  UNL1        0.0265
     32 H           3.4713  -11.0221    1.3351 H       1  UNL1        0.0265
     33 H           1.4819  -10.9004   -0.1634 H       1  UNL1        0.0266
     34 H           2.8741  -10.0715   -0.8514 H       1  UNL1        0.0266
     35 H           0.5027   -8.7403    0.5656 H       1  UNL1        0.0283
     36 H           0.8426   -8.7002   -1.1626 H       1  UNL1        0.0283
     37 H          -0.4275   -2.1195   -0.0863 H       1  UNL1        0.0649
@<TRIPOS>BOND
     1     1     2    3
     2     2     3    1
     3     3     4   ar
     4     4     5   ar
     5     5     6   ar
     6     6     7   ar
     7     7     8    1
     8     8     9    1
     9     9    10   am
    10    10    11    2
    11    10    12   am
    12    12    13    1
    13    13    14    1
    14    14    15    1
    15    15    16    1
    16    16    17    1
    17    17    18    1
    18    13    18    1
    19     7    19   ar
    20     3    19   ar
    21     4    20    1
    22     5    21    1
    23     6    22    1
    24     8    23    1
    25     9    24    1
    26    12    25    1
    27    13    26    1
    28    14    27    1
    29    14    28    1
    30    15    29    1
    31    15    30    1
    32    16    31    1
    33    16    32    1
    34    17    33    1
    35    17    34    1
    36    18    35    1
    37    18    36    1
    38    19    37    1
