REMARK  7 active torsions:
REMARK  status: ('A' for Active; 'I' for Inactive)
REMARK       I    between atoms: C_2  and  N_3 
REMARK    1  A    between atoms: C_2  and  C_15 
REMARK    2  A    between atoms: N_3  and  N_4 
REMARK    3  A    between atoms: N_4  and  C_5 
REMARK    4  A    between atoms: C_5  and  N_7 
REMARK       I    between atoms: N_7  and  C_8 
REMARK    5  A    between atoms: C_8  and  C_10 
REMARK    6  A    between atoms: C_18  and  N_19 
REMARK       I    between atoms: N_19  and  C_20 
REMARK    7  A    between atoms: C_20  and  C_22 
ROOT
ATOM      1  O   UNL d   1       1.067  -0.053   0.101  0.00  0.00    -0.266 OA
ATOM      2  C   UNL d   1       2.294  -0.112   0.131  0.00  0.00     0.270 C 
ATOM      3  N   UNL d   1       3.019  -0.059   1.312  0.00  0.00    -0.264 N 
ATOM      4  H   UNL d   1       4.034   0.046   1.311  0.00  0.00     0.190 HD
ENDROOT
BRANCH   2   5
ATOM      5  C   UNL d   1       3.092  -0.182  -1.152  0.00  0.00     0.033 A 
ATOM      6  C   UNL d   1       4.242  -0.970  -1.326  0.00  0.00     0.019 A 
ATOM      7  C   UNL d   1       4.975  -0.938  -2.547  0.00  0.00     0.030 A 
ATOM      8  C   UNL d   1       4.537  -0.170  -3.638  0.00  0.00     0.035 A 
ATOM      9  C   UNL d   1       3.385   0.597  -3.446  0.00  0.00     0.030 A 
ATOM     10  C   UNL d   1       2.666   0.585  -2.237  0.00  0.00     0.019 A 
BRANCH   8  11
ATOM     11  N   UNL d   1       5.231  -0.218  -4.889  0.00  0.00    -0.323 N 
ATOM     12  C   UNL d   1       4.853   0.477  -6.039  0.00  0.00     0.256 C 
ATOM     13  O   UNL d   1       3.905   1.253  -6.141  0.00  0.00    -0.267 OA
ATOM     14  H   UNL d   1       6.051  -0.811  -4.944  0.00  0.00     0.169 HD
BRANCH  12  15
ATOM     15  C   UNL d   1       5.636   0.285  -7.287  0.00  0.00     0.032 A 
ATOM     16  C   UNL d   1       5.829   1.408  -8.113  0.00  0.00     0.017 A 
ATOM     17  C   UNL d   1       6.346   1.264  -9.401  0.00  0.00     0.001 A 
ATOM     18  C   UNL d   1       6.724   0.003  -9.854  0.00  0.00     0.000 A 
ATOM     19  C   UNL d   1       6.544  -1.116  -9.035  0.00  0.00     0.001 A 
ATOM     20  C   UNL d   1       5.989  -0.982  -7.756  0.00  0.00     0.017 A 
ENDBRANCH  12  15
ENDBRANCH   8  11
ENDBRANCH   2   5
BRANCH   3  21
ATOM     21  N   UNL d   1       2.383   0.124   2.611  0.00  0.00    -0.273 N 
ATOM     22  H   UNL d   1       1.365   0.156   2.587  0.00  0.00     0.189 HD
BRANCH  21  23
ATOM     23  C   UNL d   1       3.203   0.244   3.751  0.00  0.00     0.193 C 
ATOM     24  S   UNL d   1       4.883   0.228   3.558  0.00  0.00    -0.039 SA
BRANCH  23  25
ATOM     25  N   UNL d   1       2.529   0.349   4.992  0.00  0.00    -0.298 N 
ATOM     26  C   UNL d   1       3.118   0.504   6.276  0.00  0.00     0.264 C 
ATOM     27  O   UNL d   1       4.343   0.578   6.435  0.00  0.00    -0.267 OA
ATOM     28  H   UNL d   1       1.518   0.364   4.976  0.00  0.00     0.171 HD
BRANCH  26  29
ATOM     29  C   UNL d   1       2.250   0.575   7.455  0.00  0.00     0.072 A 
ATOM     30  C   UNL d   1       1.170  -0.200   7.842  0.00  0.00     0.025 A 
ATOM     31  C   UNL d   1       0.703   0.115   9.162  0.00  0.00     0.009 A 
ATOM     32  C   UNL d   1       1.431   1.125   9.750  0.00  0.00     0.050 A 
ATOM     33  S   UNL d   1       2.687   1.667   8.727  0.00  0.00    -0.097 SA
ENDBRANCH  26  29
ENDBRANCH  23  25
ENDBRANCH  21  23
ENDBRANCH   3  21
TORSDOF 7
