REMARK  12 active torsions:
REMARK  status: ('A' for Active; 'I' for Inactive)
REMARK    1  A    between atoms: O_2  and  C_3 
REMARK    2  A    between atoms: C_8  and  O_9 
REMARK    3  A    between atoms: O_9  and  C_10 
REMARK    4  A    between atoms: C_10  and  C_11 
REMARK       I    between atoms: C_11  and  N_13 
REMARK    5  A    between atoms: N_13  and  N_14 
REMARK    6  A    between atoms: N_14  and  C_15 
REMARK    7  A    between atoms: C_15  and  N_17 
REMARK       I    between atoms: N_17  and  C_18 
REMARK    8  A    between atoms: C_18  and  C_20 
REMARK    9  A    between atoms: C_25  and  O_26 
REMARK   10  A    between atoms: O_26  and  C_27 
REMARK   11  A    between atoms: C_27  and  C_28 
REMARK   12  A    between atoms: C_28  and  C_29 
ROOT
ATOM      1  N   UNL d   1      -4.641  -3.663   1.214  0.00  0.00    -0.298 N 
ATOM      2  C   UNL d   1      -5.922  -3.890   0.598  0.00  0.00     0.260 C 
ATOM      3  O   UNL d   1      -6.060  -3.956  -0.652  0.00  0.00    -0.267 OA
ATOM      4  H   UNL d   1      -4.657  -3.789   2.219  0.00  0.00     0.171 HD
ENDROOT
BRANCH   1   5
ATOM      5  C   UNL d   1      -3.399  -3.119   0.651  0.00  0.00     0.193 C 
ATOM      6  S   UNL d   1      -3.228  -2.637  -0.947  0.00  0.00    -0.039 SA
BRANCH   5   7
ATOM      7  N   UNL d   1      -2.294  -3.029   1.594  0.00  0.00    -0.273 N 
ATOM      8  H   UNL d   1      -2.490  -2.991   2.590  0.00  0.00     0.189 HD
BRANCH   7   9
ATOM      9  N   UNL d   1      -0.966  -2.179   1.267  0.00  0.00    -0.266 N 
ATOM     10  C   UNL d   1      -0.180  -1.576   2.359  0.00  0.00     0.260 C 
ATOM     11  O   UNL d   1      -0.398  -1.748   3.552  0.00  0.00    -0.269 OA
ATOM     12  H   UNL d   1      -1.092  -1.661   0.390  0.00  0.00     0.190 HD
BRANCH  10  13
ATOM     13  C   UNL d   1       0.923  -0.577   1.952  0.00  0.00     0.280 C 
BRANCH  13  14
ATOM     14  O   UNL d   1       1.737   0.107   2.858  0.00  0.00    -0.339 OA
BRANCH  14  15
ATOM     15  C   UNL d   1       2.763   0.779   2.217  0.00  0.00     0.102 A 
ATOM     16  C   UNL d   1       3.555   1.449   3.174  0.00  0.00     0.039 A 
ATOM     17  C   UNL d   1       4.769   2.023   2.827  0.00  0.00     0.003 A 
ATOM     18  C   UNL d   1       5.185   1.962   1.504  0.00  0.00     0.003 A 
ATOM     19  C   UNL d   1       4.360   1.385   0.521  0.00  0.00     0.039 A 
ATOM     20  C   UNL d   1       3.138   0.769   0.846  0.00  0.00     0.101 A 
BRANCH  20  21
ATOM     21  O   UNL d   1       2.650  -0.018  -0.184  0.00  0.00    -0.353 OA
ATOM     22  C   UNL d   1       1.323   0.066  -0.724  0.00  0.00     0.210 C 
ENDBRANCH  20  21
ENDBRANCH  14  15
ENDBRANCH  13  14
ENDBRANCH  10  13
ENDBRANCH   7   9
ENDBRANCH   5   7
ENDBRANCH   1   5
BRANCH   2  23
ATOM     23  C   UNL d   1      -7.214  -4.188   1.366  0.00  0.00     0.065 A 
ATOM     24  C   UNL d   1      -7.857  -5.389   0.965  0.00  0.00     0.020 A 
ATOM     25  C   UNL d   1      -9.167  -5.720   1.359  0.00  0.00     0.001 A 
ATOM     26  C   UNL d   1      -9.858  -4.899   2.234  0.00  0.00     0.003 A 
ATOM     27  C   UNL d   1      -9.269  -3.709   2.639  0.00  0.00     0.038 A 
ATOM     28  C   UNL d   1      -7.990  -3.315   2.178  0.00  0.00     0.084 A 
BRANCH  28  29
ATOM     29  O   UNL d   1      -7.769  -2.014   2.575  0.00  0.00    -0.350 OA
BRANCH  29  30
ATOM     30  C   UNL d   1      -6.497  -1.530   2.256  0.00  0.00     0.180 C 
BRANCH  30  31
ATOM     31  C   UNL d   1      -6.182  -0.160   2.871  0.00  0.00     0.065 C 
BRANCH  31  32
ATOM     32  C   UNL d   1      -4.867   0.346   2.374  0.00  0.00    -0.056 C 
ATOM     33  C   UNL d   1      -3.906  -0.601   2.398  0.00  0.00     0.007 C 
ATOM     34  C   UNL d   1      -2.622  -0.212   2.284  0.00  0.00     0.001 C 
ATOM     35  C   UNL d   1      -2.192   0.971   1.769  0.00  0.00     0.000 C 
ATOM     36  C   UNL d   1      -3.120   1.966   1.805  0.00  0.00     0.001 C 
ATOM     37  C   UNL d   1      -4.449   1.664   2.165  0.00  0.00     0.007 C 
ENDBRANCH  31  32
ENDBRANCH  30  31
ENDBRANCH  29  30
ENDBRANCH  28  29
ENDBRANCH   2  23
TORSDOF 12
