@<TRIPOS>MOLECULE
*****
 40 41 0 0 0
SMALL
GASTEIGER

@<TRIPOS>ATOM
      1 C           1.0258   -0.0743    0.0707 C.3     1  UNL1       -0.0570
      2 C           2.5529   -0.1508    0.1007 C.3     1  UNL1        0.0211
      3 C           3.0372   -1.5028    0.6310 C.2     1  UNL1        0.2131
      4 O           2.2604   -2.3892    0.9789 O.2     1  UNL1       -0.2758
      5 N           4.4060   -1.6767    0.6987 N.am    1  UNL1       -0.3067
      6 C           4.9992   -2.9332    1.1909 C.3     1  UNL1        0.0895
      7 C           6.5522   -2.9299    1.1913 C.2     1  UNL1        0.2462
      8 O           7.1968   -1.9476    0.8120 O.2     1  UNL1       -0.2726
      9 N           7.1815   -4.0903    1.6423 N.am    1  UNL1       -0.2328
     10 N           8.6156   -4.1255    1.7208 N.am    1  UNL1       -0.2291
     11 C           9.2901   -5.2872    2.0856 C.2     1  UNL1        0.2779
     12 O           8.6829   -6.3264    2.3685 O.2     1  UNL1       -0.2670
     13 C          10.7380   -5.2081    2.0925 C.ar    1  UNL1        0.1222
     14 C          11.5980   -4.2132    2.5263 C.ar    1  UNL1       -0.0041
     15 C          12.9222   -4.6916    2.3204 C.ar    1  UNL1        0.0932
     16 C          14.1725   -4.0169    2.6774 C.ar    1  UNL1        0.0021
     17 C          15.1636   -3.7545    1.7217 C.ar    1  UNL1       -0.0525
     18 C          16.3768   -3.1644    2.1020 C.ar    1  UNL1       -0.0611
     19 C          16.5837   -2.7734    3.4246 C.ar    1  UNL1       -0.0617
     20 C          15.5936   -3.0045    4.3768 C.ar    1  UNL1       -0.0611
     21 C          14.3975   -3.6283    4.0064 C.ar    1  UNL1       -0.0525
     22 N          12.8919   -5.9173    1.7777 N.ar    1  UNL1       -0.1732
     23 N          11.5792   -6.2270    1.7129 N.ar    1  UNL1       -0.2719
     24 H           0.6784    0.8930   -0.3089 H       1  UNL1        0.0234
     25 H           0.6064   -0.2110    1.0737 H       1  UNL1        0.0234
     26 H           0.6064   -0.8566   -0.5718 H       1  UNL1        0.0234
     27 H           2.9365    0.6529    0.7392 H       1  UNL1        0.0356
     28 H           2.9365    0.0044   -0.9140 H       1  UNL1        0.0356
     29 H           5.0399   -0.9385    0.4097 H       1  UNL1        0.1492
     30 H           4.6327   -3.7451    0.5536 H       1  UNL1        0.0558
     31 H           4.6327   -3.0947    2.2107 H       1  UNL1        0.0558
     32 H           6.6908   -4.9202    1.9755 H       1  UNL1        0.1728
     33 H           9.1062   -3.3102    1.3556 H       1  UNL1        0.1732
     34 H          11.3232   -3.2715    2.9754 H       1  UNL1        0.0662
     35 H          14.9987   -4.0034    0.6760 H       1  UNL1        0.0624
     36 H          17.1669   -3.0192    1.3687 H       1  UNL1        0.0618
     37 H          17.5160   -2.2929    3.7133 H       1  UNL1        0.0618
     38 H          15.7589   -2.7169    5.4122 H       1  UNL1        0.0618
     39 H          13.6484   -3.8255    4.7688 H       1  UNL1        0.0624
     40 H          11.3262   -7.1496    1.3682 H       1  UNL1        0.1891
@<TRIPOS>BOND
     1     1     2    1
     2     2     3    1
     3     3     4    2
     4     3     5   am
     5     5     6    1
     6     6     7    1
     7     7     8    2
     8     7     9   am
     9     9    10    1
    10    10    11   am
    11    11    12    2
    12    11    13    1
    13    13    14   ar
    14    14    15   ar
    15    15    16    1
    16    16    17   ar
    17    17    18   ar
    18    18    19   ar
    19    19    20   ar
    20    20    21   ar
    21    16    21   ar
    22    15    22   ar
    23    22    23   ar
    24    13    23   ar
    25     1    24    1
    26     1    25    1
    27     1    26    1
    28     2    27    1
    29     2    28    1
    30     5    29    1
    31     6    30    1
    32     6    31    1
    33     9    32    1
    34    10    33    1
    35    14    34    1
    36    17    35    1
    37    18    36    1
    38    19    37    1
    39    20    38    1
    40    21    39    1
    41    23    40    1
