REMARK  5 active torsions:
REMARK  status: ('A' for Active; 'I' for Inactive)
REMARK       I    between atoms: C_2  and  N_4 
REMARK    1  A    between atoms: N_4  and  N_5 
REMARK    2  A    between atoms: C_6  and  N_5 
REMARK    3  A    between atoms: C_6  and  C_18 
REMARK    4  A    between atoms: C_6  and  C_7 
REMARK    5  A    between atoms: C_7  and  C_9 
ROOT
ATOM      1  C   UNL d   1       5.106  -2.758  -0.199  0.00  0.00     0.184 C 
ENDROOT
BRANCH   1   2
ATOM      2  C   UNL d   1       6.641  -2.713  -0.227  0.00  0.00    -0.031 A 
ATOM      3  C   UNL d   1       7.380  -1.525  -0.131  0.00  0.00     0.009 A 
ATOM      4  C   UNL d   1       8.772  -1.530  -0.298  0.00  0.00     0.001 A 
ATOM      5  C   UNL d   1       9.464  -2.727  -0.465  0.00  0.00     0.000 A 
ATOM      6  C   UNL d   1       8.765  -3.923  -0.481  0.00  0.00     0.001 A 
ATOM      7  C   UNL d   1       7.378  -3.911  -0.350  0.00  0.00     0.009 A 
ENDBRANCH   1   2
BRANCH   1   8
ATOM      8  C   UNL d   1       4.394  -1.378  -0.044  0.00  0.00     0.185 C 
ATOM      9  O   UNL d   1       3.816  -1.150   1.028  0.00  0.00    -0.290 OA
BRANCH   8  10
ATOM     10  C   UNL d   1       4.326  -0.353  -1.116  0.00  0.00     0.040 A 
ATOM     11  C   UNL d   1       3.907   0.954  -0.883  0.00  0.00     0.104 A 
ATOM     12  N   UNL d   1       3.819   1.620  -2.077  0.00  0.00    -0.364 N 
ATOM     13  C   UNL d   1       4.146   0.773  -3.110  0.00  0.00     0.043 A 
ATOM     14  H   UNL d   1       3.501   2.573  -2.193  0.00  0.00     0.165 HD
ATOM     15  C   UNL d   1       4.111   0.977  -4.501  0.00  0.00     0.030 A 
ATOM     16  C   UNL d   1       4.545  -0.439  -2.534  0.00  0.00     0.006 A 
ATOM     17  C   UNL d   1       4.452  -0.096  -5.332  0.00  0.00     0.002 A 
ATOM     18  C   UNL d   1       4.879  -1.297  -4.796  0.00  0.00     0.001 A 
ATOM     19  C   UNL d   1       4.977  -1.446  -3.417  0.00  0.00     0.014 A 
ENDBRANCH   8  10
ENDBRANCH   1   8
BRANCH   1  20
ATOM     20  N   UNL d   1       4.516  -3.477  -1.347  0.00  0.00    -0.221 NA
ATOM     21  H   UNL d   1       3.552  -3.198  -1.546  0.00  0.00     0.147 HD
BRANCH  20  22
ATOM     22  N   UNL d   1       4.632  -4.871  -1.389  0.00  0.00    -0.291 N 
ATOM     23  C   UNL d   1       4.476  -5.528  -2.603  0.00  0.00     0.227 C 
ATOM     24  C   UNL d   1       4.710  -7.009  -2.500  0.00  0.00     0.118 C 
ATOM     25  O   UNL d   1       4.156  -4.988  -3.663  0.00  0.00    -0.273 OA
ATOM     26  H   UNL d   1       4.957  -5.384  -0.576  0.00  0.00     0.183 HD
ENDBRANCH  20  22
ENDBRANCH   1  20
TORSDOF 5
