REMARK  5 active torsions:
REMARK  status: ('A' for Active; 'I' for Inactive)
REMARK    1  A    between atoms: C_5  and  N_6 
REMARK       I    between atoms: N_6  and  C_7 
REMARK       I    between atoms: C_7  and  N_9 
REMARK    2  A    between atoms: N_9  and  N_10 
REMARK    3  A    between atoms: N_9  and  C_20 
REMARK       I    between atoms: N_10  and  C_11 
REMARK       I    between atoms: C_11  and  N_13 
REMARK    4  A    between atoms: N_13  and  C_14 
REMARK    5  A    between atoms: C_22  and  C_23 
ROOT
ATOM      1  N   UNL d   1      -3.168   0.325   0.028  0.00  0.00    -0.307 N 
ATOM      2  C   UNL d   1      -3.991   1.428  -0.059  0.00  0.00     0.348 C 
ATOM      3  O   UNL d   1      -3.515   2.567  -0.033  0.00  0.00    -0.245 OA
ATOM      4  N   UNL d   1      -5.409   1.223  -0.112  0.00  0.00    -0.176 N 
ATOM      5  H   UNL d   1      -3.604  -0.575  -0.018  0.00  0.00     0.170 HD
ENDROOT
BRANCH   4   6
ATOM      6  N   UNL d   1      -6.162  -0.088   0.057  0.00  0.00    -0.239 N 
ATOM      7  C   UNL d   1      -5.612  -1.318  -0.217  0.00  0.00     0.335 C 
ATOM      8  O   UNL d   1      -4.428  -1.509  -0.501  0.00  0.00    -0.246 OA
ATOM      9  N   UNL d   1      -6.340  -2.463  -0.039  0.00  0.00    -0.337 N 
ATOM     10  H   UNL d   1      -7.348  -2.481  -0.103  0.00  0.00     0.164 HD
ATOM     11  H   UNL d   1      -7.155   0.026  -0.118  0.00  0.00     0.192 HD
BRANCH   9  12
ATOM     12  C   UNL d   1      -5.543  -3.728  -0.037  0.00  0.00     0.086 C 
ATOM     13  C   UNL d   1      -4.685  -3.799   1.253  0.00  0.00     0.025 C 
ATOM     14  C   UNL d   1      -3.828  -5.055   1.342  0.00  0.00     0.002 C 
ATOM     15  C   UNL d   1      -4.682  -6.302   1.202  0.00  0.00     0.000 C 
ATOM     16  C   UNL d   1      -5.478  -6.262  -0.100  0.00  0.00     0.002 C 
ATOM     17  C   UNL d   1      -6.364  -5.007  -0.200  0.00  0.00     0.025 C 
ENDBRANCH   9  12
ENDBRANCH   4   6
BRANCH   4  18
ATOM     18  C   UNL d   1      -6.137   2.453  -0.221  0.00  0.00     0.197 A 
ATOM     19  N   UNL d   1      -5.822   3.497  -0.973  0.00  0.00    -0.222 NA
ATOM     20  C   UNL d   1      -6.662   4.587  -0.753  0.00  0.00     0.076 A 
ATOM     21  C   UNL d   1      -7.650   4.354   0.182  0.00  0.00     0.086 A 
ATOM     22  S   UNL d   1      -7.537   2.714   0.750  0.00  0.00    -0.060 SA
BRANCH  20  23
ATOM     23  C   UNL d   1      -6.516   5.841  -1.507  0.00  0.00    -0.007 A 
ATOM     24  C   UNL d   1      -6.607   5.821  -2.910  0.00  0.00     0.017 A 
ATOM     25  C   UNL d   1      -6.391   6.984  -3.666  0.00  0.00     0.043 A 
ATOM     26  C   UNL d   1      -6.090   8.176  -3.022  0.00  0.00     0.116 A 
ATOM     27  F   UNL d   1      -5.856   9.280  -3.746  0.00  0.00    -0.206 F 
ATOM     28  C   UNL d   1      -6.024   8.232  -1.635  0.00  0.00     0.043 A 
ATOM     29  C   UNL d   1      -6.242   7.068  -0.877  0.00  0.00     0.017 A 
ENDBRANCH  20  23
ENDBRANCH   4  18
BRANCH   1  30
ATOM     30  C   UNL d   1      -1.766   0.218   0.015  0.00  0.00     0.036 A 
ATOM     31  C   UNL d   1      -1.150  -1.055   0.008  0.00  0.00     0.030 A 
ATOM     32  C   UNL d   1       0.249  -1.163   0.005  0.00  0.00     0.009 A 
ATOM     33  C   UNL d   1       1.029  -0.004   0.003  0.00  0.00    -0.062 A 
ATOM     34  C   UNL d   1       2.523  -0.031  -0.014  0.00  0.00     0.048 C 
ATOM     35  C   UNL d   1       0.405   1.243   0.006  0.00  0.00     0.009 A 
ATOM     36  C   UNL d   1      -0.973   1.347   0.009  0.00  0.00     0.030 A 
ENDBRANCH   1  30
TORSDOF 5
