REMARK  4 active torsions:
REMARK  status: ('A' for Active; 'I' for Inactive)
REMARK    1  A    between atoms: C_4  and  C_5 
REMARK    2  A    between atoms: C_5  and  C_6 
REMARK       I    between atoms: C_6  and  N_8 
REMARK    3  A    between atoms: N_8  and  N_9 
REMARK    4  A    between atoms: N_9  and  C_10 
ROOT
ATOM      1  C   UNL d   1       2.455  -3.888  -0.068  0.00  0.00     0.240 C 
ATOM      2  O   UNL d   1       3.492  -3.215   0.007  0.00  0.00    -0.272 OA
ATOM      3  N   UNL d   1       2.584  -5.268  -0.208  0.00  0.00    -0.269 N 
ATOM      4  H   UNL d   1       1.825  -5.902   0.021  0.00  0.00     0.190 HD
ENDROOT
BRANCH   1   5
ATOM      5  C   UNL d   1       1.015  -3.315  -0.029  0.00  0.00     0.145 C 
BRANCH   5   6
ATOM      6  C   UNL d   1       0.925  -1.795  -0.005  0.00  0.00    -0.021 A 
ATOM      7  C   UNL d   1       1.988  -0.911   0.010  0.00  0.00     0.099 A 
ATOM      8  N   UNL d   1       1.536   0.371   0.004  0.00  0.00    -0.360 N 
ATOM      9  C   UNL d   1       2.406   1.523  -0.040  0.00  0.00     0.155 C 
ATOM     10  C   UNL d   1       0.166   0.385   0.013  0.00  0.00     0.044 A 
ATOM     11  C   UNL d   1      -0.721   1.471   0.024  0.00  0.00     0.030 A 
ATOM     12  C   UNL d   1      -0.257  -0.955  -0.002  0.00  0.00    -0.001 A 
ATOM     13  C   UNL d   1      -2.087   1.201   0.004  0.00  0.00     0.002 A 
ATOM     14  C   UNL d   1      -2.548  -0.112  -0.020  0.00  0.00     0.001 A 
ATOM     15  C   UNL d   1      -1.651  -1.194  -0.018  0.00  0.00     0.014 A 
ENDBRANCH   5   6
ENDBRANCH   1   5
BRANCH   3  16
ATOM     16  N   UNL d   1       3.881  -5.738   0.085  0.00  0.00    -0.298 N 
ATOM     17  H   UNL d   1       4.628  -5.034   0.034  0.00  0.00     0.187 HD
BRANCH  16  18
ATOM     18  C   UNL d   1       4.206  -7.088  -0.071  0.00  0.00     0.049 A 
ATOM     19  C   UNL d   1       3.517  -7.952  -0.927  0.00  0.00     0.031 A 
ATOM     20  C   UNL d   1       3.821  -9.318  -0.968  0.00  0.00     0.004 A 
ATOM     21  C   UNL d   1       4.802  -9.844  -0.130  0.00  0.00     0.024 A 
ATOM     22  C   UNL d   1       5.494  -8.994   0.727  0.00  0.00     0.036 A 
ATOM     23 CL   UNL d   1       6.679  -9.646   1.793  0.00  0.00    -0.084 Cl
ATOM     24  C   UNL d   1       5.217  -7.626   0.743  0.00  0.00     0.054 A 
ENDBRANCH  16  18
ENDBRANCH   3  16
TORSDOF 4
