@<TRIPOS>MOLECULE
*****
 53 56 0 0 0
SMALL
GASTEIGER

@<TRIPOS>ATOM
      1 O           0.8652   -0.2361    0.1359 O.2     1  UNL1       -0.2752
      2 C           2.0246   -0.1340   -0.2063 C.2     1  UNL1        0.2207
      3 N           2.5311    0.8425   -1.0761 N.am    1  UNL1       -0.2823
      4 C           2.0492    2.1494   -1.2908 C.ar    1  UNL1        0.0767
      5 C           2.6146    2.8226   -2.3805 C.ar    1  UNL1       -0.0186
      6 C           2.0108    3.9777   -2.8515 C.ar    1  UNL1        0.0430
      7 CL          2.5661    4.6698   -4.3220 Cl      1  UNL1       -0.0835
      8 C           0.9152    4.5125   -2.1810 C.ar    1  UNL1       -0.0398
      9 C           0.4926    3.9547   -0.9699 C.ar    1  UNL1       -0.0170
     10 C           1.1027    2.7982   -0.4985 C.ar    1  UNL1        0.1380
     11 O           0.8634    2.3793    0.7815 O.3     1  UNL1       -0.5049
     12 C           3.1234   -1.0961    0.3657 C.3     1  UNL1        0.0455
     13 C           3.1035   -1.3169    1.8935 C.3     1  UNL1       -0.0012
     14 C           3.0712    0.0143    2.6387 C.3     1  UNL1       -0.0307
     15 N           4.2648    0.8950    2.2272 N.4     1  UNL1        0.2419
     16 C           4.0277    2.3747    2.6801 C.3     1  UNL1        0.0475
     17 C           5.1183    3.3594    2.3493 C.ar    1  UNL1        0.2624
     18 N           5.9187    3.9752    3.1874 N.ar    1  UNL1       -0.1063
     19 N           6.8200    4.6851    2.4268 N.ar    1  UNL1       -0.1071
     20 C           6.5092    4.4881    1.1639 C.ar    1  UNL1        0.2486
     21 C           7.1460    5.0358   -0.0326 C.ar    1  UNL1        0.0389
     22 C           8.5373    4.9231   -0.2243 C.ar    1  UNL1       -0.0430
     23 C           9.1825    5.5921   -1.2792 C.ar    1  UNL1        0.0163
     24 C           8.4227    6.3300   -2.1957 C.ar    1  UNL1        0.2732
     25 N           9.0726    6.9115   -3.3820 N.pl3   1  UNL1        0.0796
     26 O          10.2838    6.7403   -3.5203 O.2     1  UNL1        0.0414
     27 O           8.3407    7.5069   -4.1963 O.co2   1  UNL1       -0.5760
     28 C           7.0406    6.4577   -2.0162 C.ar    1  UNL1        0.0163
     29 C           6.4104    5.8129   -0.9400 C.ar    1  UNL1       -0.0430
     30 O           5.4128    3.6564    1.0267 O.2     1  UNL1       -0.4152
     31 C           4.5434    0.8969    0.7588 C.3     1  UNL1       -0.0307
     32 C           4.4997   -0.4968    0.1168 C.3     1  UNL1       -0.0012
     33 H           3.3872    0.6746   -1.5851 H       1  UNL1        0.1549
     34 H           3.4686    2.4164   -2.9184 H       1  UNL1        0.0652
     35 H           0.3908    5.3687   -2.5946 H       1  UNL1        0.0633
     36 H          -0.3217    4.4217   -0.4243 H       1  UNL1        0.0655
     37 H          -0.0005    2.7347    1.0606 H       1  UNL1        0.2922
     38 H           2.9979   -2.0672   -0.1294 H       1  UNL1        0.0398
     39 H           4.0198   -1.8547    2.1930 H       1  UNL1        0.0324
     40 H           2.2796   -1.9695    2.2032 H       1  UNL1        0.0324
     41 H           3.1420   -0.1358    3.7221 H       1  UNL1        0.0815
     42 H           2.1431    0.5477    2.4157 H       1  UNL1        0.0815
     43 H           5.1075    0.5612    2.7126 H       1  UNL1        0.2038
     44 H           3.9021    2.3246    3.7667 H       1  UNL1        0.0915
     45 H           3.0760    2.7008    2.2442 H       1  UNL1        0.0915
     46 H           9.1449    4.3223    0.4529 H       1  UNL1        0.0627
     47 H          10.2676    5.5387   -1.3671 H       1  UNL1        0.0685
     48 H           6.4439    7.0684   -2.6939 H       1  UNL1        0.0685
     49 H           5.3419    5.9595   -0.7968 H       1  UNL1        0.0627
     50 H           5.4948    1.3703    0.5306 H       1  UNL1        0.0815
     51 H           3.7892    1.5895    0.4159 H       1  UNL1        0.0815
     52 H           5.3034   -1.1288    0.5074 H       1  UNL1        0.0324
     53 H           4.6830   -0.4719   -0.9636 H       1  UNL1        0.0324
@<TRIPOS>UNITY_ATOM_ATTR
15 1
charge 1
25 1
charge 1
27 1
charge -1
@<TRIPOS>BOND
     1     1     2    2
     2     2     3   am
     3     3     4    1
     4     4     5   ar
     5     5     6   ar
     6     6     7    1
     7     6     8   ar
     8     8     9   ar
     9     9    10   ar
    10     4    10   ar
    11    10    11    1
    12     2    12    1
    13    12    13    1
    14    13    14    1
    15    14    15    1
    16    15    16    1
    17    16    17    1
    18    17    18   ar
    19    18    19   ar
    20    19    20   ar
    21    20    21    1
    22    21    22   ar
    23    22    23   ar
    24    23    24   ar
    25    24    25    1
    26    25    26    2
    27    25    27    1
    28    24    28   ar
    29    28    29   ar
    30    21    29   ar
    31    20    30   ar
    32    17    30   ar
    33    15    31    1
    34    31    32    1
    35    12    32    1
    36     3    33    1
    37     5    34    1
    38     8    35    1
    39     9    36    1
    40    11    37    1
    41    12    38    1
    42    13    39    1
    43    13    40    1
    44    14    41    1
    45    14    42    1
    46    15    43    1
    47    16    44    1
    48    16    45    1
    49    22    46    1
    50    23    47    1
    51    28    48    1
    52    29    49    1
    53    31    50    1
    54    31    51    1
    55    32    52    1
    56    32    53    1
