REMARK  7 active torsions:
REMARK  status: ('A' for Active; 'I' for Inactive)
REMARK    1  A    between atoms: C_3  and  C_4 
REMARK       I    between atoms: C_4  and  N_6 
REMARK    2  A    between atoms: N_6  and  C_7 
REMARK    3  A    between atoms: C_14  and  C_15 
REMARK    4  A    between atoms: C_23  and  S_24 
REMARK    5  A    between atoms: S_24  and  C_25 
REMARK    6  A    between atoms: C_25  and  C_26 
REMARK       I    between atoms: C_26  and  N_28 
REMARK    7  A    between atoms: N_28  and  C_29 
ROOT
ATOM      1  C   UNL d   1       1.056  -0.247  -0.001  0.00  0.00     0.069 C 
ATOM      2  C   UNL d   1       2.550  -0.034  -0.073  0.00  0.00     0.019 C 
ATOM      3  C   UNL d   1       3.154   1.183  -0.197  0.00  0.00     0.048 C 
ATOM      4  C   UNL d   1       4.655   1.263  -0.067  0.00  0.00     0.129 C 
ATOM      5  C   UNL d   1       5.328  -0.030  -0.397  0.00  0.00     0.057 C 
ATOM      6  C   UNL d   1       6.789   0.075  -0.802  0.00  0.00     0.019 C 
ATOM      7  N   UNL d   1       8.001   0.162  -1.138  0.00  0.00    -0.096 N 
ATOM      8  C   UNL d   1       4.689  -1.230  -0.320  0.00  0.00     0.087 C 
ATOM      9  N   UNL d   1       3.339  -1.194   0.006  0.00  0.00    -0.353 N 
ATOM     10  H   UNL d   1       2.876  -2.080   0.175  0.00  0.00     0.166 HD
ENDROOT
BRANCH   4  11
ATOM     11  C   UNL d   1       5.032   1.603   1.339  0.00  0.00     0.066 A 
ATOM     12  C   UNL d   1       4.735   0.942   2.513  0.00  0.00     0.035 A 
ATOM     13  C   UNL d   1       5.424   1.620   3.528  0.00  0.00     0.027 A 
ATOM     14  C   UNL d   1       6.095   2.651   2.910  0.00  0.00     0.142 A 
ATOM     15  O   UNL d   1       5.862   2.651   1.568  0.00  0.00    -0.326 OA
ENDBRANCH   4  11
BRANCH   8  16
ATOM     16  S   UNL d   1       5.657  -2.658  -0.629  0.00  0.00    -0.102 SA
BRANCH  16  17
ATOM     17  C   UNL d   1       4.682  -4.181  -0.500  0.00  0.00     0.184 C 
BRANCH  17  18
ATOM     18  C   UNL d   1       5.592  -5.393  -0.838  0.00  0.00     0.231 C 
ATOM     19  O   UNL d   1       6.774  -5.256  -1.156  0.00  0.00    -0.272 OA
ATOM     20  N   UNL d   1       4.977  -6.645  -0.800  0.00  0.00    -0.327 N 
ATOM     21  H   UNL d   1       3.969  -6.714  -0.761  0.00  0.00     0.169 HD
BRANCH  20  22
ATOM     22  C   UNL d   1       5.695  -7.849  -1.045  0.00  0.00     0.034 A 
ATOM     23  C   UNL d   1       5.101  -8.901  -1.752  0.00  0.00     0.029 A 
ATOM     24  C   UNL d   1       5.792 -10.109  -1.937  0.00  0.00     0.002 A 
ATOM     25  C   UNL d   1       7.088 -10.264  -1.445  0.00  0.00     0.000 A 
ATOM     26  C   UNL d   1       7.683  -9.223  -0.740  0.00  0.00     0.002 A 
ATOM     27  C   UNL d   1       6.990  -8.026  -0.545  0.00  0.00     0.029 A 
ENDBRANCH  20  22
ENDBRANCH  17  18
ENDBRANCH  16  17
ENDBRANCH   8  16
BRANCH   3  28
ATOM     28  C   UNL d   1       2.421   2.471  -0.398  0.00  0.00     0.255 C 
ATOM     29  O   UNL d   1       1.242   2.451  -0.769  0.00  0.00    -0.268 OA
ATOM     30  N   UNL d   1       3.114   3.661  -0.261  0.00  0.00    -0.323 N 
ATOM     31  H   UNL d   1       4.116   3.707  -0.397  0.00  0.00     0.169 HD
BRANCH  30  32
ATOM     32  C   UNL d   1       2.421   4.892  -0.320  0.00  0.00     0.041 A 
ATOM     33  C   UNL d   1       2.850   5.868  -1.230  0.00  0.00     0.030 A 
ATOM     34  C   UNL d   1       2.142   7.067  -1.351  0.00  0.00     0.002 A 
ATOM     35  C   UNL d   1       1.034   7.309  -0.542  0.00  0.00     0.001 A 
ATOM     36  C   UNL d   1       0.631   6.356   0.391  0.00  0.00     0.009 A 
ATOM     37  C   UNL d   1       1.317   5.141   0.521  0.00  0.00    -0.035 A 
ATOM     38  C   UNL d   1       0.894   4.194   1.614  0.00  0.00     0.050 C 
ENDBRANCH  30  32
ENDBRANCH   3  28
TORSDOF 7
