@<TRIPOS>MOLECULE
*****
 66 68 0 0 0
SMALL
GASTEIGER

@<TRIPOS>ATOM
      1 C           0.9084    0.0657    0.0534 C.3     1  UNL1       -0.0626
      2 C           2.4431    0.0957    0.1637 C.3     1  UNL1       -0.0453
      3 C           2.9200   -0.8176    1.2792 C.3     1  UNL1       -0.0626
      4 C           2.9730   -0.4051   -1.1548 C.3     1  UNL1       -0.0344
      5 C           4.4542   -0.5408   -1.3966 C.3     1  UNL1        0.0203
      6 N           4.8509   -1.0843   -2.7370 N.am    1  UNL1       -0.2642
      7 C           4.0030   -1.6000   -3.7411 C.2     1  UNL1        0.2200
      8 O           4.4478   -2.0990   -4.7822 O.2     1  UNL1       -0.2753
      9 C           2.4955   -1.5033   -3.6131 C.3     1  UNL1        0.0259
     10 C           1.6905   -1.9851   -4.7966 C.3     1  UNL1       -0.0291
     11 C           0.2048   -1.8491   -4.4732 C.3     1  UNL1        0.0123
     12 N          -0.6049   -2.3449   -5.5577 N.am    1  UNL1       -0.3113
     13 C          -1.9763   -2.2624   -5.5060 C.2     1  UNL1        0.2446
     14 O          -2.5789   -1.7678   -4.5553 O.2     1  UNL1       -0.2702
     15 C          -2.6710   -2.7810   -6.6802 C.ar    1  UNL1        0.0437
     16 C          -2.3524   -3.9573   -7.4429 C.ar    1  UNL1       -0.0426
     17 C          -3.2738   -4.2106   -8.4374 C.ar    1  UNL1       -0.0236
     18 S          -4.4925   -3.0151   -8.5026 S.2     1  UNL1       -0.1043
     19 C          -3.8166   -2.1810   -7.1733 C.ar    1  UNL1       -0.0122
     20 C           6.2581   -1.1394   -2.9588 C.ar    1  UNL1        0.1396
     21 C           6.8605   -0.6777   -4.0945 C.ar    1  UNL1        0.1277
     22 N           6.1218    0.0350   -5.0506 N.pl3   1  UNL1       -0.3427
     23 N           8.2461   -0.8277   -4.2737 N.ar    1  UNL1       -0.2761
     24 C           8.8069   -0.4408   -5.5884 C.3     1  UNL1        0.0543
     25 C          10.2826   -0.6312   -5.8004 C.ar    1  UNL1       -0.0276
     26 C          11.1106    0.4897   -5.9312 C.ar    1  UNL1       -0.0569
     27 C          12.4930    0.3357   -5.9237 C.ar    1  UNL1       -0.0614
     28 C          13.0534   -0.9311   -5.7599 C.ar    1  UNL1       -0.0617
     29 C          12.2359   -2.0541   -5.6494 C.ar    1  UNL1       -0.0614
     30 C          10.8536   -1.9129   -5.7215 C.ar    1  UNL1       -0.0569
     31 C           9.0677   -1.2695   -3.2457 C.ar    1  UNL1        0.3310
     32 O          10.2968   -1.2606   -3.1853 O.2     1  UNL1       -0.2464
     33 N           8.4632   -1.7655   -2.1505 N.ar    1  UNL1       -0.2733
     34 C           7.1433   -1.7094   -1.8807 C.ar    1  UNL1        0.2774
     35 O           6.7514   -2.1206   -0.7937 O.2     1  UNL1       -0.2656
     36 H           0.4462    0.4481    0.9640 H       1  UNL1        0.0232
     37 H           0.5390   -0.9551   -0.1177 H       1  UNL1        0.0232
     38 H           0.5578    0.6709   -0.7931 H       1  UNL1        0.0232
     39 H           2.7840    1.1236    0.3174 H       1  UNL1        0.0296
     40 H           2.5831   -1.8481    1.1085 H       1  UNL1        0.0232
     41 H           2.5366   -0.4779    2.2408 H       1  UNL1        0.0232
     42 H           4.0122   -0.8326    1.3309 H       1  UNL1        0.0232
     43 H           2.5773    0.2835   -1.8974 H       1  UNL1        0.0283
     44 H           2.5652   -1.4122   -1.2200 H       1  UNL1        0.0283
     45 H           4.8459   -1.1955   -0.6229 H       1  UNL1        0.0469
     46 H           4.9318    0.4415   -1.2865 H       1  UNL1        0.0469
     47 H           2.2149   -0.4560   -3.5078 H       1  UNL1        0.0359
     48 H           2.1770   -2.1466   -2.7946 H       1  UNL1        0.0359
     49 H           1.9422   -3.0287   -5.0065 H       1  UNL1        0.0285
     50 H           1.9465   -1.3890   -5.6786 H       1  UNL1        0.0285
     51 H          -0.0649   -0.8023   -4.2745 H       1  UNL1        0.0462
     52 H          -0.0583   -2.4156   -3.5696 H       1  UNL1        0.0462
     53 H          -0.1542   -2.6472   -6.4106 H       1  UNL1        0.1490
     54 H          -1.5227   -4.6218   -7.2352 H       1  UNL1        0.0630
     55 H          -3.3006   -5.0463   -9.1240 H       1  UNL1        0.0693
     56 H          -4.2955   -1.2841   -6.8025 H       1  UNL1        0.0701
     57 H           5.1408   -0.2308   -5.0366 H       1  UNL1        0.1437
     58 H           6.4515   -0.0746   -6.0008 H       1  UNL1        0.1437
     59 H           8.5509    0.6139   -5.7538 H       1  UNL1        0.0543
     60 H           8.2909   -1.0244   -6.3654 H       1  UNL1        0.0543
     61 H          10.6841    1.4893   -5.9767 H       1  UNL1        0.0621
     62 H          13.1318    1.2105   -5.9937 H       1  UNL1        0.0618
     63 H          14.1306   -1.0397   -5.6851 H       1  UNL1        0.0618
     64 H          12.6663   -3.0284   -5.4359 H       1  UNL1        0.0618
     65 H          10.2221   -2.7815   -5.5420 H       1  UNL1        0.0621
     66 H           9.0873   -2.0955   -1.4313 H       1  UNL1        0.1735
@<TRIPOS>BOND
     1     1     2    1
     2     2     3    1
     3     2     4    1
     4     4     5    1
     5     5     6    1
     6     6     7   am
     7     7     8    2
     8     7     9    1
     9     9    10    1
    10    10    11    1
    11    11    12    1
    12    12    13   am
    13    13    14    2
    14    13    15    1
    15    15    16   ar
    16    16    17   ar
    17    17    18   ar
    18    18    19   ar
    19    15    19   ar
    20     6    20    1
    21    20    21   ar
    22    21    22    1
    23    21    23   ar
    24    23    24    1
    25    24    25    1
    26    25    26   ar
    27    26    27   ar
    28    27    28   ar
    29    28    29   ar
    30    29    30   ar
    31    25    30   ar
    32    23    31   ar
    33    31    32    2
    34    31    33   ar
    35    33    34   ar
    36    20    34   ar
    37    34    35    2
    38     1    36    1
    39     1    37    1
    40     1    38    1
    41     2    39    1
    42     3    40    1
    43     3    41    1
    44     3    42    1
    45     4    43    1
    46     4    44    1
    47     5    45    1
    48     5    46    1
    49     9    47    1
    50     9    48    1
    51    10    49    1
    52    10    50    1
    53    11    51    1
    54    11    52    1
    55    12    53    1
    56    16    54    1
    57    17    55    1
    58    19    56    1
    59    22    57    1
    60    22    58    1
    61    24    59    1
    62    24    60    1
    63    26    61    1
    64    27    62    1
    65    28    63    1
    66    29    64    1
    67    30    65    1
    68    33    66    1
