REMARK  6 active torsions:
REMARK  status: ('A' for Active; 'I' for Inactive)
REMARK    1  A    between atoms: C_2  and  C_3 
REMARK    2  A    between atoms: C_3  and  C_4 
REMARK    3  A    between atoms: C_3  and  C_6 
REMARK       I    between atoms: C_6  and  N_8 
REMARK    4  A    between atoms: N_8  and  N_9 
REMARK       I    between atoms: N_9  and  C_10 
REMARK    5  A    between atoms: C_10  and  C_12 
REMARK    6  A    between atoms: C_16  and  N_17 
ROOT
ATOM      1  N   UNL d   1       6.649   2.617   0.319  0.00  0.00    -0.263 N 
ATOM      2  C   UNL d   1       7.310   3.816   0.566  0.00  0.00     0.270 C 
ATOM      3  O   UNL d   1       6.727   4.869   0.784  0.00  0.00    -0.266 OA
ATOM      4  H   UNL d   1       7.113   1.717   0.218  0.00  0.00     0.190 HD
ENDROOT
BRANCH   1   5
ATOM      5  N   UNL d   1       5.221   2.581   0.328  0.00  0.00    -0.267 N 
ATOM      6  C   UNL d   1       4.581   1.357   0.168  0.00  0.00     0.240 C 
ATOM      7  O   UNL d   1       5.240   0.329  -0.002  0.00  0.00    -0.271 OA
ATOM      8  H   UNL d   1       4.746   3.472   0.455  0.00  0.00     0.190 HD
BRANCH   6   9
ATOM      9  C   UNL d   1       3.015   1.361   0.186  0.00  0.00     0.079 C 
BRANCH   9  10
ATOM     10  C   UNL d   1       2.494  -0.081  -0.091  0.00  0.00     0.010 C 
ATOM     11  C   UNL d   1       0.987  -0.264  -0.252  0.00  0.00     0.006 C 
ENDBRANCH   9  10
BRANCH   9  12
ATOM     12  C   UNL d   1       2.497   1.939   1.522  0.00  0.00     0.010 C 
ATOM     13  C   UNL d   1       0.987   2.121   1.645  0.00  0.00     0.006 C 
ENDBRANCH   9  12
ENDBRANCH   6   9
ENDBRANCH   1   5
BRANCH   2  14
ATOM     14  C   UNL d   1       8.811   3.794   0.533  0.00  0.00     0.036 A 
ATOM     15  C   UNL d   1       9.541   4.603   1.425  0.00  0.00     0.017 A 
ATOM     16  C   UNL d   1      10.934   4.734   1.305  0.00  0.00     0.003 A 
ATOM     17  C   UNL d   1      11.622   4.020   0.325  0.00  0.00     0.036 A 
ATOM     18  C   UNL d   1      10.899   3.214  -0.564  0.00  0.00     0.103 A 
ATOM     19  C   UNL d   1       9.498   3.096  -0.466  0.00  0.00     0.053 A 
BRANCH  18  20
ATOM     20  N   UNL d   1      11.606   2.529  -1.655  0.00  0.00    -0.116 N 
ATOM     21  O   UNL d   1      12.836   2.662  -1.722  0.00  0.00    -0.532 OA
ATOM     22  O   UNL d   1      10.926   1.865  -2.449  0.00  0.00    -0.532 OA
ENDBRANCH  18  20
ENDBRANCH   2  14
TORSDOF 6
