REMARK  9 active torsions:
REMARK  status: ('A' for Active; 'I' for Inactive)
REMARK    1  A    between atoms: C_2  and  C_11 
REMARK    2  A    between atoms: C_2  and  O_3 
REMARK    3  A    between atoms: O_3  and  C_4 
REMARK       I    between atoms: C_11  and  N_13 
REMARK    4  A    between atoms: N_13  and  C_14 
REMARK    5  A    between atoms: C_17  and  N_18 
REMARK    6  A    between atoms: N_18  and  C_19 
REMARK    7  A    between atoms: C_19  and  N_21 
REMARK       I    between atoms: N_21  and  C_22 
REMARK    8  A    between atoms: C_22  and  C_24 
REMARK    9  A    between atoms: C_28  and  N_29 
ROOT
ATOM      1  C   UNL d   1       5.025  -0.865   2.849  0.00  0.00     0.034 A 
ATOM      2  C   UNL d   1       6.202  -0.350   3.414  0.00  0.00     0.032 A 
ATOM      3  C   UNL d   1       6.766  -0.915   4.614  0.00  0.00     0.032 A 
ATOM      4  C   UNL d   1       6.147  -2.002   5.257  0.00  0.00     0.034 A 
ATOM      5  C   UNL d   1       5.042  -2.498   4.579  0.00  0.00     0.032 A 
ATOM      6  C   UNL d   1       4.453  -1.942   3.462  0.00  0.00     0.032 A 
ENDROOT
BRANCH   4   7
ATOM      7  N   UNL d   1       6.593  -2.576   6.531  0.00  0.00    -0.333 N 
ATOM      8  H   UNL d   1       7.405  -2.116   6.930  0.00  0.00     0.168 HD
BRANCH   7   9
ATOM      9  C   UNL d   1       5.923  -3.594   7.288  0.00  0.00     0.179 C 
ATOM     10  S   UNL d   1       4.465  -4.351   6.876  0.00  0.00    -0.040 SA
BRANCH   9  11
ATOM     11  N   UNL d   1       6.557  -3.983   8.492  0.00  0.00    -0.299 N 
ATOM     12  C   UNL d   1       6.081  -5.038   9.300  0.00  0.00     0.257 C 
ATOM     13  O   UNL d   1       5.104  -5.769   9.077  0.00  0.00    -0.267 OA
ATOM     14  H   UNL d   1       7.381  -3.486   8.801  0.00  0.00     0.171 HD
BRANCH  12  15
ATOM     15  C   UNL d   1       6.684  -5.407  10.579  0.00  0.00     0.034 A 
ATOM     16  C   UNL d   1       6.605  -6.774  10.939  0.00  0.00     0.017 A 
ATOM     17  C   UNL d   1       6.813  -7.184  12.251  0.00  0.00     0.003 A 
ATOM     18  C   UNL d   1       7.166  -6.235  13.204  0.00  0.00     0.036 A 
ATOM     19  C   UNL d   1       7.239  -4.877  12.841  0.00  0.00     0.103 A 
ATOM     20  C   UNL d   1       6.989  -4.448  11.530  0.00  0.00     0.053 A 
BRANCH  19  21
ATOM     21  N   UNL d   1       7.519  -3.872  13.868  0.00  0.00    -0.116 N 
ATOM     22  O   UNL d   1       7.742  -4.266  15.018  0.00  0.00    -0.532 OA
ATOM     23  O   UNL d   1       7.524  -2.683  13.512  0.00  0.00    -0.532 OA
ENDBRANCH  19  21
ENDBRANCH  12  15
ENDBRANCH   9  11
ENDBRANCH   7   9
ENDBRANCH   4   7
BRANCH   1  24
ATOM     24  N   UNL d   1       4.453  -0.423   1.636  0.00  0.00    -0.325 N 
ATOM     25  C   UNL d   1       3.066  -0.451   1.390  0.00  0.00     0.251 C 
ATOM     26  O   UNL d   1       2.232  -0.769   2.240  0.00  0.00    -0.270 OA
ATOM     27  H   UNL d   1       5.094  -0.075   0.938  0.00  0.00     0.169 HD
BRANCH  25  28
ATOM     28  C   UNL d   1       2.622   0.022  -0.021  0.00  0.00     0.217 C 
ATOM     29  C   UNL d   1       3.219   1.419  -0.213  0.00  0.00     0.050 C 
BRANCH  28  30
ATOM     30  O   UNL d   1       1.179   0.031  -0.056  0.00  0.00    -0.335 OA
BRANCH  30  31
ATOM     31  C   UNL d   1       0.501   0.451  -1.170  0.00  0.00     0.091 A 
ATOM     32  C   UNL d   1       1.126   0.842  -2.356  0.00  0.00     0.038 A 
ATOM     33  C   UNL d   1       0.410   1.398  -3.413  0.00  0.00     0.003 A 
ATOM     34  C   UNL d   1      -0.975   1.439  -3.362  0.00  0.00     0.002 A 
ATOM     35  C   UNL d   1      -1.634   0.976  -2.225  0.00  0.00     0.026 A 
ATOM     36  C   UNL d   1      -0.902   0.513  -1.121  0.00  0.00     0.067 A 
ATOM     37 CL   UNL d   1      -1.793   0.011   0.274  0.00  0.00    -0.081 Cl
ENDBRANCH  30  31
ENDBRANCH  28  30
ENDBRANCH  25  28
ENDBRANCH   1  24
TORSDOF 9
