@<TRIPOS>MOLECULE
*****
 37 39 0 0 0
SMALL
GASTEIGER

@<TRIPOS>ATOM
      1 O           5.7302   -3.2133    4.2277 O.2     1  UNL1       -0.2685
      2 C           5.6334   -4.2800    3.6196 C.2     1  UNL1        0.2642
      3 N           4.8988   -4.3865    2.4500 N.am    1  UNL1       -0.3083
      4 C           4.1648   -3.2350    1.9231 C.3     1  UNL1        0.0306
      5 C           3.2417   -3.5157    0.7084 C.3     1  UNL1        0.0418
      6 N           2.2992   -2.3815    0.4882 N.am    1  UNL1       -0.3054
      7 C           2.0174   -1.8380   -0.7628 C.2     1  UNL1        0.2644
      8 O           2.7602   -2.0233   -1.7319 O.2     1  UNL1       -0.2685
      9 C           0.7602   -1.0364   -0.8622 C.ar    1  UNL1        0.1468
     10 C           0.1894   -0.1619    0.1097 C.ar    1  UNL1       -0.0120
     11 C          -0.9498    0.3572   -0.4620 C.ar    1  UNL1        0.0231
     12 N          -1.0319   -0.2088   -1.6976 N.ar    1  UNL1       -0.2840
     13 N          -0.0200   -1.0524   -1.9660 N.ar    1  UNL1       -0.1692
     14 C           2.3855   -4.7435    0.9686 C.3     1  UNL1       -0.0211
     15 C           1.5998   -5.2330   -0.2228 C.3     1  UNL1       -0.0482
     16 C           2.5600   -6.1638    0.4487 C.3     1  UNL1       -0.0482
     17 C           6.2253   -5.5231    4.1585 C.ar    1  UNL1        0.1468
     18 C           6.3099   -5.8497    5.5419 C.ar    1  UNL1       -0.0120
     19 C           6.9904   -7.0387    5.6102 C.ar    1  UNL1        0.0231
     20 N           7.2990   -7.3567    4.3216 N.ar    1  UNL1       -0.2840
     21 N           6.7861   -6.4970    3.4105 N.ar    1  UNL1       -0.1692
     22 H           4.7690   -5.3149    2.0620 H       1  UNL1        0.1491
     23 H           4.8962   -2.4604    1.6621 H       1  UNL1        0.0480
     24 H           3.5647   -2.8221    2.7463 H       1  UNL1        0.0480
     25 H           3.8529   -3.6652   -0.1900 H       1  UNL1        0.0516
     26 H           1.6240   -2.2062    1.2191 H       1  UNL1        0.1494
     27 H           0.5838    0.0900    1.0816 H       1  UNL1        0.0656
     28 H          -1.6838    1.0735   -0.1160 H       1  UNL1        0.0824
     29 H          -1.7455   -0.0588   -2.4070 H       1  UNL1        0.1882
     30 H           1.9776   -4.7330    1.9749 H       1  UNL1        0.0319
     31 H           1.8911   -4.8843   -1.2116 H       1  UNL1        0.0269
     32 H           0.5296   -5.3133   -0.0932 H       1  UNL1        0.0269
     33 H           3.4519   -6.4619   -0.0877 H       1  UNL1        0.0269
     34 H           2.1131   -6.9801    1.0153 H       1  UNL1        0.0269
     35 H           5.9165   -5.2734    6.3673 H       1  UNL1        0.0656
     36 H           7.2912   -7.6567    6.4462 H       1  UNL1        0.0824
     37 H           7.8421   -8.1525    3.9979 H       1  UNL1        0.1882
@<TRIPOS>BOND
     1     1     2    2
     2     2     3   am
     3     3     4    1
     4     6     7   am
     5     7     8    2
     6     7     9    1
     7     9    10   ar
     8    10    11   ar
     9    11    12   ar
    10    12    13   ar
    11     9    13   ar
    12     5    14    1
    13    14    15    1
    14    15    16    1
    15    14    16    1
    16     2    17    1
    17    17    18   ar
    18    18    19   ar
    19    19    20   ar
    20    20    21   ar
    21    17    21   ar
    22     5     6    1
    23     5     4    1
    24     3    22    1
    25     4    23    1
    26     4    24    1
    27     5    25    1
    28     6    26    1
    29    10    27    1
    30    11    28    1
    31    12    29    1
    32    14    30    1
    33    15    31    1
    34    15    32    1
    35    16    33    1
    36    16    34    1
    37    18    35    1
    38    19    36    1
    39    20    37    1
