@<TRIPOS>MOLECULE
*****
 52 54 0 0 0
SMALL
GASTEIGER

@<TRIPOS>ATOM
      1 C           1.0968   -0.0784   -0.0138 C.3     1  UNL1        0.0788
      2 O           2.5265   -0.1101   -0.0385 O.3     1  UNL1       -0.4949
      3 C           3.2017   -0.3413    1.1397 C.ar    1  UNL1        0.1268
      4 C           2.8370   -1.5053    1.9440 C.ar    1  UNL1       -0.0133
      5 C           3.5044   -1.9142    3.0404 C.ar    1  UNL1        0.0197
      6 C           4.6777   -1.1241    3.4117 C.ar    1  UNL1        0.2784
      7 C           5.0368    0.0698    2.5982 C.ar    1  UNL1        0.2817
      8 C           4.2679    0.4284    1.4200 C.ar    1  UNL1        0.0578
      9 N           6.0818    0.6153    3.1030 N.2     1  UNL1       -0.1659
     10 C           6.5930   -0.2089    4.2448 C.3     1  UNL1        0.3955
     11 S           8.2873   -0.7453    3.8960 S.3     1  UNL1       -0.0025
     12 C           8.8084   -1.6234    5.4218 C.3     1  UNL1        0.0829
     13 C          10.2427   -2.1879    5.2533 C.2     1  UNL1        0.2260
     14 O          10.8776   -2.0225    4.2127 O.2     1  UNL1       -0.2747
     15 N          10.7664   -2.9058    6.3184 N.am    1  UNL1       -0.2950
     16 C          10.0332   -3.1141    7.5609 C.3     1  UNL1        0.0037
     17 C          12.1554   -3.4797    6.2132 C.3     1  UNL1        0.0910
     18 C          12.6568   -4.2966    7.4443 C.2     1  UNL1        0.2346
     19 O          12.0031   -4.3533    8.4870 O.2     1  UNL1       -0.2737
     20 N          13.8929   -4.9126    7.3580 N.am    1  UNL1       -0.2837
     21 C          14.4203   -5.5958    8.5008 C.ar    1  UNL1        0.0451
     22 C          13.5831   -6.4240    9.2729 C.ar    1  UNL1       -0.0399
     23 C          14.0254   -7.0060   10.4613 C.ar    1  UNL1       -0.0600
     24 C          15.3527   -6.8695   10.8375 C.ar    1  UNL1       -0.0611
     25 C          16.2221   -6.1313   10.0342 C.ar    1  UNL1       -0.0483
     26 C          15.7539   -5.4312    8.8990 C.ar    1  UNL1        0.0759
     27 C          16.6798   -4.4428    8.2455 C.3     1  UNL1        0.4191
     28 F          17.1552   -3.5121    9.1188 F       1  UNL1       -0.1658
     29 F          17.7651   -5.0321    7.6817 F       1  UNL1       -0.1658
     30 F          16.0916   -3.7231    7.2400 F       1  UNL1       -0.1658
     31 N           5.5325   -1.2606    4.3566 N.2     1  UNL1       -0.1660
     32 H           0.7518    0.2345   -1.0056 H       1  UNL1        0.0660
     33 H           0.7280    0.6465    0.7186 H       1  UNL1        0.0660
     34 H           0.6795   -1.0706    0.1768 H       1  UNL1        0.0660
     35 H           1.9825   -2.0938    1.6065 H       1  UNL1        0.0656
     36 H           3.1994   -2.7984    3.5917 H       1  UNL1        0.0687
     37 H           4.5565    1.2518    0.7756 H       1  UNL1        0.0723
     38 H           6.5689    1.4081    2.6842 H       1  UNL1        0.4537
     39 H           6.5401    0.4262    5.1371 H       1  UNL1        0.2074
     40 H           8.1168   -2.4552    5.5925 H       1  UNL1        0.0475
     41 H           8.7839   -0.9235    6.2635 H       1  UNL1        0.0475
     42 H           9.0379   -2.6786    7.5627 H       1  UNL1        0.0429
     43 H          10.5835   -2.6347    8.3755 H       1  UNL1        0.0429
     44 H           9.9004   -4.1907    7.7034 H       1  UNL1        0.0429
     45 H          12.8449   -2.6443    6.0288 H       1  UNL1        0.0560
     46 H          12.1808   -4.1214    5.3229 H       1  UNL1        0.0560
     47 H          14.5607   -4.5241    6.6955 H       1  UNL1        0.1549
     48 H          12.5573   -6.6171    8.9663 H       1  UNL1        0.0636
     49 H          13.3354   -7.5737   11.0816 H       1  UNL1        0.0618
     50 H          15.7086   -7.3341   11.7550 H       1  UNL1        0.0618
     51 H          17.2731   -6.0737   10.3178 H       1  UNL1        0.0624
     52 H           5.4857   -1.9971    5.0635 H       1  UNL1        0.4537
@<TRIPOS>UNITY_ATOM_ATTR
9 1
charge 1
31 1
charge 1
@<TRIPOS>BOND
     1     1     2    1
     2     2     3    1
     3     3     4   ar
     4     4     5   ar
     5     5     6   ar
     6     6     7   ar
     7     7     8   ar
     8     3     8   ar
     9     7     9    2
    10     9    10    1
    11    10    11    1
    12    11    12    1
    13    12    13    1
    14    13    14    2
    15    13    15   am
    16    15    16    1
    17    15    17    1
    18    17    18    1
    19    18    19    2
    20    18    20   am
    21    20    21    1
    22    21    22   ar
    23    22    23   ar
    24    23    24   ar
    25    24    25   ar
    26    25    26   ar
    27    21    26   ar
    28    26    27    1
    29    27    28    1
    30    27    29    1
    31    27    30    1
    32    10    31    1
    33     6    31    2
    34     1    32    1
    35     1    33    1
    36     1    34    1
    37     4    35    1
    38     5    36    1
    39     8    37    1
    40     9    38    1
    41    10    39    1
    42    12    40    1
    43    12    41    1
    44    16    42    1
    45    16    43    1
    46    16    44    1
    47    17    45    1
    48    17    46    1
    49    20    47    1
    50    22    48    1
    51    23    49    1
    52    24    50    1
    53    25    51    1
    54    31    52    1
