@<TRIPOS>MOLECULE
*****
 56 59 0 0 0
SMALL
GASTEIGER

@<TRIPOS>ATOM
      1 C           1.1121   -0.0058    0.0214 C.3     1  UNL1       -0.0307
      2 C           2.6290    0.0184    0.0241 C.3     1  UNL1        0.0868
      3 O           3.0683    0.9884   -0.9362 O.3     1  UNL1       -0.4922
      4 C           4.4151    1.0095   -1.1686 C.ar    1  UNL1        0.1206
      5 C           5.0097    2.2343   -1.4949 C.ar    1  UNL1       -0.0182
      6 C           6.3777    2.3154   -1.8480 C.ar    1  UNL1       -0.0370
      7 C           7.1714    1.1642   -1.8261 C.ar    1  UNL1        0.0336
      8 N           8.5768    1.2064   -2.0755 N.am    1  UNL1       -0.2848
      9 C           9.3915    0.0704   -1.9724 C.2     1  UNL1        0.2273
     10 O           8.9877   -1.0564   -1.6913 O.2     1  UNL1       -0.2746
     11 C          10.8762    0.2718   -2.1548 C.3     1  UNL1        0.0782
     12 S          11.7399   -1.3560   -1.9431 S.3     1  UNL1       -0.0541
     13 C          13.5013   -1.0133   -2.3275 C.3     1  UNL1        0.3258
     14 N          13.9660   -1.9435   -3.3984 N.2     1  UNL1       -0.0163
     15 C          14.5858   -1.3875   -4.3714 C.2     1  UNL1        0.4088
     16 N          15.0968   -2.0538   -5.4623 N.2     1  UNL1        0.0863
     17 N          15.6090   -1.1927   -6.2398 N.2     1  UNL1       -0.0388
     18 C          15.4694    0.0481   -5.6883 C.2     1  UNL1        0.1084
     19 C          15.9567    1.2875   -6.3332 C.3     1  UNL1       -0.0175
     20 C          14.8501    0.0132   -4.5138 C.2     1  UNL1        0.1883
     21 C          14.4507    0.9569   -3.5044 C.2     1  UNL1        0.3314
     22 N          14.7093    2.2247   -3.6207 N.2     1  UNL1       -0.0985
     23 N          13.7970    0.4331   -2.4032 N.pl3   1  UNL1       -0.1336
     24 C          13.5479    1.3095   -1.3238 C.ar    1  UNL1        0.1288
     25 C          12.8646    2.5226   -1.6262 C.ar    1  UNL1       -0.0164
     26 C          12.6845    3.5337   -0.7016 C.ar    1  UNL1       -0.0579
     27 C          13.1675    3.3447    0.5787 C.ar    1  UNL1       -0.0613
     28 C          13.8062    2.1484    0.9218 C.ar    1  UNL1       -0.0550
     29 C          13.9859    1.1096   -0.0085 C.ar    1  UNL1       -0.0056
     30 C          14.6640   -0.1464    0.4504 C.3     1  UNL1       -0.0359
     31 C           6.5330   -0.0406   -1.5246 C.ar    1  UNL1       -0.0370
     32 C           5.1904   -0.1293   -1.1967 C.ar    1  UNL1       -0.0182
     33 H           0.7343   -0.6702    0.8043 H       1  UNL1        0.0262
     34 H           0.7362   -0.3602   -0.9448 H       1  UNL1        0.0262
     35 H           0.7094    0.9986    0.1769 H       1  UNL1        0.0262
     36 H           2.9692   -0.9989   -0.1971 H       1  UNL1        0.0694
     37 H           2.9952    0.3150    1.0128 H       1  UNL1        0.0694
     38 H           4.4004    3.1349   -1.4652 H       1  UNL1        0.0655
     39 H           6.7764    3.2823   -2.1447 H       1  UNL1        0.0637
     40 H           8.9946    2.1191   -2.2275 H       1  UNL1        0.1548
     41 H          11.1323    0.9159   -1.3185 H       1  UNL1        0.0474
     42 H          11.0862    0.7119   -3.1335 H       1  UNL1        0.0474
     43 H          14.0457   -1.4269   -1.4818 H       1  UNL1        0.1471
     44 H          16.4202    1.1040   -7.3011 H       1  UNL1        0.0294
     45 H          16.6970    1.7770   -5.6881 H       1  UNL1        0.0294
     46 H          15.1194    1.9811   -6.4836 H       1  UNL1        0.0294
     47 H          15.1994    2.4905   -4.4641 H       1  UNL1        0.3633
     48 H          12.4521    2.6645   -2.6264 H       1  UNL1        0.0658
     49 H          12.2019    4.4575   -1.0026 H       1  UNL1        0.0619
     50 H          13.0521    4.1325    1.3151 H       1  UNL1        0.0618
     51 H          14.1983    2.0406    1.9300 H       1  UNL1        0.0621
     52 H          15.0444   -0.0658    1.4710 H       1  UNL1        0.0279
     53 H          15.5119   -0.3818   -0.2017 H       1  UNL1        0.0279
     54 H          13.9438   -0.9712    0.4618 H       1  UNL1        0.0279
     55 H           7.0315   -0.9969   -1.5391 H       1  UNL1        0.0637
     56 H           4.8101   -1.1237   -1.0016 H       1  UNL1        0.0655
@<TRIPOS>BOND
     1     1     2    1
     2     2     3    1
     3     3     4    1
     4     4     5   ar
     5     5     6   ar
     6     6     7   ar
     7     7     8    1
     8     8     9   am
     9     9    10    2
    10     9    11    1
    11    11    12    1
    12    12    13    1
    13    13    14    1
    14    14    15    2
    15    15    16    1
    16    16    17    2
    17    17    18    1
    18    18    19    1
    19    18    20    2
    20    15    20    1
    21    20    21    1
    22    21    22    2
    23    21    23    1
    24    13    23    1
    25    23    24    1
    26    24    25   ar
    27    25    26   ar
    28    26    27   ar
    29    27    28   ar
    30    28    29   ar
    31    24    29   ar
    32    29    30    1
    33     7    31   ar
    34    31    32   ar
    35     4    32   ar
    36     1    33    1
    37     1    34    1
    38     1    35    1
    39     2    36    1
    40     2    37    1
    41     5    38    1
    42     6    39    1
    43     8    40    1
    44    11    41    1
    45    11    42    1
    46    13    43    1
    47    19    44    1
    48    19    45    1
    49    19    46    1
    50    22    47    1
    51    25    48    1
    52    26    49    1
    53    27    50    1
    54    28    51    1
    55    30    52    1
    56    30    53    1
    57    30    54    1
    58    31    55    1
    59    32    56    1
