REMARK  7 active torsions:
REMARK  status: ('A' for Active; 'I' for Inactive)
REMARK    1  A    between atoms: C_2  and  N_5 
REMARK       I    between atoms: N_5  and  C_6 
REMARK    2  A    between atoms: C_8  and  C_6 
REMARK    3  A    between atoms: C_8  and  N_19 
REMARK    4  A    between atoms: C_8  and  C_9 
REMARK    5  A    between atoms: C_11  and  N_12 
REMARK       I    between atoms: N_19  and  C_20 
REMARK    6  A    between atoms: N_19  and  C_29 
REMARK    7  A    between atoms: C_20  and  C_22 
ROOT
ATOM      1  C   UNL d   1       4.868   1.262  -2.734  0.00  0.00     0.220 C 
ENDROOT
BRANCH   1   2
ATOM      2  N   UNL d   1       6.374   1.223  -2.643  0.00  0.00    -0.296 N 
ATOM      3  C   UNL d   1       7.207   0.645  -1.621  0.00  0.00     0.259 C 
ATOM      4  O   UNL d   1       8.426   0.714  -1.640  0.00  0.00    -0.267 OA
BRANCH   3   5
ATOM      5  C   UNL d   1       6.695  -0.001  -0.360  0.00  0.00     0.032 C 
ATOM      6  C   UNL d   1       5.957  -1.186  -0.362  0.00  0.00     0.018 C 
ATOM      7  C   UNL d   1       5.372  -1.676   0.827  0.00  0.00     0.025 C 
ATOM      8  C   UNL d   1       5.580  -1.026   2.041  0.00  0.00     0.034 C 
ATOM      9 CL   UNL d   1       4.676  -1.505   3.433  0.00  0.00    -0.084 Cl
ATOM     10  C   UNL d   1       6.401   0.098   2.078  0.00  0.00     0.025 C 
ATOM     11  C   UNL d   1       6.974   0.595   0.886  0.00  0.00     0.018 C 
ENDBRANCH   3   5
BRANCH   2  12
ATOM     12  C   UNL d   1       7.050   1.679  -3.874  0.00  0.00     0.038 A 
ATOM     13  C   UNL d   1       8.137   0.992  -4.439  0.00  0.00     0.030 A 
ATOM     14  C   UNL d   1       8.850   1.521  -5.534  0.00  0.00     0.002 A 
ATOM     15  C   UNL d   1       8.445   2.705  -6.143  0.00  0.00     0.000 A 
ATOM     16  C   UNL d   1       7.341   3.371  -5.642  0.00  0.00     0.002 A 
ATOM     17  C   UNL d   1       6.667   2.866  -4.524  0.00  0.00     0.030 A 
ENDBRANCH   2  12
ENDBRANCH   1   2
BRANCH   1  18
ATOM     18  C   UNL d   1       4.074   0.757  -1.546  0.00  0.00    -0.002 A 
ATOM     19  C   UNL d   1       4.152   1.508  -0.349  0.00  0.00     0.047 A 
ATOM     20  C   UNL d   1       3.495   1.143   0.812  0.00  0.00     0.103 A 
ATOM     21  C   UNL d   1       2.777  -0.053   0.805  0.00  0.00     0.038 A 
ATOM     22  C   UNL d   1       2.702  -0.829  -0.379  0.00  0.00     0.027 A 
ATOM     23  C   UNL d   1       3.307  -0.410  -1.568  0.00  0.00     0.043 A 
ATOM     24 CL   UNL d   1       3.348  -1.520  -2.897  0.00  0.00    -0.084 Cl
BRANCH  20  25
ATOM     25  N   UNL d   1       3.847   1.882   2.045  0.00  0.00    -0.116 N 
ATOM     26  O   UNL d   1       4.553   2.901   1.917  0.00  0.00    -0.532 OA
ATOM     27  O   UNL d   1       3.478   1.426   3.128  0.00  0.00    -0.532 OA
ENDBRANCH  20  25
ENDBRANCH   1  18
BRANCH   1  28
ATOM     28  C   UNL d   1       4.111   2.568  -3.134  0.00  0.00     0.246 C 
ATOM     29  N   UNL d   1       3.997   3.586  -2.185  0.00  0.00    -0.351 N 
ATOM     30  H   UNL d   1       4.700   3.736  -1.472  0.00  0.00     0.163 HD
ATOM     31  O   UNL d   1       3.505   2.601  -4.206  0.00  0.00    -0.271 OA
BRANCH  29  32
ATOM     32  C   UNL d   1       2.787   4.410  -2.139  0.00  0.00     0.022 C 
ATOM     33  C   UNL d   1       2.737   5.281  -0.865  0.00  0.00     0.037 C 
ATOM     34  C   UNL d   1       1.541   3.496  -2.101  0.00  0.00     0.037 C 
ATOM     35  C   UNL d   1       2.791   5.327  -3.359  0.00  0.00     0.037 C 
ENDBRANCH  29  32
ENDBRANCH   1  28
TORSDOF 7
