@<TRIPOS>MOLECULE
*****
 43 44 0 0 0
SMALL
GASTEIGER

@<TRIPOS>ATOM
      1 C           1.8915    3.8596    0.6929 C.3     1  UNL1       -0.0174
      2 S           2.9438    2.5768    1.4206 S.3     1  UNL1       -0.1517
      3 C           3.4924    1.6825   -0.0901 C.3     1  UNL1        0.0786
      4 C           2.9233    0.2582   -0.0556 C.3     1  UNL1       -0.0449
      5 C           5.0285    1.6023   -0.1221 C.2     1  UNL1        0.2299
      6 O           5.6051    0.5129   -0.1228 O.2     1  UNL1       -0.2743
      7 N           5.7030    2.8217   -0.1789 N.am    1  UNL1       -0.2843
      8 C           7.1235    2.8753   -0.1733 C.ar    1  UNL1        0.0371
      9 C           7.8421    1.9801   -0.9856 C.ar    1  UNL1       -0.0281
     10 C           9.2391    1.9645   -1.0062 C.ar    1  UNL1        0.0388
     11 C          10.0322    1.0095   -1.8470 C.2     1  UNL1        0.2483
     12 O          11.2648    1.0590   -1.7713 O.2     1  UNL1       -0.2699
     13 N           9.3436    0.1726   -2.7147 N.am    1  UNL1       -0.2815
     14 C           9.9771   -0.7489   -3.5744 C.ar    1  UNL1        0.0337
     15 C           9.4925   -0.9094   -4.8760 C.ar    1  UNL1       -0.0405
     16 C          10.0871   -1.8378   -5.7367 C.ar    1  UNL1       -0.0600
     17 C          11.1741   -2.5959   -5.3033 C.ar    1  UNL1       -0.0616
     18 C          11.6413   -2.4560   -3.9982 C.ar    1  UNL1       -0.0600
     19 C          11.0458   -1.5328   -3.1370 C.ar    1  UNL1       -0.0405
     20 C           9.9236    2.8793   -0.1957 C.ar    1  UNL1       -0.0493
     21 C           9.2228    3.7802    0.6152 C.ar    1  UNL1       -0.0564
     22 C           7.8165    3.7955    0.6314 C.ar    1  UNL1       -0.0292
     23 C           7.1097    4.7196    1.5831 C.3     1  UNL1       -0.0380
     24 H           1.4676    4.4612    1.5034 H       1  UNL1        0.0341
     25 H           1.0650    3.4352    0.1164 H       1  UNL1        0.0341
     26 H           2.4902    4.5188    0.0598 H       1  UNL1        0.0341
     27 H           3.1473    2.1905   -0.9973 H       1  UNL1        0.0504
     28 H           3.2690   -0.2938    0.8287 H       1  UNL1        0.0245
     29 H           3.2667   -0.3124   -0.9285 H       1  UNL1        0.0245
     30 H           1.8296    0.2436   -0.0650 H       1  UNL1        0.0245
     31 H           5.1945    3.6423    0.1274 H       1  UNL1        0.1548
     32 H           7.2771    1.2955   -1.6039 H       1  UNL1        0.0644
     33 H           8.3601    0.3216   -2.8860 H       1  UNL1        0.1551
     34 H           8.7015   -0.2701   -5.2584 H       1  UNL1        0.0636
     35 H           9.7109   -1.9645   -6.7486 H       1  UNL1        0.0618
     36 H          11.6616   -3.2909   -5.9821 H       1  UNL1        0.0618
     37 H          12.4673   -3.0665   -3.6438 H       1  UNL1        0.0618
     38 H          11.4020   -1.4548   -2.1133 H       1  UNL1        0.0636
     39 H          11.0135    2.8914   -0.1828 H       1  UNL1        0.0625
     40 H           9.7922    4.4551    1.2536 H       1  UNL1        0.0621
     41 H           7.8167    5.3238    2.1630 H       1  UNL1        0.0278
     42 H           6.5145    4.1415    2.2984 H       1  UNL1        0.0278
     43 H           6.4593    5.4054    1.0335 H       1  UNL1        0.0278
@<TRIPOS>BOND
     1     1     2    1
     2     3     5    1
     3     5     6    2
     4     5     7   am
     5     7     8    1
     6     8     9   ar
     7     9    10   ar
     8    10    11    1
     9    11    12    2
    10    11    13   am
    11    13    14    1
    12    14    15   ar
    13    15    16   ar
    14    16    17   ar
    15    17    18   ar
    16    18    19   ar
    17    14    19   ar
    18    10    20   ar
    19    20    21   ar
    20    21    22   ar
    21     8    22   ar
    22    22    23    1
    23     3     4    1
    24     3     2    1
    25     1    24    1
    26     1    25    1
    27     1    26    1
    28     3    27    1
    29     4    28    1
    30     4    29    1
    31     4    30    1
    32     7    31    1
    33     9    32    1
    34    13    33    1
    35    15    34    1
    36    16    35    1
    37    17    36    1
    38    18    37    1
    39    19    38    1
    40    20    39    1
    41    21    40    1
    42    23    41    1
    43    23    42    1
    44    23    43    1
