@<TRIPOS>MOLECULE
*****
 47 50 0 0 0
SMALL
GASTEIGER

@<TRIPOS>ATOM
      1 N           4.4932   -0.2998   -2.7274 N.1     1  UNL1       -0.1957
      2 C           4.1144   -0.1534   -1.6504 C.1     1  UNL1        0.0762
      3 C           3.7664   -0.0715   -0.2152 C.3     1  UNL1        0.1335
      4 C           4.4618   -1.2620    0.3865 C.2     1  UNL1        0.2362
      5 O           3.8290   -2.1468    0.9579 O.2     1  UNL1       -0.2740
      6 N           5.8613   -1.1941    0.3000 N.am    1  UNL1       -0.2688
      7 C           6.5601    0.0261    0.4168 C.ar    1  UNL1        0.1375
      8 N           7.9299   -0.0078    0.6481 N.ar    1  UNL1       -0.2003
      9 C           8.5382    1.0877    1.0411 C.ar    1  UNL1        0.2000
     10 N           9.9069    1.1949    1.2985 N.pl3   1  UNL1       -0.3010
     11 C          10.5334    1.7484    2.5151 C.3     1  UNL1        0.0148
     12 C          11.5239    2.8611    2.1333 C.3     1  UNL1       -0.0371
     13 C          12.5585    2.3752    1.1154 C.3     1  UNL1       -0.0502
     14 C          11.8726    1.6770   -0.0608 C.3     1  UNL1       -0.0371
     15 C          10.8933    0.5881    0.4064 C.3     1  UNL1        0.0148
     16 N           7.8469    2.2711    1.1296 N.ar    1  UNL1       -0.2946
     17 C           6.5256    2.3990    0.8379 C.ar    1  UNL1        0.2583
     18 O           5.9390    3.4763    0.8462 O.2     1  UNL1       -0.2674
     19 C           5.8240    1.1487    0.5365 C.ar    1  UNL1        0.0663
     20 C           4.3193    1.1823    0.4848 C.3     1  UNL1        0.0480
     21 C           3.6359    1.4194    1.8652 C.ar    1  UNL1        0.0390
     22 C           2.7403    2.5164    1.9558 C.ar    1  UNL1       -0.0515
     23 C           1.8443    2.6368    3.0305 C.ar    1  UNL1       -0.0611
     24 C           2.0144    1.8736    4.1745 C.ar    1  UNL1       -0.0553
     25 C           2.9896    0.9017    4.1909 C.ar    1  UNL1        0.0159
     26 C           3.7302    0.6118    3.0367 C.ar    1  UNL1        0.2769
     27 N           4.6414   -0.5108    3.2656 N.pl3   1  UNL1        0.0799
     28 O           4.2702   -1.4276    4.0106 O.2     1  UNL1        0.0415
     29 O           5.7768   -0.4193    2.8202 O.co2   1  UNL1       -0.5760
     30 H           2.6763   -0.1410   -0.0967 H       1  UNL1        0.0559
     31 H           6.3701   -2.0324    0.5607 H       1  UNL1        0.1563
     32 H          11.1014    0.9539    3.0244 H       1  UNL1        0.0464
     33 H           9.8040    2.1242    3.2391 H       1  UNL1        0.0464
     34 H          12.0457    3.2385    3.0224 H       1  UNL1        0.0280
     35 H          10.9700    3.7024    1.7018 H       1  UNL1        0.0280
     36 H          13.2635    1.6851    1.5966 H       1  UNL1        0.0266
     37 H          13.1532    3.2243    0.7531 H       1  UNL1        0.0266
     38 H          12.6323    1.2411   -0.7182 H       1  UNL1        0.0280
     39 H          11.3300    2.4319   -0.6439 H       1  UNL1        0.0280
     40 H          11.4455   -0.1966    0.9375 H       1  UNL1        0.0464
     41 H          10.4109    0.1348   -0.4628 H       1  UNL1        0.0464
     42 H           8.3518    3.1318    1.2644 H       1  UNL1        0.1716
     43 H           4.0466    2.0273   -0.1705 H       1  UNL1        0.0420
     44 H           2.7232    3.3093    1.2031 H       1  UNL1        0.0623
     45 H           1.0092    3.3325    2.9831 H       1  UNL1        0.0618
     46 H           1.4170    2.0313    5.0662 H       1  UNL1        0.0620
     47 H           3.1700    0.3389    5.1055 H       1  UNL1        0.0685
@<TRIPOS>UNITY_ATOM_ATTR
27 1
charge 1
29 1
charge -1
@<TRIPOS>BOND
     1     1     2    3
     2     3     4    1
     3     4     5    2
     4     4     6   am
     5     6     7    1
     6     7     8   ar
     7     8     9   ar
     8     9    10    1
     9    10    11    1
    10    11    12    1
    11    12    13    1
    12    13    14    1
    13    14    15    1
    14    10    15    1
    15     9    16   ar
    16    16    17   ar
    17    17    18    2
    18    17    19   ar
    19     7    19   ar
    20    19    20    1
    21     3    20    1
    22    20    21    1
    23    21    22   ar
    24    22    23   ar
    25    23    24   ar
    26    24    25   ar
    27    25    26   ar
    28    21    26   ar
    29    26    27    1
    30    27    28    2
    31    27    29    1
    32     3     2    1
    33     3    30    1
    34     6    31    1
    35    11    32    1
    36    11    33    1
    37    12    34    1
    38    12    35    1
    39    13    36    1
    40    13    37    1
    41    14    38    1
    42    14    39    1
    43    15    40    1
    44    15    41    1
    45    16    42    1
    46    20    43    1
    47    22    44    1
    48    23    45    1
    49    24    46    1
    50    25    47    1
