@<TRIPOS>MOLECULE
*****
 34 35 0 0 0
SMALL
GASTEIGER

@<TRIPOS>ATOM
      1 C           1.0933    0.1006    0.1462 C.3     1  UNL1        0.0125
      2 C           2.5958    0.0518    0.0587 C.2     1  UNL1        0.2142
      3 O           3.1298   -0.4484   -0.9356 O.2     1  UNL1       -0.2758
      4 N           3.2771    0.5213    1.1767 N.am    1  UNL1       -0.2834
      5 C           4.6998    0.5554    1.2090 C.ar    1  UNL1        0.0707
      6 C           5.4181    0.1575    2.3556 C.ar    1  UNL1       -0.0168
      7 C           6.8345    0.1236    2.3550 C.ar    1  UNL1        0.0293
      8 N           7.5388   -0.2461    3.4976 N.pl3   1  UNL1       -0.3396
      9 C           8.9970   -0.3681    3.4977 C.3     1  UNL1        0.0371
     10 C           9.4933   -0.9147    4.8140 C.ar    1  UNL1        0.0061
     11 C           9.4061   -2.2919    5.0971 C.ar    1  UNL1        0.0470
     12 CL          8.8095   -3.4314    3.9388 Cl      1  UNL1       -0.0832
     13 C           9.7939   -2.8019    6.3406 C.ar    1  UNL1       -0.0430
     14 C          10.2875   -1.9508    7.3236 C.ar    1  UNL1       -0.0590
     15 C          10.4128   -0.5915    7.0549 C.ar    1  UNL1       -0.0430
     16 C          10.0247   -0.0764    5.8121 C.ar    1  UNL1        0.0470
     17 CL         10.2381    1.6254    5.5824 Cl      1  UNL1       -0.0832
     18 C           7.4989    0.5642    1.2008 C.ar    1  UNL1       -0.0380
     19 C           6.8001    1.0114    0.0848 C.ar    1  UNL1       -0.0229
     20 C           5.4166    1.0051    0.0945 C.ar    1  UNL1        0.1446
     21 F           4.7846    1.5383   -0.9617 F       1  UNL1       -0.2035
     22 H           0.6793   -0.2952   -0.7901 H       1  UNL1        0.0323
     23 H           0.7389    1.1271    0.2615 H       1  UNL1        0.0323
     24 H           0.7344   -0.5281    0.9641 H       1  UNL1        0.0323
     25 H           2.7720    0.6279    2.0471 H       1  UNL1        0.1549
     26 H           4.8833   -0.1885    3.2368 H       1  UNL1        0.0655
     27 H           7.0346   -0.7298    4.2315 H       1  UNL1        0.1464
     28 H           9.4328    0.6157    3.2969 H       1  UNL1        0.0512
     29 H           9.3599   -1.0105    2.6836 H       1  UNL1        0.0512
     30 H           9.7021   -3.8654    6.5500 H       1  UNL1        0.0632
     31 H          10.5738   -2.3449    8.2953 H       1  UNL1        0.0618
     32 H          10.8067    0.0702    7.8238 H       1  UNL1        0.0632
     33 H           8.5826    0.5797    1.1440 H       1  UNL1        0.0637
     34 H           7.3255    1.3788   -0.7890 H       1  UNL1        0.0647
@<TRIPOS>BOND
     1     1     2    1
     2     2     3    2
     3     2     4   am
     4     4     5    1
     5     5     6   ar
     6     6     7   ar
     7     7     8    1
     8     8     9    1
     9     9    10    1
    10    10    11   ar
    11    11    12    1
    12    11    13   ar
    13    13    14   ar
    14    14    15   ar
    15    15    16   ar
    16    10    16   ar
    17    16    17    1
    18     7    18   ar
    19    18    19   ar
    20    19    20   ar
    21     5    20   ar
    22    20    21    1
    23     1    22    1
    24     1    23    1
    25     1    24    1
    26     4    25    1
    27     6    26    1
    28     8    27    1
    29     9    28    1
    30     9    29    1
    31    13    30    1
    32    14    31    1
    33    15    32    1
    34    18    33    1
    35    19    34    1
