@<TRIPOS>MOLECULE
*****
 46 47 0 0 0
SMALL
GASTEIGER

@<TRIPOS>ATOM
      1 C           1.1645    0.1102    0.0900 C.3     1  UNL1       -0.0251
      2 C           2.6874   -0.0806    0.0449 C.2     1  UNL1        0.0237
      3 C           3.2597   -1.2738   -0.2714 C.2     1  UNL1        0.0184
      4 C           2.5117   -2.5522   -0.4916 C.2     1  UNL1        0.2426
      5 O           1.3468   -2.6760   -0.1113 O.2     1  UNL1       -0.2704
      6 N           3.2089   -3.6137   -1.0479 N.am    1  UNL1       -0.2817
      7 C           2.4985   -4.7960   -1.4189 C.ar    1  UNL1        0.0367
      8 C           2.8997   -6.0453   -0.9175 C.ar    1  UNL1       -0.0388
      9 C           2.1752   -7.2072   -1.2395 C.ar    1  UNL1       -0.0416
     10 C           1.0833   -7.1334   -2.0994 C.ar    1  UNL1        0.0413
     11 CL          0.2031   -8.5517   -2.5206 Cl      1  UNL1       -0.0835
     12 C           0.6970   -5.9086   -2.6287 C.ar    1  UNL1       -0.0387
     13 C           1.3858   -4.7301   -2.2911 C.ar    1  UNL1       -0.0279
     14 C           0.9111   -3.4481   -2.9232 C.3     1  UNL1       -0.0379
     15 N           3.4172    1.0825    0.3423 N.pl3   1  UNL1       -0.2684
     16 N           4.8187    1.2056    0.3746 N.am    1  UNL1       -0.2328
     17 C           5.4257    2.3838    0.7973 C.2     1  UNL1        0.2603
     18 O           4.8212    3.3913    1.1571 O.2     1  UNL1       -0.2687
     19 C           6.9298    2.3778    0.8082 C.ar    1  UNL1        0.0463
     20 C           7.6557    1.8134   -0.2556 C.ar    1  UNL1       -0.0285
     21 C           9.0597    1.8628   -0.2915 C.ar    1  UNL1        0.0317
     22 N           9.7616    1.1739   -1.2776 N.pl3   1  UNL1       -0.3578
     23 C           9.7469    2.4312    0.7837 C.ar    1  UNL1        0.0362
     24 C           9.0340    2.9966    1.8511 C.ar    1  UNL1        0.2756
     25 N           9.7808    3.5907    2.9723 N.pl3   1  UNL1        0.0797
     26 O          11.0196    3.5735    2.9163 O.2     1  UNL1        0.0414
     27 O           9.1285    4.0652    3.9115 O.co2   1  UNL1       -0.5760
     28 C           7.6271    2.9855    1.8638 C.ar    1  UNL1        0.0278
     29 H           0.5688   -0.7426   -0.2340 H       1  UNL1        0.0290
     30 H           0.8510    0.9109   -0.5886 H       1  UNL1        0.0290
     31 H           0.8273    0.3481    1.1043 H       1  UNL1        0.0290
     32 H           4.3345   -1.3540   -0.3435 H       1  UNL1        0.0685
     33 H           4.2004   -3.6897   -0.8586 H       1  UNL1        0.1551
     34 H           3.7231   -6.1345   -0.2136 H       1  UNL1        0.0637
     35 H           2.4527   -8.1667   -0.8083 H       1  UNL1        0.0633
     36 H          -0.1471   -5.8627   -3.3130 H       1  UNL1        0.0635
     37 H           0.1334   -3.6358   -3.6691 H       1  UNL1        0.0278
     38 H           1.7421   -2.9428   -3.4237 H       1  UNL1        0.0278
     39 H           0.4528   -2.7794   -2.1939 H       1  UNL1        0.0278
     40 H           2.8921    1.9147    0.6423 H       1  UNL1        0.1696
     41 H           5.3563    0.3681    0.2099 H       1  UNL1        0.1730
     42 H           7.1267    1.3651   -1.0927 H       1  UNL1        0.0643
     43 H           9.2831    0.9551   -2.1448 H       1  UNL1        0.1423
     44 H          10.7524    1.3749   -1.3858 H       1  UNL1        0.1423
     45 H          10.8368    2.4391    0.7789 H       1  UNL1        0.0704
     46 H           7.0746    3.4359    2.6868 H       1  UNL1        0.0693
@<TRIPOS>UNITY_ATOM_ATTR
25 1
charge 1
27 1
charge -1
@<TRIPOS>BOND
     1     1     2    1
     2     2     3    2
     3     3     4    1
     4     4     5    2
     5     4     6   am
     6     6     7    1
     7     7     8   ar
     8     8     9   ar
     9     9    10   ar
    10    10    11    1
    11    10    12   ar
    12    12    13   ar
    13     7    13   ar
    14    13    14    1
    15     2    15    1
    16    15    16    1
    17    16    17   am
    18    17    18    2
    19    17    19    1
    20    19    20   ar
    21    20    21   ar
    22    21    22    1
    23    21    23   ar
    24    23    24   ar
    25    24    25    1
    26    25    26    2
    27    25    27    1
    28    24    28   ar
    29    19    28   ar
    30     1    29    1
    31     1    30    1
    32     1    31    1
    33     3    32    1
    34     6    33    1
    35     8    34    1
    36     9    35    1
    37    12    36    1
    38    14    37    1
    39    14    38    1
    40    14    39    1
    41    15    40    1
    42    16    41    1
    43    20    42    1
    44    22    43    1
    45    22    44    1
    46    23    45    1
    47    28    46    1
