REMARK  11 active torsions:
REMARK  status: ('A' for Active; 'I' for Inactive)
REMARK    1  A    between atoms: C_2  and  C_5 
REMARK    2  A    between atoms: C_8  and  O_9 
REMARK    3  A    between atoms: O_9  and  C_10 
REMARK    4  A    between atoms: C_10  and  C_11 
REMARK    5  A    between atoms: C_11  and  O_12 
REMARK    6  A    between atoms: O_12  and  C_13 
REMARK    7  A    between atoms: C_19  and  C_20 
REMARK    8  A    between atoms: N_21  and  N_22 
REMARK    9  A    between atoms: N_22  and  C_23 
REMARK   10  A    between atoms: C_25  and  N_26 
REMARK   11  A    between atoms: C_32  and  N_33 
ROOT
ATOM      1  C   UNL d   1       5.870  -7.761   5.714  0.00  0.00     0.080 A 
ATOM      2  C   UNL d   1       5.891  -7.975   7.118  0.00  0.00     0.039 A 
ATOM      3  C   UNL d   1       6.484  -9.095   7.698  0.00  0.00     0.026 A 
ATOM      4  C   UNL d   1       7.035 -10.059   6.871  0.00  0.00     0.035 A 
ATOM      5 CL   UNL d   1       7.718 -11.475   7.580  0.00  0.00    -0.084 Cl
ATOM      6  C   UNL d   1       7.018  -9.896   5.475  0.00  0.00     0.039 A 
ATOM      7  C   UNL d   1       6.445  -8.751   4.856  0.00  0.00     0.018 A 
ENDROOT
BRANCH   7   8
ATOM      8  C   UNL d   1       6.531  -8.751   3.316  0.00  0.00     0.153 C 
ATOM      9  N   UNL d   1       6.225  -7.726   2.625  0.00  0.00    -0.171 NA
BRANCH   9  10
ATOM     10  N   UNL d   1       6.109  -7.568   1.266  0.00  0.00    -0.105 N 
ATOM     11  H   UNL d   1       5.885  -8.349   0.662  0.00  0.00     0.208 HD
BRANCH  10  12
ATOM     12  C   UNL d   1       5.528  -6.327   0.764  0.00  0.00     0.774 C 
ATOM     13  N   UNL d   1       5.957  -5.136   1.269  0.00  0.00     0.133 NA
ATOM     14  C   UNL d   1       5.517  -3.988   0.725  0.00  0.00     0.756 C 
ATOM     15  N   UNL d   1       4.744  -4.054  -0.395  0.00  0.00     0.131 NA
ATOM     16  C   UNL d   1       4.257  -5.274  -0.813  0.00  0.00     0.756 C 
ATOM     17  N   UNL d   1       4.636  -6.423  -0.239  0.00  0.00     0.133 NA
BRANCH  14  18
ATOM     18  N   UNL d   1       5.862  -2.787   1.381  0.00  0.00    -0.213 N 
ATOM     19  C   UNL d   1       7.204  -2.378   1.710  0.00  0.00     0.141 C 
ATOM     20  C   UNL d   1       7.037  -1.530   3.000  0.00  0.00     0.022 C 
ATOM     21  C   UNL d   1       5.827  -0.683   2.716  0.00  0.00     0.022 C 
ATOM     22  C   UNL d   1       5.078  -1.612   1.748  0.00  0.00     0.141 C 
ENDBRANCH  14  18
BRANCH  16  23
ATOM     23  N   UNL d   1       3.261  -5.341  -1.800  0.00  0.00    -0.213 N 
ATOM     24  C   UNL d   1       1.975  -6.062  -1.752  0.00  0.00     0.141 C 
ATOM     25  C   UNL d   1       1.802  -6.617  -3.164  0.00  0.00     0.022 C 
ATOM     26  C   UNL d   1       2.385  -5.503  -4.023  0.00  0.00     0.022 C 
ATOM     27  C   UNL d   1       3.460  -4.813  -3.140  0.00  0.00     0.141 C 
ENDBRANCH  16  23
ENDBRANCH  10  12
ENDBRANCH   9  10
ENDBRANCH   7   8
BRANCH   1  28
ATOM     28  O   UNL d   1       5.314  -6.514   5.466  0.00  0.00    -0.348 OA
BRANCH  28  29
ATOM     29  C   UNL d   1       4.555  -6.358   4.276  0.00  0.00     0.202 C 
BRANCH  29  30
ATOM     30  C   UNL d   1       4.087  -4.959   3.878  0.00  0.00     0.202 C 
BRANCH  30  31
ATOM     31  O   UNL d   1       3.161  -5.084   2.748  0.00  0.00    -0.349 OA
BRANCH  31  32
ATOM     32  C   UNL d   1       2.632  -3.935   2.214  0.00  0.00     0.068 C 
ATOM     33  C   UNL d   1       2.233  -3.889   0.882  0.00  0.00     0.037 C 
ATOM     34  C   UNL d   1       2.202  -2.670   0.138  0.00  0.00     0.011 C 
ATOM     35  C   UNL d   1       2.316  -1.443   0.790  0.00  0.00    -0.050 C 
ATOM     36  C   UNL d   1       2.331  -1.527   2.195  0.00  0.00     0.011 C 
ATOM     37  C   UNL d   1       2.566  -2.745   2.885  0.00  0.00     0.037 C 
BRANCH  35  38
ATOM     38  C   UNL d   1       2.303  -0.064   0.084  0.00  0.00    -0.024 C 
ATOM     39  C   UNL d   1       0.791   0.140  -0.014  0.00  0.00     0.019 C 
ATOM     40  C   UNL d   1       2.951   0.055  -1.327  0.00  0.00     0.019 C 
ATOM     41  C   UNL d   1       2.920   1.131   0.883  0.00  0.00     0.019 C 
ENDBRANCH  35  38
ENDBRANCH  31  32
ENDBRANCH  30  31
ENDBRANCH  29  30
ENDBRANCH  28  29
ENDBRANCH   1  28
TORSDOF 11
