REMARK  10 active torsions:
REMARK  status: ('A' for Active; 'I' for Inactive)
REMARK    1  A    between atoms: C_2  and  C_3 
REMARK    2  A    between atoms: C_3  and  C_4 
REMARK    3  A    between atoms: C_4  and  O_5 
REMARK    4  A    between atoms: O_5  and  C_6 
REMARK    5  A    between atoms: C_9  and  C_10 
REMARK       I    between atoms: C_10  and  N_12 
REMARK    6  A    between atoms: N_12  and  C_13 
REMARK    7  A    between atoms: C_13  and  N_15 
REMARK    8  A    between atoms: N_15  and  N_16 
REMARK       I    between atoms: N_16  and  C_17 
REMARK    9  A    between atoms: C_17  and  C_19 
REMARK   10  A    between atoms: C_19  and  N_20 
ROOT
ATOM      1  C   UNL d   1      13.040   0.600  -3.302  0.00  0.00     0.193 C 
ATOM      2  S   UNL d   1      13.886   1.946  -3.867  0.00  0.00    -0.039 SA
ENDROOT
BRANCH   1   3
ATOM      3  N   UNL d   1      11.645   0.542  -3.083  0.00  0.00    -0.298 N 
ATOM      4  C   UNL d   1      10.716   1.592  -3.294  0.00  0.00     0.257 C 
ATOM      5  O   UNL d   1      11.032   2.711  -3.711  0.00  0.00    -0.267 OA
ATOM      6  H   UNL d   1      11.287  -0.340  -2.747  0.00  0.00     0.171 HD
BRANCH   4   7
ATOM      7  C   UNL d   1       9.248   1.422  -3.023  0.00  0.00     0.033 A 
ATOM      8  C   UNL d   1       8.373   2.504  -3.269  0.00  0.00     0.020 A 
ATOM      9  C   UNL d   1       6.986   2.395  -3.049  0.00  0.00     0.039 A 
ATOM     10  C   UNL d   1       6.434   1.203  -2.558  0.00  0.00     0.086 A 
ATOM     11  C   UNL d   1       7.302   0.117  -2.348  0.00  0.00     0.045 A 
ATOM     12  C   UNL d   1       8.690   0.239  -2.561  0.00  0.00     0.039 A 
ATOM     13 BR   UNL d   1       6.788  -1.663  -1.900  0.00  0.00    -0.048 Br
BRANCH  10  14
ATOM     14  O   UNL d   1       5.065   1.207  -2.428  0.00  0.00    -0.350 OA
BRANCH  14  15
ATOM     15  C   UNL d   1       4.564   0.672  -1.201  0.00  0.00     0.175 C 
BRANCH  15  16
ATOM     16  C   UNL d   1       3.041   0.650  -1.206  0.00  0.00     0.026 C 
BRANCH  16  17
ATOM     17  C   UNL d   1       2.521  -0.030   0.063  0.00  0.00    -0.002 C 
ATOM     18  C   UNL d   1       1.005  -0.059   0.082  0.00  0.00     0.005 C 
ENDBRANCH  16  17
ENDBRANCH  15  16
ENDBRANCH  14  15
ENDBRANCH  10  14
ENDBRANCH   4   7
ENDBRANCH   1   3
BRANCH   1  19
ATOM     19  N   UNL d   1      13.745  -0.578  -3.018  0.00  0.00    -0.273 N 
ATOM     20  H   UNL d   1      13.358  -1.450  -2.653  0.00  0.00     0.189 HD
BRANCH  19  21
ATOM     21  N   UNL d   1      15.180  -0.625  -3.263  0.00  0.00    -0.266 N 
ATOM     22  C   UNL d   1      15.905  -1.720  -2.820  0.00  0.00     0.254 C 
ATOM     23  O   UNL d   1      15.311  -2.613  -2.215  0.00  0.00    -0.270 OA
ATOM     24  H   UNL d   1      15.600   0.251  -3.578  0.00  0.00     0.190 HD
BRANCH  22  25
ATOM     25  C   UNL d   1      17.416  -1.730  -3.150  0.00  0.00     0.233 C 
BRANCH  25  26
ATOM     26  N   UNL d   1      18.089  -3.014  -2.883  0.00  0.00    -0.347 N 
ATOM     27  C   UNL d   1      19.314  -3.147  -2.260  0.00  0.00     0.092 A 
ATOM     28  C   UNL d   1      19.569  -4.493  -2.098  0.00  0.00     0.031 A 
ATOM     29  C   UNL d   1      18.490  -5.211  -2.675  0.00  0.00    -0.008 A 
ATOM     30  C   UNL d   1      18.184  -6.583  -2.787  0.00  0.00     0.014 A 
ATOM     31  C   UNL d   1      17.606  -4.271  -3.212  0.00  0.00     0.044 A 
ATOM     32  C   UNL d   1      16.996  -6.980  -3.409  0.00  0.00     0.001 A 
ATOM     33  C   UNL d   1      16.134  -6.033  -3.944  0.00  0.00     0.002 A 
ATOM     34  C   UNL d   1      16.440  -4.673  -3.885  0.00  0.00     0.030 A 
ENDBRANCH  25  26
ENDBRANCH  22  25
ENDBRANCH  19  21
ENDBRANCH   1  19
TORSDOF 10
