@<TRIPOS>MOLECULE
*****
 36 36 0 0 0
SMALL
GASTEIGER

@<TRIPOS>ATOM
      1 C           1.0662   -0.1042    0.0201 C.3     1  UNL1       -0.0646
      2 C           2.5929   -0.0426    0.0205 C.3     1  UNL1       -0.0450
      3 C           3.1736    1.3246   -0.4249 C.3     1  UNL1        0.0339
      4 C           2.6507    2.4347    0.4877 C.3     1  UNL1       -0.0541
      5 C           4.7226    1.2932   -0.4365 C.2     1  UNL1        0.2319
      6 O           5.3675    0.2939   -0.1106 O.2     1  UNL1       -0.2740
      7 N           5.3606    2.4477   -0.8675 N.am    1  UNL1       -0.2339
      8 N           6.7863    2.4844   -0.8995 N.am    1  UNL1       -0.2303
      9 C           7.4320    3.6629   -1.2613 C.2     1  UNL1        0.2637
     10 O           6.8008    4.6596   -1.6207 O.2     1  UNL1       -0.2685
     11 C           8.9371    3.6646   -1.2303 C.ar    1  UNL1        0.0795
     12 C           9.6643    2.5879   -1.7649 C.ar    1  UNL1       -0.0458
     13 C          11.0735    2.6125   -1.7994 C.ar    1  UNL1       -0.0579
     14 C          11.7834    3.7173   -1.3142 C.ar    1  UNL1       -0.0470
     15 C          13.2863    3.7836   -1.3435 C.3     1  UNL1       -0.0396
     16 C          11.0627    4.7931   -0.7846 C.ar    1  UNL1       -0.0165
     17 C           9.6592    4.7649   -0.7397 C.ar    1  UNL1        0.1292
     18 O           9.0108    5.8253   -0.1683 O.3     1  UNL1       -0.5060
     19 H           0.7215   -1.0965    0.3293 H       1  UNL1        0.0230
     20 H           0.6662    0.1018   -0.9773 H       1  UNL1        0.0230
     21 H           0.6264    0.6096    0.7227 H       1  UNL1        0.0230
     22 H           2.9682   -0.8356   -0.6389 H       1  UNL1        0.0270
     23 H           2.9507   -0.2861    1.0292 H       1  UNL1        0.0270
     24 H           2.8398    1.5164   -1.4534 H       1  UNL1        0.0392
     25 H           2.9640    2.2597    1.5226 H       1  UNL1        0.0237
     26 H           1.5571    2.4911    0.4740 H       1  UNL1        0.0237
     27 H           3.0138    3.4178    0.1811 H       1  UNL1        0.0237
     28 H           4.8848    3.3045   -1.1471 H       1  UNL1        0.1728
     29 H           7.2634    1.6609   -0.5378 H       1  UNL1        0.1731
     30 H           9.1484    1.7322   -2.1932 H       1  UNL1        0.0626
     31 H          11.6104    1.7637   -2.2216 H       1  UNL1        0.0620
     32 H          13.7324    2.8879   -1.7872 H       1  UNL1        0.0278
     33 H          13.6786    3.8850   -0.3252 H       1  UNL1        0.0278
     34 H          13.6162    4.6480   -1.9313 H       1  UNL1        0.0278
     35 H          11.6126    5.6519   -0.4049 H       1  UNL1        0.0657
     36 H           9.6583    6.5017    0.0892 H       1  UNL1        0.2922
@<TRIPOS>BOND
     1     1     2    1
     2     2     3    1
     3     3     4    1
     4     3     5    1
     5     5     6    2
     6     5     7   am
     7     7     8    1
     8     8     9   am
     9     9    10    2
    10     9    11    1
    11    11    12   ar
    12    12    13   ar
    13    13    14   ar
    14    14    15    1
    15    14    16   ar
    16    16    17   ar
    17    11    17   ar
    18    17    18    1
    19     1    19    1
    20     1    20    1
    21     1    21    1
    22     2    22    1
    23     2    23    1
    24     3    24    1
    25     4    25    1
    26     4    26    1
    27     4    27    1
    28     7    28    1
    29     8    29    1
    30    12    30    1
    31    13    31    1
    32    15    32    1
    33    15    33    1
    34    15    34    1
    35    16    35    1
    36    18    36    1
