REMARK  9 active torsions:
REMARK  status: ('A' for Active; 'I' for Inactive)
REMARK    1  A    between atoms: C_2  and  C_3 
REMARK    2  A    between atoms: C_3  and  S_4 
REMARK    3  A    between atoms: S_4  and  C_5 
REMARK    4  A    between atoms: C_10  and  N_11 
REMARK       I    between atoms: N_11  and  C_12 
REMARK    5  A    between atoms: C_12  and  C_14 
REMARK    6  A    between atoms: C_14  and  S_15 
REMARK    7  A    between atoms: S_15  and  C_16 
REMARK    8  A    between atoms: C_19  and  C_20 
REMARK    9  A    between atoms: N_26  and  N_27 
ROOT
ATOM      1  N   UNL d   1       7.692  -8.721   0.840  0.00  0.00    -0.326 N 
ATOM      2  C   UNL d   1       7.158 -10.011   0.711  0.00  0.00     0.231 C 
ATOM      3  O   UNL d   1       5.973 -10.244   0.444  0.00  0.00    -0.272 OA
ATOM      4  H   UNL d   1       8.677  -8.609   1.058  0.00  0.00     0.169 HD
ENDROOT
BRANCH   2   5
ATOM      5  C   UNL d   1       8.103 -11.186   0.932  0.00  0.00     0.185 C 
BRANCH   5   6
ATOM      6  S   UNL d   1       7.172 -12.747   0.728  0.00  0.00    -0.080 SA
BRANCH   6   7
ATOM      7  C   UNL d   1       8.204 -14.102   0.962  0.00  0.00     0.206 A 
ATOM      8  N   UNL d   1       7.763 -15.342   0.893  0.00  0.00    -0.121 NA
ATOM      9  N   UNL d   1       8.828 -16.187   1.088  0.00  0.00    -0.127 NA
ATOM     10  C   UNL d   1       9.901 -15.450   1.304  0.00  0.00     0.179 A 
ATOM     11  N   UNL d   1       9.555 -14.114   1.204  0.00  0.00    -0.235 N 
BRANCH  10  12
ATOM     12  C   UNL d   1      11.229 -15.956   1.621  0.00  0.00     0.013 A 
ATOM     13  C   UNL d   1      11.865 -16.867   0.770  0.00  0.00     0.015 A 
ATOM     14  C   UNL d   1      13.080 -17.444   1.145  0.00  0.00     0.001 A 
ATOM     15  C   UNL d   1      13.699 -17.062   2.335  0.00  0.00     0.000 A 
ATOM     16  C   UNL d   1      13.087 -16.132   3.173  0.00  0.00     0.001 A 
ATOM     17  C   UNL d   1      11.850 -15.592   2.824  0.00  0.00     0.015 A 
ENDBRANCH  10  12
BRANCH  11  18
ATOM     18  N   UNL d   1      10.475 -13.000   1.224  0.00  0.00    -0.239 NA
ATOM     19  H   UNL d   1      11.348 -13.241   1.688  0.00  0.00     0.143 HD
ATOM     20  H   UNL d   1      10.110 -12.212   1.740  0.00  0.00     0.143 HD
ENDBRANCH  11  18
ENDBRANCH   6   7
ENDBRANCH   5   6
ENDBRANCH   2   5
BRANCH   1  21
ATOM     21  C   UNL d   1       6.921  -7.519   0.667  0.00  0.00     0.036 A 
ATOM     22  C   UNL d   1       5.561  -7.580   0.359  0.00  0.00     0.032 A 
ATOM     23  C   UNL d   1       4.761  -6.456   0.174  0.00  0.00     0.035 A 
ATOM     24  C   UNL d   1       5.318  -5.185   0.299  0.00  0.00     0.076 A 
ATOM     25  N   UNL d   1       4.619  -3.999   0.136  0.00  0.00    -0.233 NA
ATOM     26  C   UNL d   1       6.679  -5.089   0.608  0.00  0.00     0.038 A 
ATOM     27  C   UNL d   1       5.431  -2.988   0.304  0.00  0.00     0.135 A 
ATOM     28  S   UNL d   1       7.062  -3.403   0.685  0.00  0.00    -0.061 SA
ATOM     29  C   UNL d   1       7.504  -6.242   0.799  0.00  0.00     0.051 A 
BRANCH  27  30
ATOM     30  S   UNL d   1       4.918  -1.318   0.113  0.00  0.00    -0.103 SA
BRANCH  30  31
ATOM     31  C   UNL d   1       3.092  -1.397   0.096  0.00  0.00     0.081 C 
BRANCH  31  32
ATOM     32  C   UNL d   1       2.534   0.026  -0.066  0.00  0.00     0.006 C 
ATOM     33  C   UNL d   1       1.010   0.050  -0.069  0.00  0.00     0.006 C 
ENDBRANCH  31  32
ENDBRANCH  30  31
ENDBRANCH  27  30
ENDBRANCH   1  21
TORSDOF 9
