@<TRIPOS>MOLECULE
*****
 32 33 0 0 0
SMALL
GASTEIGER

@<TRIPOS>ATOM
      1 C           2.4949   -0.0087   -0.0052 C.3     1  UNL1       -0.0397
      2 C           0.9964   -0.0055    0.0159 C.ar    1  UNL1       -0.0487
      3 C           0.2658   -1.1942    0.0261 C.ar    1  UNL1       -0.0587
      4 C          -1.1262   -1.1504    0.0126 C.ar    1  UNL1       -0.0597
      5 C          -1.7913    0.0834   -0.0437 C.ar    1  UNL1       -0.0394
      6 C          -1.0776    1.2971   -0.0710 C.ar    1  UNL1        0.0447
      7 N          -1.7730    2.5179   -0.3416 N.pl3   1  UNL1       -0.2642
      8 N          -1.0978    3.7126    0.1187 N.am    1  UNL1       -0.2324
      9 C          -1.8226    4.9037    0.0844 C.2     1  UNL1        0.2636
     10 O          -1.4198    5.8546   -0.5926 O.2     1  UNL1       -0.2685
     11 C          -3.0127    5.0802    0.9824 C.ar    1  UNL1        0.0805
     12 C          -3.7009    6.3125    0.9636 C.ar    1  UNL1       -0.0321
     13 C          -4.7704    6.5309    1.8393 C.ar    1  UNL1        0.0188
     14 BR         -5.6886    8.1856    1.8445 Br      1  UNL1       -0.0503
     15 C          -5.1732    5.5386    2.7311 C.ar    1  UNL1       -0.0443
     16 C          -4.5002    4.3227    2.7600 C.ar    1  UNL1       -0.0184
     17 C          -3.4211    4.1067    1.9086 C.ar    1  UNL1        0.1291
     18 O          -2.7646    2.9182    2.0201 O.3     1  UNL1       -0.5060
     19 C           0.3189    1.2241   -0.0245 C.ar    1  UNL1       -0.0365
     20 H           2.8969   -1.0260    0.0053 H       1  UNL1        0.0278
     21 H           2.8835    0.5226    0.8691 H       1  UNL1        0.0278
     22 H           2.8516    0.4862   -0.9148 H       1  UNL1        0.0278
     23 H           0.7753   -2.1556    0.0244 H       1  UNL1        0.0620
     24 H          -1.6903   -2.0808    0.0100 H       1  UNL1        0.0618
     25 H          -2.8777    0.0774   -0.0882 H       1  UNL1        0.0636
     26 H          -2.7068    2.4558    0.0732 H       1  UNL1        0.1700
     27 H          -0.2045    3.8230   -0.3473 H       1  UNL1        0.1730
     28 H          -3.3908    7.1100    0.2879 H       1  UNL1        0.0637
     29 H          -5.9991    5.7026    3.4180 H       1  UNL1        0.0630
     30 H          -4.8088    3.5540    3.4608 H       1  UNL1        0.0654
     31 H          -3.1649    2.3284    2.6748 H       1  UNL1        0.2922
     32 H           0.9160    2.1285   -0.0458 H       1  UNL1        0.0639
@<TRIPOS>BOND
     1     1     2    1
     2     2     3   ar
     3     3     4   ar
     4     4     5   ar
     5     5     6   ar
     6     6     7    1
     7     7     8    1
     8     8     9   am
     9     9    10    2
    10     9    11    1
    11    11    12   ar
    12    12    13   ar
    13    13    14    1
    14    13    15   ar
    15    15    16   ar
    16    16    17   ar
    17    11    17   ar
    18    17    18    1
    19     6    19   ar
    20     2    19   ar
    21     1    20    1
    22     1    21    1
    23     1    22    1
    24     3    23    1
    25     4    24    1
    26     5    25    1
    27     7    26    1
    28     8    27    1
    29    12    28    1
    30    15    29    1
    31    16    30    1
    32    18    31    1
    33    19    32    1
