@<TRIPOS>MOLECULE
*****
 49 52 0 0 0
SMALL
GASTEIGER

@<TRIPOS>ATOM
      1 C           1.0471   -0.1316    0.0779 C.3     1  UNL1       -0.0222
      2 C           2.5507   -0.1354    0.0778 C.ar    1  UNL1        0.0437
      3 C           3.1278    1.2109    0.0761 C.ar    1  UNL1       -0.0209
      4 C           4.4554    1.3071    0.0883 C.ar    1  UNL1        0.0276
      5 C           4.9323    2.6841    0.1000 C.3     1  UNL1       -0.0237
      6 N           5.2604    0.1594    0.0925 N.ar    1  UNL1       -0.2590
      7 C           6.6294   -0.1285    0.0997 C.ar    1  UNL1        0.1978
      8 S           8.0846    0.8691    0.1089 S.3     1  UNL1       -0.0762
      9 C           7.7183    2.6099    0.1069 C.3     1  UNL1        0.0791
     10 C           8.8225    3.6203    0.1788 C.2     1  UNL1        0.2399
     11 O          10.0013    3.3294    0.3232 O.2     1  UNL1       -0.2734
     12 N           8.3398    4.9400    0.1042 N.am    1  UNL1       -0.2230
     13 N           9.2757    5.9610    0.0891 N.am    1  UNL1       -0.1372
     14 C           9.2500    7.0646    0.9098 C.2     1  UNL1        0.3263
     15 O           8.3959    7.3935    1.7059 O.2     1  UNL1       -0.2506
     16 N          10.3969    7.7943    0.6398 N.am    1  UNL1       -0.2836
     17 C          11.2065    7.1855   -0.4028 C.3     1  UNL1        0.1141
     18 C          11.3133    8.0798   -1.6366 C.3     1  UNL1       -0.0229
     19 C          12.2049    9.2874   -1.3755 C.3     1  UNL1       -0.0507
     20 C          13.5733    8.8694   -0.8427 C.3     1  UNL1       -0.0529
     21 C          13.4644    7.9692    0.3866 C.3     1  UNL1       -0.0507
     22 C          12.5789    6.7553    0.1146 C.3     1  UNL1       -0.0229
     23 C          10.3573    5.9645   -0.7560 C.2     1  UNL1        0.2632
     24 O          10.5993    5.1785   -1.6648 O.2     1  UNL1       -0.2712
     25 N           6.7779   -1.4423    0.0992 N.ar    1  UNL1       -0.1203
     26 N           5.5435   -2.0410    0.0918 N.ar    1  UNL1       -0.1076
     27 C           4.6221   -1.1016    0.0877 C.ar    1  UNL1        0.2566
     28 N           3.2477   -1.2326    0.0823 N.ar    1  UNL1       -0.2157
     29 H           0.6701    0.9010    0.0770 H       1  UNL1        0.0293
     30 H           0.6762   -0.6159    0.9810 H       1  UNL1        0.0293
     31 H           0.6754   -0.6185   -0.8234 H       1  UNL1        0.0293
     32 H           2.4835    2.0802    0.0711 H       1  UNL1        0.0653
     33 H           4.1673    3.4611    0.0974 H       1  UNL1        0.0292
     34 H           5.4602    2.8352   -0.8341 H       1  UNL1        0.0292
     35 H           5.4378    2.8246    1.0483 H       1  UNL1        0.0292
     36 H           7.1897    2.8237    1.0285 H       1  UNL1        0.0476
     37 H           7.2341    2.8430   -0.8377 H       1  UNL1        0.0476
     38 H           7.3640    5.2265    0.1211 H       1  UNL1        0.1736
     39 H          10.6150    8.6483    1.1387 H       1  UNL1        0.1513
     40 H          10.3203    8.4131   -1.9633 H       1  UNL1        0.0291
     41 H          11.7337    7.5014   -2.4708 H       1  UNL1        0.0291
     42 H          11.7175    9.9539   -0.6542 H       1  UNL1        0.0266
     43 H          12.3271    9.8557   -2.3037 H       1  UNL1        0.0266
     44 H          14.1557    9.7624   -0.5926 H       1  UNL1        0.0265
     45 H          14.1202    8.3379   -1.6312 H       1  UNL1        0.0265
     46 H          13.0515    8.5438    1.2245 H       1  UNL1        0.0266
     47 H          14.4628    7.6364    0.6902 H       1  UNL1        0.0266
     48 H          12.4883    6.1501    1.0255 H       1  UNL1        0.0291
     49 H          13.0703    6.1156   -0.6314 H       1  UNL1        0.0291
@<TRIPOS>BOND
     1     1     2    1
     2     2     3   ar
     3     3     4   ar
     4     4     5    1
     5     4     6   ar
     6     6     7   ar
     7     7     8    1
     8     8     9    1
     9     9    10    1
    10    10    11    2
    11    10    12   am
    12    12    13    1
    13    13    14   am
    14    14    15    2
    15    14    16   am
    16    16    17    1
    17    17    18    1
    18    18    19    1
    19    19    20    1
    20    20    21    1
    21    21    22    1
    22    17    22    1
    23    17    23    1
    24    13    23   am
    25    23    24    2
    26     7    25   ar
    27    25    26   ar
    28    26    27   ar
    29     6    27   ar
    30    27    28   ar
    31     2    28   ar
    32     1    29    1
    33     1    30    1
    34     1    31    1
    35     3    32    1
    36     5    33    1
    37     5    34    1
    38     5    35    1
    39     9    36    1
    40     9    37    1
    41    12    38    1
    42    16    39    1
    43    18    40    1
    44    18    41    1
    45    19    42    1
    46    19    43    1
    47    20    44    1
    48    20    45    1
    49    21    46    1
    50    21    47    1
    51    22    48    1
    52    22    49    1
