REMARK  3 active torsions:
REMARK  status: ('A' for Active; 'I' for Inactive)
REMARK    1  A    between atoms: C_7  and  N_8 
REMARK       I    between atoms: N_8  and  C_9 
REMARK       I    between atoms: C_9  and  N_10 
REMARK    2  A    between atoms: N_11  and  C_12 
REMARK    3  A    between atoms: C_12  and  C_13 
ROOT
ATOM      1  N   UNL d   1      -0.443   3.079  -0.004  0.00  0.00    -0.019 N 
ATOM      2  C   UNL d   1      -1.633   3.771   0.040  0.00  0.00     0.708 C 
ATOM      3  N   UNL d   1      -2.789   3.178   0.085  0.00  0.00    -0.117 NA
ATOM      4  N   UNL d   1      -1.615   5.130   0.048  0.00  0.00    -0.219 N 
ATOM      5  H   UNL d   1       0.387   3.648  -0.033  0.00  0.00     0.203 HD
ATOM      6  H   UNL d   1      -2.588   2.161   0.078  0.00  0.00     0.206 HD
ATOM      7  H   UNL d   1      -0.792   5.715  -0.030  0.00  0.00     0.178 HD
ENDROOT
BRANCH   1   8
ATOM      8  C   UNL d   1      -0.270   1.702  -0.009  0.00  0.00     0.722 A 
ATOM      9  N   UNL d   1       0.987   1.143  -0.046  0.00  0.00    -0.154 N 
ATOM     10  C   UNL d   1       1.192  -0.212  -0.015  0.00  0.00     0.261 A 
ATOM     11  H   UNL d   1       1.826   1.699  -0.067  0.00  0.00     0.187 HD
ATOM     12  C   UNL d   1      -0.013  -1.050  -0.008  0.00  0.00     0.102 A 
ATOM     13  O   UNL d   1       2.312  -0.720   0.003  0.00  0.00    -0.268 OA
ATOM     14  C   UNL d   1      -1.193  -0.423   0.003  0.00  0.00     0.055 A 
ATOM     15  C   UNL d   1      -2.498  -1.164  -0.021  0.00  0.00     0.071 C 
ATOM     16  N   UNL d   1      -1.323   0.935   0.022  0.00  0.00    -0.069 NA
ENDBRANCH   1   8
BRANCH   4  17
ATOM     17  C   UNL d   1      -2.880   5.874   0.077  0.00  0.00     0.197 C 
BRANCH  17  18
ATOM     18  C   UNL d   1      -2.699   7.384   0.067  0.00  0.00     0.052 A 
ATOM     19  C   UNL d   1      -3.821   8.208   0.223  0.00  0.00     0.029 A 
ATOM     20  C   UNL d   1      -3.659   9.592   0.191  0.00  0.00     0.003 A 
ATOM     21  C   UNL d   1      -2.389  10.118   0.004  0.00  0.00     0.019 A 
ATOM     22  C   UNL d   1      -1.329   9.236  -0.140  0.00  0.00     0.117 A 
ATOM     23  N   UNL d   1      -1.449   7.888  -0.116  0.00  0.00    -0.264 NA
ENDBRANCH  17  18
ENDBRANCH   4  17
TORSDOF 3
