REMARK  10 active torsions:
REMARK  status: ('A' for Active; 'I' for Inactive)
REMARK    1  A    between atoms: C_2  and  C_4 
REMARK    2  A    between atoms: C_4  and  C_5 
REMARK    3  A    between atoms: C_5  and  O_6 
REMARK    4  A    between atoms: O_6  and  C_7 
REMARK    5  A    between atoms: C_10  and  N_11 
REMARK       I    between atoms: N_11  and  C_12 
REMARK    6  A    between atoms: C_12  and  C_14 
REMARK    7  A    between atoms: C_14  and  N_15 
REMARK    8  A    between atoms: N_15  and  C_16 
REMARK    9  A    between atoms: C_21  and  C_22 
REMARK       I    between atoms: C_22  and  N_24 
REMARK   10  A    between atoms: N_24  and  C_25 
ROOT
ATOM      1  N   UNL d   1      13.713  -3.275  -0.506  0.00  0.00    -0.381 N 
ATOM      2  H   UNL d   1      13.148  -3.088   0.329  0.00  0.00     0.160 HD
ENDROOT
BRANCH   1   3
ATOM      3  C   UNL d   1      12.998  -3.103  -1.777  0.00  0.00     0.223 C 
BRANCH   3   4
ATOM      4  C   UNL d   1      11.508  -2.912  -1.466  0.00  0.00     0.239 C 
ATOM      5  N   UNL d   1      10.634  -2.888  -2.554  0.00  0.00    -0.326 N 
ATOM      6  H   UNL d   1      11.013  -2.955  -3.492  0.00  0.00     0.169 HD
ATOM      7  O   UNL d   1      11.188  -2.770  -0.282  0.00  0.00    -0.271 OA
BRANCH   5   8
ATOM      8  C   UNL d   1       9.229  -2.666  -2.445  0.00  0.00     0.034 A 
ATOM      9  C   UNL d   1       8.423  -2.558  -3.586  0.00  0.00     0.032 A 
ATOM     10  C   UNL d   1       7.057  -2.220  -3.463  0.00  0.00     0.039 A 
ATOM     11  C   UNL d   1       6.469  -2.054  -2.208  0.00  0.00     0.068 A 
ATOM     12  C   UNL d   1       7.254  -2.219  -1.080  0.00  0.00     0.039 A 
ATOM     13  C   UNL d   1       8.607  -2.521  -1.205  0.00  0.00     0.032 A 
BRANCH  11  14
ATOM     14  O   UNL d   1       5.119  -1.828  -2.175  0.00  0.00    -0.351 OA
BRANCH  14  15
ATOM     15  C   UNL d   1       4.682  -0.994  -1.098  0.00  0.00     0.176 C 
BRANCH  15  16
ATOM     16  C   UNL d   1       3.155  -0.986  -1.045  0.00  0.00     0.030 C 
BRANCH  16  17
ATOM     17  C   UNL d   1       2.619  -0.018   0.024  0.00  0.00    -0.021 C 
ATOM     18  C   UNL d   1       1.091  -0.003   0.005  0.00  0.00     0.009 C 
ATOM     19  C   UNL d   1       3.105  -0.390   1.427  0.00  0.00     0.009 C 
ENDBRANCH  16  17
ENDBRANCH  15  16
ENDBRANCH  14  15
ENDBRANCH  11  14
ENDBRANCH   5   8
ENDBRANCH   3   4
ENDBRANCH   1   3
BRANCH   1  20
ATOM     20  C   UNL d   1      15.077  -3.274  -0.355  0.00  0.00     0.029 A 
ATOM     21  C   UNL d   1      15.650  -4.058   0.649  0.00  0.00     0.031 A 
ATOM     22  C   UNL d   1      17.029  -4.092   0.837  0.00  0.00     0.027 A 
ATOM     23  C   UNL d   1      17.869  -3.383  -0.016  0.00  0.00     0.049 A 
ATOM     24 CL   UNL d   1      19.561  -3.663   0.260  0.00  0.00    -0.083 Cl
ATOM     25  C   UNL d   1      17.314  -2.566  -1.023  0.00  0.00     0.055 A 
ATOM     26  C   UNL d   1      15.920  -2.538  -1.184  0.00  0.00     0.048 A 
BRANCH  25  27
ATOM     27  C   UNL d   1      18.174  -1.712  -1.872  0.00  0.00     0.253 C 
ATOM     28  O   UNL d   1      19.384  -1.756  -1.659  0.00  0.00    -0.268 OA
ATOM     29  N   UNL d   1      17.623  -0.893  -2.849  0.00  0.00    -0.352 N 
ATOM     30  H   UNL d   1      16.625  -0.831  -2.972  0.00  0.00     0.163 HD
BRANCH  29  31
ATOM     31  C   UNL d   1      18.412   0.023  -3.684  0.00  0.00     0.084 C 
ATOM     32  C   UNL d   1      18.122   1.484  -3.310  0.00  0.00     0.025 C 
ATOM     33  C   UNL d   1      18.980   2.461  -4.118  0.00  0.00     0.002 C 
ATOM     34  C   UNL d   1      20.468   2.138  -4.011  0.00  0.00     0.000 C 
ATOM     35  C   UNL d   1      20.743   0.713  -4.469  0.00  0.00     0.002 C 
ATOM     36  C   UNL d   1      19.920  -0.253  -3.653  0.00  0.00     0.025 C 
ENDBRANCH  29  31
ENDBRANCH  25  27
ENDBRANCH   1  20
TORSDOF 10
