@<TRIPOS>MOLECULE
*****
 47 49 0 0 0
SMALL
GASTEIGER

@<TRIPOS>ATOM
      1 N          -3.0918    0.0074    0.0355 N.1     1  UNL1       -0.1909
      2 C          -1.9403    0.0656   -0.0200 C.1     1  UNL1        0.0992
      3 C          -0.5048    0.0616   -0.0522 C.ar    1  UNL1        0.0521
      4 C           0.2289    1.2409   -0.0407 C.ar    1  UNL1       -0.0443
      5 C           1.6225    1.1830    0.0127 C.ar    1  UNL1       -0.0602
      6 C           2.2812   -0.0571    0.0564 C.ar    1  UNL1       -0.0570
      7 C           1.5519   -1.2625    0.0134 C.ar    1  UNL1       -0.0291
      8 C           2.2576   -2.6069    0.0516 C.3     1  UNL1        0.0383
      9 N           1.3752   -3.7796   -0.0055 N.am    1  UNL1       -0.2950
     10 C           1.8820   -5.0490    0.0103 C.2     1  UNL1        0.3041
     11 O           3.0906   -5.2400    0.0991 O.2     1  UNL1       -0.2525
     12 N           0.9263   -6.0534   -0.0979 N.am    1  UNL1       -0.2695
     13 C           1.2819   -7.4271   -0.0312 C.ar    1  UNL1        0.0355
     14 C           0.6612   -8.3976   -0.8231 C.ar    1  UNL1       -0.0404
     15 C           1.0027   -9.7497   -0.6630 C.ar    1  UNL1       -0.0593
     16 C           1.9979  -10.1243    0.2468 C.ar    1  UNL1       -0.0495
     17 C           2.6165   -9.1605    1.0549 C.ar    1  UNL1        0.0388
     18 C           3.6115   -9.5978    2.0835 C.2     1  UNL1        0.2483
     19 O           3.8577  -10.7991    2.1698 O.2     1  UNL1       -0.2699
     20 N           4.1387   -8.6304    2.9400 N.am    1  UNL1       -0.2815
     21 C           5.0559   -8.9371    3.9660 C.ar    1  UNL1        0.0349
     22 C           6.0908   -9.8468    3.7439 C.ar    1  UNL1       -0.0404
     23 C           6.9906  -10.1588    4.7603 C.ar    1  UNL1       -0.0588
     24 C           6.8605   -9.5609    6.0112 C.ar    1  UNL1       -0.0442
     25 C           5.8518   -8.6176    6.2336 C.ar    1  UNL1        0.0535
     26 C           5.7748   -7.9598    7.5078 C.1     1  UNL1        0.0992
     27 N           5.7461   -7.4157    8.5296 N.1     1  UNL1       -0.1909
     28 C           4.9497   -8.2986    5.2070 C.ar    1  UNL1       -0.0231
     29 C           2.2467   -7.8249    0.8995 C.ar    1  UNL1       -0.0283
     30 C           0.1556   -1.1674   -0.0517 C.ar    1  UNL1       -0.0397
     31 H          -0.2791    2.2020   -0.0599 H       1  UNL1        0.0630
     32 H           2.1915    2.1113    0.0323 H       1  UNL1        0.0618
     33 H           3.3702   -0.0607    0.1258 H       1  UNL1        0.0621
     34 H           2.8499   -2.6763    0.9737 H       1  UNL1        0.0512
     35 H           2.9533   -2.6713   -0.7952 H       1  UNL1        0.0512
     36 H           0.3807   -3.6793   -0.0633 H       1  UNL1        0.1506
     37 H          -0.0340   -5.8334   -0.3256 H       1  UNL1        0.1564
     38 H          -0.0277   -8.1286   -1.6205 H       1  UNL1        0.0636
     39 H           0.4994  -10.5215   -1.2440 H       1  UNL1        0.0618
     40 H           2.2869  -11.1730    0.3229 H       1  UNL1        0.0625
     41 H           3.7486   -7.6998    2.9585 H       1  UNL1        0.1551
     42 H           6.2228  -10.2970    2.7625 H       1  UNL1        0.0636
     43 H           7.7946  -10.8638    4.5685 H       1  UNL1        0.0619
     44 H           7.5588   -9.8266    6.8025 H       1  UNL1        0.0630
     45 H           4.1397   -7.5990    5.4020 H       1  UNL1        0.0649
     46 H           2.6832   -7.0577    1.5216 H       1  UNL1        0.0644
     47 H          -0.4685   -2.0503   -0.0900 H       1  UNL1        0.0634
@<TRIPOS>BOND
     1     1     2    3
     2     2     3    1
     3     3     4   ar
     4     4     5   ar
     5     5     6   ar
     6     6     7   ar
     7     7     8    1
     8     8     9    1
     9     9    10   am
    10    10    11    2
    11    10    12   am
    12    12    13    1
    13    13    14   ar
    14    14    15   ar
    15    15    16   ar
    16    16    17   ar
    17    17    18    1
    18    18    19    2
    19    18    20   am
    20    20    21    1
    21    21    22   ar
    22    22    23   ar
    23    23    24   ar
    24    24    25   ar
    25    25    26    1
    26    26    27    3
    27    25    28   ar
    28    21    28   ar
    29    17    29   ar
    30    13    29   ar
    31     7    30   ar
    32     3    30   ar
    33     4    31    1
    34     5    32    1
    35     6    33    1
    36     8    34    1
    37     8    35    1
    38     9    36    1
    39    12    37    1
    40    14    38    1
    41    15    39    1
    42    16    40    1
    43    20    41    1
    44    22    42    1
    45    23    43    1
    46    24    44    1
    47    28    45    1
    48    29    46    1
    49    30    47    1
