@<TRIPOS>MOLECULE
*****
 70 72 0 0 0
SMALL
GASTEIGER

@<TRIPOS>ATOM
      1 C           0.9438   -0.0779   -0.0229 C.3     1  UNL1       -0.0653
      2 C           2.4616   -0.0942   -0.0359 C.3     1  UNL1       -0.0559
      3 C           2.9812   -1.2119   -0.9409 C.3     1  UNL1       -0.0529
      4 C           4.5021   -1.2311   -0.9560 C.3     1  UNL1       -0.0448
      5 C           5.0740   -2.3360   -1.8554 C.3     1  UNL1        0.0243
      6 C           6.5946   -2.2677   -1.8034 C.2     1  UNL1        0.2172
      7 O           7.1578   -1.4482   -1.1015 O.2     1  UNL1       -0.2755
      8 N           7.2516   -3.1813   -2.6268 N.am    1  UNL1       -0.2854
      9 C           8.6631   -3.2860   -2.6245 C.ar    1  UNL1        0.0351
     10 C           9.3719   -3.5503   -3.7922 C.ar    1  UNL1       -0.0404
     11 C          10.7640   -3.6894   -3.7266 C.ar    1  UNL1       -0.0583
     12 C          11.4424   -3.5527   -2.4992 C.ar    1  UNL1       -0.0407
     13 C          10.7426   -3.3205   -1.3079 C.ar    1  UNL1        0.0293
     14 N          11.3837   -3.1898   -0.0820 N.pl3   1  UNL1       -0.3353
     15 C          10.6340   -3.1192    1.2056 C.3     1  UNL1        0.0861
     16 C          11.5523   -3.3601    2.4291 C.2     1  UNL1        0.2343
     17 O          12.7351   -3.6702    2.2050 O.2     1  UNL1       -0.2738
     18 N          10.9755   -3.2931    3.7312 N.am    1  UNL1       -0.2842
     19 C          11.7263   -3.2520    4.9830 C.ar    1  UNL1        0.0341
     20 C          11.3650   -3.6921    6.2275 C.ar    1  UNL1       -0.0404
     21 C          12.2715   -3.4663    7.3111 C.ar    1  UNL1       -0.0593
     22 C          13.4852   -2.7112    7.1746 C.ar    1  UNL1       -0.0495
     23 C          13.8506   -2.1927    5.9386 C.ar    1  UNL1        0.0390
     24 C          15.1006   -1.2545    5.7383 C.2     1  UNL1        0.2509
     25 O          15.7889   -1.1739    6.7700 O.2     1  UNL1       -0.2696
     26 N          15.4456   -0.4111    4.5859 N.am    1  UNL1       -0.2677
     27 C          14.8828   -0.2812    3.1976 C.3     1  UNL1        0.0173
     28 C          13.6573   -1.0083    2.9877 C.3     1  UNL1       -0.0489
     29 C          16.6601    0.3882    4.5924 C.ar    1  UNL1        0.0366
     30 C          16.6758    1.6164    3.8858 C.ar    1  UNL1       -0.0403
     31 C          17.8502    2.3023    3.6152 C.ar    1  UNL1       -0.0600
     32 C          19.0366    1.8210    4.1386 C.ar    1  UNL1       -0.0616
     33 C          19.0473    0.6268    4.8654 C.ar    1  UNL1       -0.0600
     34 C          17.8680   -0.0979    5.0807 C.ar    1  UNL1       -0.0403
     35 C          12.9809   -2.6624    4.9606 C.ar    1  UNL1       -0.0283
     36 C           9.3596   -3.1711   -1.4163 C.ar    1  UNL1       -0.0196
     37 H           0.5750    0.7224    0.6252 H       1  UNL1        0.0230
     38 H           0.5501   -1.0294    0.3482 H       1  UNL1        0.0230
     39 H           0.5502    0.0875   -1.0308 H       1  UNL1        0.0230
     40 H           2.8330   -0.2329    0.9867 H       1  UNL1        0.0263
     41 H           2.8331    0.8772   -0.3844 H       1  UNL1        0.0263
     42 H           2.6056   -1.0652   -1.9599 H       1  UNL1        0.0265
     43 H           2.6049   -2.1781   -0.5859 H       1  UNL1        0.0265
     44 H           4.8721   -1.3626    0.0699 H       1  UNL1        0.0270
     45 H           4.8724   -0.2547   -1.2965 H       1  UNL1        0.0270
     46 H           4.7354   -2.1962   -2.8869 H       1  UNL1        0.0358
     47 H           4.7414   -3.3179   -1.5018 H       1  UNL1        0.0358
     48 H           6.7388   -3.6964   -3.3277 H       1  UNL1        0.1548
     49 H           8.8772   -3.5797   -4.7588 H       1  UNL1        0.0636
     50 H          11.3285   -3.9027   -4.6335 H       1  UNL1        0.0619
     51 H          12.5272   -3.6377   -2.4951 H       1  UNL1        0.0636
     52 H          12.3685   -3.4421   -0.0124 H       1  UNL1        0.1466
     53 H           9.8766   -3.9074    1.2399 H       1  UNL1        0.0557
     54 H          10.1688   -2.1303    1.2694 H       1  UNL1        0.0557
     55 H           9.9811   -3.0990    3.8005 H       1  UNL1        0.1549
     56 H          10.4924   -4.3238    6.3576 H       1  UNL1        0.0636
     57 H          12.0395   -3.8886    8.2876 H       1  UNL1        0.0618
     58 H          14.1470   -2.5859    8.0331 H       1  UNL1        0.0625
     59 H          15.6317   -0.6751    2.4903 H       1  UNL1        0.0466
     60 H          14.6131    0.7370    2.9369 H       1  UNL1        0.0466
     61 H          14.1618   -1.9754    2.9492 H       1  UNL1        0.0245
     62 H          13.0923   -0.9565    2.0694 H       1  UNL1        0.0245
     63 H          12.9968   -0.7014    3.8090 H       1  UNL1        0.0245
     64 H          15.7615    2.0752    3.5203 H       1  UNL1        0.0636
     65 H          17.8204    3.1993    3.0029 H       1  UNL1        0.0618
     66 H          19.9523    2.3817    3.9842 H       1  UNL1        0.0618
     67 H          19.9875    0.2408    5.2473 H       1  UNL1        0.0618
     68 H          17.9213   -1.0622    5.5761 H       1  UNL1        0.0636
     69 H          13.2932   -2.7340    3.9815 H       1  UNL1        0.0644
     70 H           8.7858   -2.9914   -0.5162 H       1  UNL1        0.0655
@<TRIPOS>BOND
     1     1     2    1
     2     2     3    1
     3     3     4    1
     4     4     5    1
     5     5     6    1
     6     6     7    2
     7     6     8   am
     8     8     9    1
     9     9    10   ar
    10    10    11   ar
    11    11    12   ar
    12    12    13   ar
    13    13    14    1
    14    14    15    1
    15    15    16    1
    16    16    17    2
    17    16    18   am
    18    18    19    1
    19    19    20   ar
    20    20    21   ar
    21    21    22   ar
    22    22    23   ar
    23    23    24    1
    24    24    25    2
    25    24    26   am
    26    26    27    1
    27    27    28    1
    28    26    29    1
    29    29    30   ar
    30    30    31   ar
    31    31    32   ar
    32    32    33   ar
    33    33    34   ar
    34    29    34   ar
    35    23    35   ar
    36    19    35   ar
    37    13    36   ar
    38     9    36   ar
    39     1    37    1
    40     1    38    1
    41     1    39    1
    42     2    40    1
    43     2    41    1
    44     3    42    1
    45     3    43    1
    46     4    44    1
    47     4    45    1
    48     5    46    1
    49     5    47    1
    50     8    48    1
    51    10    49    1
    52    11    50    1
    53    12    51    1
    54    14    52    1
    55    15    53    1
    56    15    54    1
    57    18    55    1
    58    20    56    1
    59    21    57    1
    60    22    58    1
    61    27    59    1
    62    27    60    1
    63    28    61    1
    64    28    62    1
    65    28    63    1
    66    30    64    1
    67    31    65    1
    68    32    66    1
    69    33    67    1
    70    34    68    1
    71    35    69    1
    72    36    70    1
