@<TRIPOS>MOLECULE
*****
 59 61 0 0 0
SMALL
GASTEIGER

@<TRIPOS>ATOM
      1 C           1.0884    0.2335    0.1378 C.3     1  UNL1       -0.0470
      2 C           2.6103    0.2164    0.2468 C.3     1  UNL1        0.0240
      3 N           3.0681   -0.6755    1.2741 N.ar    1  UNL1       -0.3047
      4 C           3.6829   -0.3622    2.4673 C.ar    1  UNL1        0.1921
      5 S           4.2107    1.1524    3.1564 S.3     1  UNL1       -0.0767
      6 C           4.0675    2.5557    2.0210 C.3     1  UNL1        0.0776
      7 C           4.5948    3.8795    2.6184 C.2     1  UNL1        0.2235
      8 O           5.1377    3.9515    3.7174 O.2     1  UNL1       -0.2749
      9 N           4.4071    5.0179    1.8223 N.am    1  UNL1       -0.3118
     10 C           4.8460    6.3626    2.2647 C.3     1  UNL1        0.0231
     11 C           4.5985    7.4535    1.1945 C.3     1  UNL1       -0.0345
     12 C           4.9656    8.8624    1.6897 C.3     1  UNL1       -0.0514
     13 C           4.2553    9.2105    2.9935 C.3     1  UNL1       -0.0529
     14 C           4.5409    8.1571    4.0510 C.3     1  UNL1       -0.0514
     15 C           4.1416    6.7670    3.5713 C.3     1  UNL1       -0.0345
     16 N           3.8274   -1.4784    3.1498 N.ar    1  UNL1       -0.1224
     17 N           3.3734   -2.5272    2.3944 N.ar    1  UNL1       -0.1315
     18 C           2.9101   -2.0680    1.2438 C.ar    1  UNL1        0.1568
     19 CA          2.2689   -2.9954    0.1755 C.3     1  UNL1        0.1063
     20 C           0.9813   -3.6471    0.7550 C.3     1  UNL1        0.0697
     21 O           1.2085   -4.5181    1.8598 O.3     1  UNL1       -0.3927
     22 N           2.0054   -2.3491   -1.1251 N.am    1  UNL1       -0.2993
     23 C           1.3898   -2.8765   -2.2313 C.2     1  UNL1        0.2461
     24 O           1.0216   -4.0410   -2.3289 O.2     1  UNL1       -0.2701
     25 C           1.0644   -1.8765   -3.3079 C.ar    1  UNL1        0.0550
     26 C          -0.2374   -1.8840   -3.8366 C.ar    1  UNL1       -0.0482
     27 C          -0.6226   -0.9466   -4.8056 C.ar    1  UNL1       -0.0610
     28 C           0.2811    0.0155   -5.2503 C.ar    1  UNL1       -0.0603
     29 C           1.5778    0.0288   -4.7408 C.ar    1  UNL1       -0.0427
     30 C           1.9754   -0.9194   -3.7860 C.ar    1  UNL1        0.0531
     31 CL          3.6287   -0.8627   -3.2893 Cl      1  UNL1       -0.0828
     32 H           0.7739    0.7950   -0.7445 H       1  UNL1        0.0247
     33 H           0.6494    0.6739    1.0355 H       1  UNL1        0.0247
     34 H           0.6317   -0.7574    0.0613 H       1  UNL1        0.0247
     35 H           2.9648    1.2221    0.3988 H       1  UNL1        0.0490
     36 H           3.1433   -0.0703   -0.6607 H       1  UNL1        0.0490
     37 H           3.0084    2.7042    1.7956 H       1  UNL1        0.0475
     38 H           4.6472    2.3497    1.1176 H       1  UNL1        0.0475
     39 H           4.0507    4.9238    0.8804 H       1  UNL1        0.1490
     40 H           5.9278    6.2984    2.4434 H       1  UNL1        0.0498
     41 H           3.5404    7.4522    0.9019 H       1  UNL1        0.0283
     42 H           5.1731    7.2373    0.2859 H       1  UNL1        0.0283
     43 H           4.7094    9.6098    0.9291 H       1  UNL1        0.0266
     44 H           6.0502    8.9276    1.8435 H       1  UNL1        0.0266
     45 H           3.1740    9.2787    2.8212 H       1  UNL1        0.0265
     46 H           4.5837   10.1926    3.3535 H       1  UNL1        0.0265
     47 H           3.9965    8.3944    4.9713 H       1  UNL1        0.0266
     48 H           5.6099    8.1657    4.2982 H       1  UNL1        0.0266
     49 H           3.0551    6.7235    3.4237 H       1  UNL1        0.0283
     50 H           4.3749    6.0645    4.3746 H       1  UNL1        0.0283
     51 HA          3.0009   -3.7879   -0.0266 H       1  UNL1        0.0603
     52 H1          0.4775   -4.2529   -0.0008 H       1  UNL1        0.0580
     53 H2          0.2697   -2.8786    1.0749 H       1  UNL1        0.0580
     54 H           1.9415   -5.1146    1.6296 H       1  UNL1        0.2095
     55 H           2.1467   -1.3715   -1.2185 H       1  UNL1        0.1498
     56 H          -0.9630   -2.6213   -3.4964 H       1  UNL1        0.0625
     57 H          -1.6292   -0.9701   -5.2206 H       1  UNL1        0.0618
     58 H          -0.0163    0.7414   -6.0057 H       1  UNL1        0.0618
     59 H           2.2831    0.7715   -5.1101 H       1  UNL1        0.0632
@<TRIPOS>BOND
     1     1     2    1
     2     2     3    1
     3     3     4   ar
     4     4     5    1
     5     5     6    1
     6     6     7    1
     7     7     8    2
     8     7     9   am
     9     9    10    1
    10    10    11    1
    11    11    12    1
    12    12    13    1
    13    13    14    1
    14    14    15    1
    15    10    15    1
    16     4    16   ar
    17    16    17   ar
    18    17    18   ar
    19     3    18   ar
    20    18    19    1
    21    19    20    1
    22    20    21    1
    23    19    22    1
    24    22    23   am
    25    23    24    2
    26    23    25    1
    27    25    26   ar
    28    26    27   ar
    29    27    28   ar
    30    28    29   ar
    31    29    30   ar
    32    25    30   ar
    33    30    31    1
    34     1    32    1
    35     1    33    1
    36     1    34    1
    37     2    35    1
    38     2    36    1
    39     6    37    1
    40     6    38    1
    41     9    39    1
    42    10    40    1
    43    11    41    1
    44    11    42    1
    45    12    43    1
    46    12    44    1
    47    13    45    1
    48    13    46    1
    49    14    47    1
    50    14    48    1
    51    15    49    1
    52    15    50    1
    53    19    51    1
    54    20    52    1
    55    20    53    1
    56    21    54    1
    57    22    55    1
    58    26    56    1
    59    27    57    1
    60    28    58    1
    61    29    59    1
