@<TRIPOS>MOLECULE
*****
 35 37 0 0 0
SMALL
GASTEIGER

@<TRIPOS>ATOM
      1 C           1.0520    0.0062    0.0550 C.3     1  UNL1        0.0242
      2 C           2.5205   -0.0852    0.0417 C.ar    1  UNL1        0.2181
      3 C           3.3797   -1.1903    0.0182 C.ar    1  UNL1        0.1198
      4 C           2.9927   -2.5989    0.0002 C.ar    1  UNL1        0.0046
      5 C           2.1328   -3.0684   -1.0043 C.ar    1  UNL1       -0.0524
      6 C           1.5613   -4.3380   -0.9140 C.ar    1  UNL1       -0.0611
      7 C           1.9025   -5.1765    0.1438 C.ar    1  UNL1       -0.0617
      8 C           2.7812   -4.7299    1.1311 C.ar    1  UNL1       -0.0611
      9 C           3.3170   -3.4404    1.0671 C.ar    1  UNL1       -0.0524
     10 N           4.6906   -0.7314    0.0581 N.ar    1  UNL1       -0.2950
     11 C           4.5850    0.6443    0.0802 C.ar    1  UNL1        0.3026
     12 C           5.7529    1.5362    0.0590 C.ar    1  UNL1        0.0702
     13 C           5.9367    2.5160    1.0505 C.ar    1  UNL1       -0.0430
     14 C           6.9727    3.4578    0.9548 C.ar    1  UNL1       -0.0157
     15 C           7.8709    3.3781   -0.1020 C.ar    1  UNL1        0.1583
     16 O           8.9221    4.2446   -0.2223 O.3     1  UNL1       -0.5033
     17 C           7.7154    2.3913   -1.0716 C.ar    1  UNL1        0.1590
     18 O           8.5721    2.3245   -2.1353 O.3     1  UNL1       -0.5033
     19 C           6.6722    1.4713   -0.9971 C.ar    1  UNL1       -0.0014
     20 N           3.3224    1.0057    0.0740 N.ar    1  UNL1       -0.1504
     21 O           3.0041    2.2252    0.0882 O.co2   1  UNL1       -0.6181
     22 H           0.5962   -0.9900    0.0727 H       1  UNL1        0.0337
     23 H           0.6787    0.5149   -0.8382 H       1  UNL1        0.0337
     24 H           0.6943    0.5299    0.9456 H       1  UNL1        0.0337
     25 H           1.8641   -2.4265   -1.8411 H       1  UNL1        0.0624
     26 H           0.8320   -4.6596   -1.6533 H       1  UNL1        0.0618
     27 H           1.4738   -6.1735    0.2046 H       1  UNL1        0.0618
     28 H           3.0206   -5.3749    1.9724 H       1  UNL1        0.0618
     29 H           3.9414   -3.0838    1.8819 H       1  UNL1        0.0624
     30 H           5.5359   -1.2904    0.0563 H       1  UNL1        0.1717
     31 H           5.2535    2.5715    1.8961 H       1  UNL1        0.0627
     32 H           7.0371    4.2511    1.6934 H       1  UNL1        0.0655
     33 H           8.9556    4.7939    0.5809 H       1  UNL1        0.2923
     34 H           9.1623    3.0975   -2.0369 H       1  UNL1        0.2923
     35 H           6.5661    0.7372   -1.7897 H       1  UNL1        0.0664
@<TRIPOS>UNITY_ATOM_ATTR
20 1
charge 1
21 1
charge -1
@<TRIPOS>BOND
     1     1     2    1
     2     2     3   ar
     3     3     4    1
     4     4     5   ar
     5     5     6   ar
     6     6     7   ar
     7     7     8   ar
     8     8     9   ar
     9     4     9   ar
    10     3    10   ar
    11    10    11   ar
    12    11    12    1
    13    12    13   ar
    14    13    14   ar
    15    14    15   ar
    16    15    16    1
    17    15    17   ar
    18    17    18    1
    19    17    19   ar
    20    12    19   ar
    21    11    20   ar
    22     2    20   ar
    23    20    21    1
    24     1    22    1
    25     1    23    1
    26     1    24    1
    27     5    25    1
    28     6    26    1
    29     7    27    1
    30     8    28    1
    31     9    29    1
    32    10    30    1
    33    13    31    1
    34    14    32    1
    35    16    33    1
    36    18    34    1
    37    19    35    1
