REMARK  5 active torsions:
REMARK  status: ('A' for Active; 'I' for Inactive)
REMARK       I    between atoms: N_13  and  C_14 
REMARK    1  A    between atoms: C_14  and  C_16 
REMARK    2  A    between atoms: C_16  and  S_17 
REMARK    3  A    between atoms: S_17  and  C_18 
REMARK    4  A    between atoms: C_21  and  N_22 
REMARK    5  A    between atoms: N_22  and  C_23 
ROOT
ATOM      1  C   UNL d   1       2.921   0.379  -1.311  0.00  0.00     0.033 C 
ATOM      2  C   UNL d   1       2.574   0.046   0.165  0.00  0.00     0.097 C 
ATOM      3  C   UNL d   1       2.975  -1.399   0.497  0.00  0.00     0.122 C 
ATOM      4  C   UNL d   1       4.443  -1.654   0.271  0.00  0.00     0.203 C 
ATOM      5  O   UNL d   1       4.838  -2.382  -0.657  0.00  0.00    -0.279 OA
ATOM      6  N   UNL d   1       5.332  -1.025   1.101  0.00  0.00    -0.227 NA
ATOM      7  C   UNL d   1       5.561   0.347   0.848  0.00  0.00     0.042 A 
ATOM      8  C   UNL d   1       6.877   0.620   0.448  0.00  0.00     0.026 A 
ATOM      9  C   UNL d   1       7.227   1.877  -0.018  0.00  0.00     0.002 A 
ATOM     10  C   UNL d   1       6.259   2.877  -0.049  0.00  0.00     0.002 A 
ATOM     11  C   UNL d   1       4.943   2.630   0.409  0.00  0.00     0.031 A 
ATOM     12  C   UNL d   1       4.561   1.353   0.871  0.00  0.00     0.059 A 
ATOM     13  N   UNL d   1       3.149   1.042   1.120  0.00  0.00    -0.311 N 
ATOM     14  C   UNL d   1       2.486   1.623   2.245  0.00  0.00     0.234 C 
ATOM     15  O   UNL d   1       3.094   2.422   2.967  0.00  0.00    -0.272 OA
ATOM     16  H   UNL d   1       5.207  -1.212   2.090  0.00  0.00     0.136 HD
ENDROOT
BRANCH  14  17
ATOM     17  C   UNL d   1       0.989   1.218   2.601  0.00  0.00     0.184 C 
BRANCH  17  18
ATOM     18  S   UNL d   1       0.389   2.080   4.136  0.00  0.00    -0.092 SA
BRANCH  18  19
ATOM     19  C   UNL d   1      -1.299   1.606   4.402  0.00  0.00     0.160 A 
ATOM     20  N   UNL d   1      -1.721   0.365   4.507  0.00  0.00    -0.133 NA
ATOM     21  N   UNL d   1      -3.087   0.289   4.818  0.00  0.00    -0.122 NA
ATOM     22  C   UNL d   1      -3.680   1.467   4.925  0.00  0.00     0.195 A 
ATOM     23  S   UNL d   1      -2.525   2.763   4.749  0.00  0.00    -0.022 SA
BRANCH  22  24
ATOM     24  N   UNL d   1      -5.017   1.641   5.188  0.00  0.00    -0.334 N 
ATOM     25  H   UNL d   1      -5.570   0.828   5.440  0.00  0.00     0.168 HD
BRANCH  24  26
ATOM     26  C   UNL d   1      -5.705   2.872   5.241  0.00  0.00     0.034 C 
ATOM     27  C   UNL d   1      -5.601   3.788   4.187  0.00  0.00     0.029 C 
ATOM     28  C   UNL d   1      -6.016   5.110   4.338  0.00  0.00     0.002 C 
ATOM     29  C   UNL d   1      -6.662   5.504   5.504  0.00  0.00     0.000 C 
ATOM     30  C   UNL d   1      -6.921   4.564   6.500  0.00  0.00     0.002 C 
ATOM     31  C   UNL d   1      -6.414   3.261   6.386  0.00  0.00     0.029 C 
ENDBRANCH  24  26
ENDBRANCH  22  24
ENDBRANCH  18  19
ENDBRANCH  17  18
ENDBRANCH  14  17
TORSDOF 5
