@<TRIPOS>MOLECULE
*****
 63 66 0 0 0
SMALL
GASTEIGER

@<TRIPOS>ATOM
      1 C          10.7476  -13.5008   11.1763 C.3     1  UNL1       -0.0639
      2 C          10.4954  -14.4998   10.0546 C.3     1  UNL1       -0.0399
      3 C           9.7631  -13.8723    8.8635 C.3     1  UNL1        0.0176
      4 N           9.5640  -14.8081    7.7545 N.pl3   1  UNL1       -0.2669
      5 C           9.0215  -14.4982    6.4618 C.2     1  UNL1        0.1771
      6 S           9.0748  -12.8812    5.8787 S.3     1  UNL1       -0.0795
      7 C           8.5287  -12.8967    4.1276 C.3     1  UNL1        0.0774
      8 C           8.6642  -11.4487    3.5408 C.2     1  UNL1        0.2233
      9 O           9.3148  -10.5405    4.0636 O.2     1  UNL1       -0.2749
     10 N           8.0383  -11.2280    2.3362 N.am    1  UNL1       -0.3137
     11 C           8.3154  -10.1049    1.4215 C.3     1  UNL1        0.0224
     12 C           7.7765  -10.2771   -0.0679 C.3     1  UNL1        0.0276
     13 C           6.5466   -9.3814   -0.1294 C.2     1  UNL1        0.0165
     14 C           5.4173   -9.6457    0.5351 C.ar    1  UNL1        0.0515
     15 C           4.9693  -10.8049    1.2276 C.ar    1  UNL1       -0.0481
     16 C           3.9047  -10.7151    2.0244 C.ar    1  UNL1       -0.0608
     17 C           3.1966   -9.4598    2.1812 C.ar    1  UNL1       -0.0555
     18 C           3.5458   -8.3163    1.5517 C.ar    1  UNL1        0.0098
     19 C           4.7240   -8.3577    0.6644 C.ar    1  UNL1        0.2086
     20 N           5.3260   -7.4211    0.0179 N.2     1  UNL1       -0.2369
     21 C           6.5543   -7.9579   -0.6262 C.3     1  UNL1        0.1667
     22 C           7.5018  -11.7241   -0.5184 C.ar    1  UNL1       -0.0383
     23 C           8.0817  -12.8351    0.1246 C.ar    1  UNL1       -0.0545
     24 C           7.6893  -14.1376   -0.1433 C.ar    1  UNL1       -0.0197
     25 C           6.8005  -14.3820   -1.1709 C.ar    1  UNL1        0.1201
     26 O           6.6306  -15.7060   -1.4421 O.3     1  UNL1       -0.4951
     27 C           5.9549  -15.9870   -2.6563 C.3     1  UNL1        0.0788
     28 C           6.2190  -13.3103   -1.8493 C.ar    1  UNL1       -0.0197
     29 C           6.5899  -11.9945   -1.5511 C.ar    1  UNL1       -0.0545
     30 N           8.5435  -15.5431    5.8583 N.2     1  UNL1       -0.1609
     31 N           8.8098  -16.5829    6.7058 N.pl3   1  UNL1       -0.2229
     32 C           9.5621  -16.2460    7.8796 C.3     1  UNL1        0.2095
     33 O          10.8865  -16.6630    7.7276 O.3     1  UNL1       -0.3579
     34 H          11.2862  -13.9850   11.9988 H       1  UNL1        0.0230
     35 H           9.8071  -13.1097   11.5777 H       1  UNL1        0.0230
     36 H          11.3529  -12.6590   10.8272 H       1  UNL1        0.0230
     37 H           9.9136  -15.3306   10.4696 H       1  UNL1        0.0278
     38 H          11.4556  -14.9101    9.7241 H       1  UNL1        0.0278
     39 H          10.3382  -13.0132    8.5056 H       1  UNL1        0.0465
     40 H           8.7804  -13.5110    9.1917 H       1  UNL1        0.0465
     41 H           7.4862  -13.2264    4.0551 H       1  UNL1        0.0475
     42 H           9.1428  -13.5737    3.5153 H       1  UNL1        0.0475
     43 H           7.2604  -11.8317    2.1118 H       1  UNL1        0.1487
     44 H           9.3896   -9.8872    1.3955 H       1  UNL1        0.0471
     45 H           7.8545   -9.2290    1.8999 H       1  UNL1        0.0471
     46 H           8.5174   -9.8688   -0.7707 H       1  UNL1        0.0412
     47 H           5.4661  -11.7563    1.0984 H       1  UNL1        0.0626
     48 H           3.5620  -11.6016    2.5530 H       1  UNL1        0.0618
     49 H           2.3395   -9.4989    2.8494 H       1  UNL1        0.0620
     50 H           2.9896   -7.4025    1.7171 H       1  UNL1        0.0683
     51 H           5.0114   -6.4547    0.0083 H       1  UNL1        0.4459
     52 H           7.4137   -7.3795   -0.2767 H       1  UNL1        0.1077
     53 H           6.4337   -7.8764   -1.7119 H       1  UNL1        0.1077
     54 H           8.8386  -12.7419    0.8953 H       1  UNL1        0.0622
     55 H           8.1100  -14.9619    0.4288 H       1  UNL1        0.0654
     56 H           6.0395  -17.0586   -2.8460 H       1  UNL1        0.0660
     57 H           6.4032  -15.4571   -3.5055 H       1  UNL1        0.0660
     58 H           4.8986  -15.7322   -2.5414 H       1  UNL1        0.0660
     59 H           5.4713  -13.4691   -2.6203 H       1  UNL1        0.0654
     60 H           6.1300  -11.1942   -2.1269 H       1  UNL1        0.0622
     61 H           8.2867  -17.4548    6.6843 H       1  UNL1        0.1725
     62 H           9.1359  -16.6002    8.8237 H       1  UNL1        0.1049
     63 H          11.1028  -16.4344    6.8086 H       1  UNL1        0.2134
@<TRIPOS>UNITY_ATOM_ATTR
20 1
charge 1
@<TRIPOS>BOND
     1     1     2    1
     2     2     3    1
     3     3     4    1
     4     4     5    1
     5     5     6    1
     6     6     7    1
     7     7     8    1
     8     8     9    2
     9     8    10   am
    10    10    11    1
    11    13    14    2
    12    14    15   ar
    13    15    16   ar
    14    16    17   ar
    15    17    18   ar
    16    18    19   ar
    17    14    19   ar
    18    19    20    2
    19    20    21    1
    20    13    21    1
    21    12    22    1
    22    22    23   ar
    23    23    24   ar
    24    24    25   ar
    25    25    26    1
    26    26    27    1
    27    25    28   ar
    28    28    29   ar
    29    22    29   ar
    30     5    30    2
    31    30    31    1
    32    31    32    1
    33     4    32    1
    34    32    33    1
    35    12    13    1
    36    12    11    1
    37     1    34    1
    38     1    35    1
    39     1    36    1
    40     2    37    1
    41     2    38    1
    42     3    39    1
    43     3    40    1
    44     7    41    1
    45     7    42    1
    46    10    43    1
    47    11    44    1
    48    11    45    1
    49    12    46    1
    50    15    47    1
    51    16    48    1
    52    17    49    1
    53    18    50    1
    54    20    51    1
    55    21    52    1
    56    21    53    1
    57    23    54    1
    58    24    55    1
    59    27    56    1
    60    27    57    1
    61    27    58    1
    62    28    59    1
    63    29    60    1
    64    31    61    1
    65    32    62    1
    66    33    63    1
