@<TRIPOS>MOLECULE
*****
 70 72 0 0 0
SMALL
GASTEIGER

@<TRIPOS>ATOM
      1 C           0.8887    0.2970   -0.0109 C.3     1  UNL1       -0.0496
      2 C           2.3980    0.5364   -0.1193 C.3     1  UNL1        0.0063
      3 N           2.9101    0.1006   -1.4393 N.pl3   1  UNL1       -0.3427
      4 C           4.2464   -0.3209   -1.6070 C.ar    1  UNL1        0.0487
      5 C           4.9240    0.1585   -2.7426 C.ar    1  UNL1       -0.0383
      6 C           6.2797   -0.1302   -3.0246 C.ar    1  UNL1       -0.0459
      7 C           7.0716   -0.8116   -2.1060 C.ar    1  UNL1        0.0609
      8 C           8.5737   -0.8685   -2.3520 C.2     1  UNL1        0.3392
      9 O           9.0700   -0.4043   -3.3723 O.2     1  UNL1       -0.2450
     10 O           9.3149   -1.4427   -1.3536 O.3     1  UNL1       -0.4614
     11 C          10.7492   -1.4813   -1.6136 C.3     1  UNL1        0.0900
     12 C          11.4867   -2.1465   -0.4608 C.3     1  UNL1       -0.0306
     13 C           6.3738   -1.4191   -1.0546 C.ar    1  UNL1       -0.0247
     14 C           4.9307   -1.3025   -0.8815 C.ar    1  UNL1        0.0555
     15 N           4.3133   -2.1418    0.1172 N.am    1  UNL1       -0.2799
     16 C           3.0384   -2.1431    0.6276 C.2     1  UNL1        0.2501
     17 O           2.1011   -2.3416   -0.1493 O.2     1  UNL1       -0.2698
     18 C           2.7556   -2.0113    2.1939 C.ar    1  UNL1        0.0593
     19 C           1.4023   -2.3734    2.4183 C.ar    1  UNL1       -0.0478
     20 C           0.8089   -2.3992    3.6771 C.ar    1  UNL1       -0.0609
     21 C           1.5723   -2.1257    4.7937 C.ar    1  UNL1       -0.0599
     22 C           2.8833   -1.6826    4.6410 C.ar    1  UNL1       -0.0386
     23 C           3.4969   -1.5689    3.3741 C.ar    1  UNL1        0.0601
     24 N           4.7782   -0.8485    3.5127 N.pl3   1  UNL1       -0.2155
     25 S           5.6315   -0.7387    2.1379 S.O2    1  UNL1        0.0729
     26 O           5.7388   -2.1607    1.8605 O.2     1  UNL1       -0.1500
     27 O           4.8896    0.1927    1.3509 O.2     1  UNL1       -0.1500
     28 C           7.2793   -0.2196    2.1944 C.ar    1  UNL1        0.1148
     29 C           8.3192   -1.1900    2.2141 C.ar    1  UNL1       -0.0207
     30 C           8.2382   -2.6888    1.9010 C.3     1  UNL1       -0.0376
     31 C           9.5852   -0.7069    2.5402 C.ar    1  UNL1       -0.0454
     32 C          10.6351   -1.6299    3.0902 C.3     1  UNL1       -0.0394
     33 C           9.8429    0.6724    2.5170 C.ar    1  UNL1       -0.0553
     34 C           8.8329    1.6093    2.2723 C.ar    1  UNL1       -0.0454
     35 C           9.1105    3.0770    2.3678 C.3     1  UNL1       -0.0394
     36 C           7.5269    1.1722    2.0745 C.ar    1  UNL1       -0.0207
     37 C           6.4483    2.1740    1.6918 C.3     1  UNL1       -0.0376
     38 H           0.5463    0.4618    1.0180 H       1  UNL1        0.0245
     39 H           0.5861   -0.7262   -0.2582 H       1  UNL1        0.0245
     40 H           0.3451    0.9448   -0.6950 H       1  UNL1        0.0245
     41 H           2.8152    0.0376    0.7416 H       1  UNL1        0.0458
     42 H           2.6611    1.5805    0.0712 H       1  UNL1        0.0458
     43 H           2.3309   -0.6632   -1.7911 H       1  UNL1        0.1461
     44 H           4.3767    0.7936   -3.4343 H       1  UNL1        0.0637
     45 H           6.7065    0.2054   -3.9674 H       1  UNL1        0.0626
     46 H          11.1436   -0.4632   -1.7329 H       1  UNL1        0.0695
     47 H          10.9498   -2.0535   -2.5269 H       1  UNL1        0.0695
     48 H          11.3345   -1.5684    0.4474 H       1  UNL1        0.0262
     49 H          12.5676   -2.2013   -0.6386 H       1  UNL1        0.0262
     50 H          11.1137   -3.1583   -0.2770 H       1  UNL1        0.0262
     51 H           6.9734   -1.9863   -0.3539 H       1  UNL1        0.0645
     52 H           4.9667   -2.5896    0.7461 H       1  UNL1        0.1552
     53 H           0.7644   -2.6526    1.5792 H       1  UNL1        0.0626
     54 H          -0.2431   -2.6576    3.7679 H       1  UNL1        0.0618
     55 H           1.1418   -2.2432    5.7834 H       1  UNL1        0.0618
     56 H           3.4274   -1.4014    5.5410 H       1  UNL1        0.0637
     57 H           5.3006   -0.8819    4.3828 H       1  UNL1        0.1737
     58 H           7.3613   -3.1448    1.4506 H       1  UNL1        0.0278
     59 H           8.4091   -3.2810    2.8013 H       1  UNL1        0.0278
     60 H           8.9766   -2.9274    1.1233 H       1  UNL1        0.0278
     61 H          10.3288   -2.6781    3.1021 H       1  UNL1        0.0278
     62 H          10.8065   -1.3560    4.1343 H       1  UNL1        0.0278
     63 H          11.5609   -1.5633    2.5250 H       1  UNL1        0.0278
     64 H          10.8530    1.0185    2.7199 H       1  UNL1        0.0623
     65 H          10.1485    3.2750    2.6315 H       1  UNL1        0.0278
     66 H           8.4765    3.4927    3.1620 H       1  UNL1        0.0278
     67 H           8.8822    3.5717    1.4188 H       1  UNL1        0.0278
     68 H           6.7568    3.2195    1.7071 H       1  UNL1        0.0278
     69 H           5.6131    2.1180    2.3955 H       1  UNL1        0.0278
     70 H           6.1195    1.9998    0.6569 H       1  UNL1        0.0278
@<TRIPOS>BOND
     1     1     2    1
     2     2     3    1
     3     3     4    1
     4     4     5   ar
     5     5     6   ar
     6     6     7   ar
     7     7     8    1
     8     8     9    2
     9     8    10    1
    10    10    11    1
    11    11    12    1
    12     7    13   ar
    13    13    14   ar
    14     4    14   ar
    15    14    15    1
    16    15    16   am
    17    16    17    2
    18    16    18    1
    19    18    19   ar
    20    19    20   ar
    21    20    21   ar
    22    21    22   ar
    23    22    23   ar
    24    18    23   ar
    25    23    24    1
    26    24    25    1
    27    25    26    2
    28    25    27    2
    29    25    28    1
    30    28    29   ar
    31    29    30    1
    32    29    31   ar
    33    31    32    1
    34    31    33   ar
    35    33    34   ar
    36    34    35    1
    37    34    36   ar
    38    28    36   ar
    39    36    37    1
    40     1    38    1
    41     1    39    1
    42     1    40    1
    43     2    41    1
    44     2    42    1
    45     3    43    1
    46     5    44    1
    47     6    45    1
    48    11    46    1
    49    11    47    1
    50    12    48    1
    51    12    49    1
    52    12    50    1
    53    13    51    1
    54    15    52    1
    55    19    53    1
    56    20    54    1
    57    21    55    1
    58    22    56    1
    59    24    57    1
    60    30    58    1
    61    30    59    1
    62    30    60    1
    63    32    61    1
    64    32    62    1
    65    32    63    1
    66    33    64    1
    67    35    65    1
    68    35    66    1
    69    35    67    1
    70    37    68    1
    71    37    69    1
    72    37    70    1
