@<TRIPOS>MOLECULE
*****
 43 44 0 0 0
SMALL
GASTEIGER

@<TRIPOS>ATOM
      1 C           1.2831  -12.6814    2.1306 C.3     1  UNL1       -0.0397
      2 C           1.8825  -11.5259    2.8885 C.ar    1  UNL1       -0.0495
      3 C           2.7038  -11.7446    3.9879 C.ar    1  UNL1       -0.0553
      4 C           3.1981  -10.6597    4.7136 C.ar    1  UNL1       -0.0192
      5 C           2.8869   -9.3438    4.3458 C.ar    1  UNL1        0.1290
      6 O           3.3499   -8.3225    5.1224 O.3     1  UNL1       -0.5060
      7 C           2.1168   -9.0719    3.2147 C.ar    1  UNL1        0.0783
      8 C           1.8920   -7.6191    2.7827 C.2     1  UNL1        0.2477
      9 O           2.3240   -6.6403    3.3856 O.2     1  UNL1       -0.2701
     10 N           1.1322   -7.4491    1.6579 N.am    1  UNL1       -0.3088
     11 C           0.7334   -6.1630    1.0908 C.3     1  UNL1        0.0382
     12 C          -0.1389   -6.2862   -0.1942 C.3     1  UNL1        0.0735
     13 O          -1.0453   -5.1677   -0.2654 O.3     1  UNL1       -0.3900
     14 C          -0.9821   -7.5854   -0.2890 C.3     1  UNL1       -0.0135
     15 C          -0.1544   -8.8681   -0.5769 C.3     1  UNL1       -0.0478
     16 C          -0.9625  -10.1488   -0.3703 C.3     1  UNL1       -0.0527
     17 C          -1.7985  -10.1615    0.9109 C.3     1  UNL1       -0.0530
     18 C          -2.7109   -8.9536    0.9890 C.3     1  UNL1       -0.0527
     19 C          -1.9110   -7.6751    0.9454 C.3     1  UNL1       -0.0478
     20 C           1.6192  -10.1946    2.5057 C.ar    1  UNL1       -0.0432
     21 H           1.5964  -13.6448    2.5500 H       1  UNL1        0.0278
     22 H           1.5908  -12.6617    1.0801 H       1  UNL1        0.0278
     23 H           0.1892  -12.6444    2.1824 H       1  UNL1        0.0278
     24 H           2.9605  -12.7566    4.2936 H       1  UNL1        0.0621
     25 H           3.8321  -10.8555    5.5721 H       1  UNL1        0.0654
     26 H           3.8440   -8.6654    5.8791 H       1  UNL1        0.2922
     27 H           0.4513   -8.1781    1.5872 H       1  UNL1        0.1491
     28 H           1.6315   -5.5751    0.8681 H       1  UNL1        0.0487
     29 H           0.1902   -5.6120    1.8679 H       1  UNL1        0.0487
     30 H           0.4950   -6.2016   -1.0837 H       1  UNL1        0.0611
     31 H          -1.5996   -5.1573    0.5352 H       1  UNL1        0.2099
     32 H          -1.6453   -7.4825   -1.1592 H       1  UNL1        0.0326
     33 H           0.7623   -8.9640   -0.0014 H       1  UNL1        0.0269
     34 H           0.2548   -8.8303   -1.5937 H       1  UNL1        0.0269
     35 H          -0.2854  -11.0116   -0.3617 H       1  UNL1        0.0265
     36 H          -1.6266  -10.2689   -1.2312 H       1  UNL1        0.0265
     37 H          -1.1605  -10.1837    1.8012 H       1  UNL1        0.0265
     38 H          -2.4042  -11.0723    0.9440 H       1  UNL1        0.0265
     39 H          -3.2883   -8.9747    1.9201 H       1  UNL1        0.0265
     40 H          -3.4212   -8.9608    0.1572 H       1  UNL1        0.0265
     41 H          -1.3608   -7.5880    1.8877 H       1  UNL1        0.0269
     42 H          -2.6120   -6.8348    0.9511 H       1  UNL1        0.0269
     43 H           1.0121  -10.0845    1.6241 H       1  UNL1        0.0629
@<TRIPOS>BOND
     1     1     2    1
     2     2     3   ar
     3     3     4   ar
     4     4     5   ar
     5     5     6    1
     6     5     7   ar
     7     7     8    1
     8     8     9    2
     9     8    10   am
    10    10    11    1
    11    12    14    1
    12    14    15    1
    13    15    16    1
    14    16    17    1
    15    17    18    1
    16    18    19    1
    17    14    19    1
    18     7    20   ar
    19     2    20   ar
    20    12    13    1
    21    12    11    1
    22     1    21    1
    23     1    22    1
    24     1    23    1
    25     3    24    1
    26     4    25    1
    27     6    26    1
    28    10    27    1
    29    11    28    1
    30    11    29    1
    31    12    30    1
    32    13    31    1
    33    14    32    1
    34    15    33    1
    35    15    34    1
    36    16    35    1
    37    16    36    1
    38    17    37    1
    39    17    38    1
    40    18    39    1
    41    18    40    1
    42    19    41    1
    43    19    42    1
    44    20    43    1
