REMARK  7 active torsions:
REMARK  status: ('A' for Active; 'I' for Inactive)
REMARK    1  A    between atoms: O_2  and  C_3 
REMARK    2  A    between atoms: C_6  and  N_7 
REMARK       I    between atoms: N_7  and  C_8 
REMARK       I    between atoms: C_8  and  N_20 
REMARK       I    between atoms: N_9  and  C_10 
REMARK    3  A    between atoms: C_10  and  C_12 
REMARK    4  A    between atoms: N_20  and  C_21 
REMARK    5  A    between atoms: C_21  and  C_22 
REMARK    6  A    between atoms: C_22  and  C_23 
REMARK    7  A    between atoms: C_33  and  O_34 
ROOT
ATOM      1  N   UNL d   1       5.438   2.971   3.491  0.00  0.00    -0.190 N 
ATOM      2  C   UNL d   1       4.950   3.215   4.796  0.00  0.00     0.704 C 
ATOM      3  N   UNL d   1       3.864   2.825   5.407  0.00  0.00    -0.023 NA
ATOM      4  C   UNL d   1       2.736   2.639   4.647  0.00  0.00     0.294 C 
ATOM      5  O   UNL d   1       2.402   3.390   3.769  0.00  0.00    -0.265 OA
ATOM      6  N   UNL d   1       5.758   4.035   5.607  0.00  0.00    -0.224 N 
ATOM      7  H   UNL d   1       6.169   3.584   3.158  0.00  0.00     0.184 HD
ATOM      8  H   UNL d   1       6.416   4.658   5.151  0.00  0.00     0.177 HD
ENDROOT
BRANCH   1   9
ATOM      9  C   UNL d   1       4.874   2.164   2.443  0.00  0.00     0.052 C 
ATOM     10  C   UNL d   1       5.227   2.190   1.101  0.00  0.00     0.033 C 
ATOM     11  C   UNL d   1       4.439   1.487   0.119  0.00  0.00     0.042 C 
ATOM     12  C   UNL d   1       3.210   0.850   0.414  0.00  0.00     0.101 C 
ATOM     13  C   UNL d   1       2.869   0.866   1.742  0.00  0.00     0.103 C 
ATOM     14  C   UNL d   1       3.860   1.258   2.680  0.00  0.00     0.069 C 
BRANCH  12  15
ATOM     15  O   UNL d   1       2.700   0.057  -0.578  0.00  0.00    -0.353 OA
ATOM     16  C   UNL d   1       1.317  -0.021  -0.904  0.00  0.00     0.210 C 
ENDBRANCH  12  15
BRANCH  13  17
ATOM     17  O   UNL d   1       1.686   0.680   2.375  0.00  0.00    -0.353 OA
ATOM     18  C   UNL d   1       0.599   0.003   1.822  0.00  0.00     0.210 C 
ENDBRANCH  13  17
ENDBRANCH   1   9
BRANCH   6  19
ATOM     19  C   UNL d   1       5.188   4.531   6.895  0.00  0.00     0.142 C 
BRANCH  19  20
ATOM     20  C   UNL d   1       6.078   5.507   7.665  0.00  0.00     0.057 C 
BRANCH  20  21
ATOM     21  C   UNL d   1       5.635   5.905   9.060  0.00  0.00    -0.048 A 
ATOM     22  C   UNL d   1       6.418   6.628   9.868  0.00  0.00    -0.006 A 
ATOM     23  C   UNL d   1       7.724   7.161   9.691  0.00  0.00     0.014 A 
ATOM     24  C   UNL d   1       5.694   6.772  11.140  0.00  0.00     0.038 A 
ATOM     25  C   UNL d   1       8.343   7.689  10.754  0.00  0.00     0.001 A 
ATOM     26  C   UNL d   1       7.664   7.837  12.033  0.00  0.00     0.002 A 
ATOM     27  C   UNL d   1       6.394   7.439  12.256  0.00  0.00     0.030 A 
ATOM     28  N   UNL d   1       4.533   6.242  11.085  0.00  0.00    -0.385 N 
ATOM     29  C   UNL d   1       4.359   5.534   9.782  0.00  0.00     0.155 A 
ATOM     30  H   UNL d   1       3.863   6.298  11.853  0.00  0.00     0.160 HD
ENDBRANCH  20  21
ENDBRANCH  19  20
ENDBRANCH   6  19
BRANCH   4  31
ATOM     31  C   UNL d   1       1.707   1.691   5.176  0.00  0.00     0.037 A 
ATOM     32  C   UNL d   1       1.552   0.309   4.923  0.00  0.00     0.018 A 
ATOM     33  C   UNL d   1       0.278  -0.272   5.022  0.00  0.00     0.011 A 
ATOM     34  C   UNL d   1      -0.790   0.486   5.501  0.00  0.00    -0.023 A 
ATOM     35  C   UNL d   1      -2.127  -0.122   5.761  0.00  0.00     0.051 C 
ATOM     36  C   UNL d   1      -0.583   1.827   5.819  0.00  0.00     0.123 A 
ATOM     37  F   UNL d   1      -1.590   2.585   6.263  0.00  0.00    -0.206 F 
ATOM     38  C   UNL d   1       0.641   2.427   5.654  0.00  0.00     0.060 A 
ENDBRANCH   4  31
TORSDOF 7
