REMARK  12 active torsions:
REMARK  status: ('A' for Active; 'I' for Inactive)
REMARK    1  A    between atoms: C_2  and  C_3 
REMARK    2  A    between atoms: C_3  and  C_4 
REMARK    3  A    between atoms: C_4  and  C_5 
REMARK    4  A    between atoms: C_5  and  C_6 
REMARK    5  A    between atoms: C_6  and  O_7 
REMARK    6  A    between atoms: O_7  and  C_8 
REMARK    7  A    between atoms: C_13  and  C_14 
REMARK       I    between atoms: C_14  and  N_16 
REMARK    8  A    between atoms: N_16  and  N_17 
REMARK       I    between atoms: N_17  and  C_18 
REMARK    9  A    between atoms: C_18  and  C_20 
REMARK   10  A    between atoms: C_20  and  C_21 
REMARK   11  A    between atoms: C_21  and  C_22 
REMARK       I    between atoms: C_22  and  N_24 
REMARK   12  A    between atoms: N_24  and  C_25 
ROOT
ATOM      1  N   UNL d   1       6.698  -2.330  -1.617  0.00  0.00    -0.267 N 
ATOM      2  C   UNL d   1       5.311  -2.476  -1.496  0.00  0.00     0.236 C 
ATOM      3  O   UNL d   1       4.539  -2.166  -2.380  0.00  0.00    -0.272 OA
ATOM      4  H   UNL d   1       7.360  -2.760  -0.976  0.00  0.00     0.190 HD
ENDROOT
BRANCH   1   5
ATOM      5  N   UNL d   1       7.260  -1.860  -2.874  0.00  0.00    -0.263 N 
ATOM      6  C   UNL d   1       8.620  -1.517  -2.894  0.00  0.00     0.272 C 
ATOM      7  O   UNL d   1       9.423  -2.058  -2.138  0.00  0.00    -0.266 OA
ATOM      8  H   UNL d   1       6.602  -1.380  -3.486  0.00  0.00     0.190 HD
BRANCH   6   9
ATOM      9  C   UNL d   1       9.108  -0.439  -3.844  0.00  0.00     0.067 A 
ATOM     10  C   UNL d   1      10.479  -0.454  -4.197  0.00  0.00     0.020 A 
ATOM     11  C   UNL d   1      11.022   0.455  -5.122  0.00  0.00     0.001 A 
ATOM     12  C   UNL d   1      10.204   1.405  -5.717  0.00  0.00     0.003 A 
ATOM     13  C   UNL d   1       8.871   1.497  -5.315  0.00  0.00     0.038 A 
ATOM     14  C   UNL d   1       8.323   0.596  -4.374  0.00  0.00     0.084 A 
BRANCH  14  15
ATOM     15  O   UNL d   1       6.985   0.754  -4.160  0.00  0.00    -0.350 OA
BRANCH  15  16
ATOM     16  C   UNL d   1       6.564   0.950  -2.805  0.00  0.00     0.175 C 
BRANCH  16  17
ATOM     17  C   UNL d   1       5.055   0.744  -2.832  0.00  0.00     0.027 C 
BRANCH  17  18
ATOM     18  C   UNL d   1       4.471   0.648  -1.430  0.00  0.00     0.002 C 
BRANCH  18  19
ATOM     19  C   UNL d   1       2.955   0.471  -1.496  0.00  0.00    -0.000 C 
BRANCH  19  20
ATOM     20  C   UNL d   1       2.364   0.410  -0.099  0.00  0.00    -0.005 C 
ATOM     21  C   UNL d   1       0.871   0.182  -0.101  0.00  0.00     0.005 C 
ENDBRANCH  19  20
ENDBRANCH  18  19
ENDBRANCH  17  18
ENDBRANCH  16  17
ENDBRANCH  15  16
ENDBRANCH  14  15
ENDBRANCH   6   9
ENDBRANCH   1   5
BRANCH   2  22
ATOM     22  C   UNL d   1       4.815  -3.094  -0.184  0.00  0.00     0.114 C 
BRANCH  22  23
ATOM     23  C   UNL d   1       3.331  -2.824   0.144  0.00  0.00     0.112 C 
BRANCH  23  24
ATOM     24  C   UNL d   1       2.696  -3.845   1.060  0.00  0.00     0.222 C 
ATOM     25  O   UNL d   1       3.339  -4.821   1.434  0.00  0.00    -0.273 OA
ATOM     26  N   UNL d   1       1.395  -3.559   1.480  0.00  0.00    -0.326 N 
ATOM     27  H   UNL d   1       0.798  -2.954   0.925  0.00  0.00     0.169 HD
BRANCH  26  28
ATOM     28  C   UNL d   1       0.803  -4.238   2.585  0.00  0.00     0.056 A 
ATOM     29  C   UNL d   1      -0.539  -4.653   2.501  0.00  0.00     0.033 A 
ATOM     30  C   UNL d   1      -1.167  -5.263   3.603  0.00  0.00     0.026 A 
ATOM     31  C   UNL d   1      -0.445  -5.503   4.769  0.00  0.00     0.035 A 
ATOM     32 CL   UNL d   1      -1.178  -6.308   6.101  0.00  0.00    -0.084 Cl
ATOM     33  C   UNL d   1       0.877  -5.094   4.871  0.00  0.00     0.050 A 
ATOM     34  C   UNL d   1       1.495  -4.450   3.798  0.00  0.00     0.062 A 
ATOM     35 CL   UNL d   1       3.059  -3.784   4.149  0.00  0.00    -0.082 Cl
ENDBRANCH  26  28
ENDBRANCH  23  24
ENDBRANCH  22  23
ENDBRANCH   2  22
TORSDOF 12
