REMARK  9 active torsions:
REMARK  status: ('A' for Active; 'I' for Inactive)
REMARK    1  A    between atoms: C_2  and  C_3 
REMARK    2  A    between atoms: C_3  and  C_4 
REMARK    3  A    between atoms: C_4  and  N_5 
REMARK       I    between atoms: N_5  and  C_6 
REMARK       I    between atoms: C_6  and  N_8 
REMARK    4  A    between atoms: N_8  and  N_9 
REMARK       I    between atoms: N_9  and  C_10 
REMARK    5  A    between atoms: C_10  and  C_12 
REMARK    6  A    between atoms: C_12  and  O_13 
REMARK    7  A    between atoms: O_13  and  C_14 
REMARK    8  A    between atoms: C_17  and  C_18 
REMARK    9  A    between atoms: C_18  and  C_20 
ROOT
ATOM      1  N   UNL d   1       8.385  -4.817  -0.054  0.00  0.00    -0.264 N 
ATOM      2  C   UNL d   1       8.777  -6.157  -0.062  0.00  0.00     0.260 C 
ATOM      3  O   UNL d   1       7.935  -7.059  -0.050  0.00  0.00    -0.269 OA
ATOM      4  H   UNL d   1       9.024  -4.024  -0.062  0.00  0.00     0.190 HD
ENDROOT
BRANCH   2   5
ATOM      5  C   UNL d   1      10.316  -6.436  -0.072  0.00  0.00     0.280 C 
BRANCH   5   6
ATOM      6  O   UNL d   1      10.595  -7.842  -0.189  0.00  0.00    -0.342 OA
BRANCH   6   7
ATOM      7  C   UNL d   1      11.888  -8.281  -0.066  0.00  0.00     0.069 A 
ATOM      8  C   UNL d   1      12.231  -9.415  -0.814  0.00  0.00     0.038 A 
ATOM      9  C   UNL d   1      13.492 -10.018  -0.679  0.00  0.00     0.018 A 
ATOM     10  C   UNL d   1      14.457  -9.457   0.165  0.00  0.00     0.010 A 
ATOM     11  C   UNL d   1      14.108  -8.340   0.933  0.00  0.00     0.018 A 
ATOM     12  C   UNL d   1      12.829  -7.762   0.822  0.00  0.00     0.038 A 
BRANCH  10  13
ATOM     13  C   UNL d   1      15.838 -10.037   0.171  0.00  0.00     0.159 C 
ATOM     14  O   UNL d   1      16.082 -11.011  -0.543  0.00  0.00    -0.292 OA
BRANCH  13  15
ATOM     15  C   UNL d   1      16.911  -9.374   1.022  0.00  0.00     0.079 C 
ATOM     16  C   UNL d   1      18.259 -10.059   0.862  0.00  0.00     0.013 C 
ENDBRANCH  13  15
ENDBRANCH  10  13
ENDBRANCH   6   7
ENDBRANCH   5   6
ENDBRANCH   2   5
BRANCH   1  17
ATOM     17  N   UNL d   1       6.981  -4.484  -0.050  0.00  0.00    -0.249 N 
ATOM     18  C   UNL d   1       6.589  -3.153  -0.056  0.00  0.00     0.334 C 
ATOM     19  N   UNL d   1       5.222  -2.941  -0.057  0.00  0.00    -0.342 N 
ATOM     20  O   UNL d   1       7.410  -2.233  -0.059  0.00  0.00    -0.246 OA
ATOM     21  H   UNL d   1       4.591  -3.730  -0.056  0.00  0.00     0.164 HD
ATOM     22  H   UNL d   1       6.336  -5.269  -0.052  0.00  0.00     0.192 HD
BRANCH  19  23
ATOM     23  C   UNL d   1       4.654  -1.586  -0.062  0.00  0.00     0.124 C 
BRANCH  23  24
ATOM     24  C   UNL d   1       3.117  -1.540  -0.062  0.00  0.00     0.019 C 
BRANCH  24  25
ATOM     25  C   UNL d   1       2.575  -0.101  -0.067  0.00  0.00    -0.003 C 
ATOM     26  C   UNL d   1       1.050  -0.072  -0.067  0.00  0.00     0.005 C 
ENDBRANCH  24  25
ENDBRANCH  23  24
ENDBRANCH  19  23
ENDBRANCH   1  17
TORSDOF 9
