REMARK  4 active torsions:
REMARK  status: ('A' for Active; 'I' for Inactive)
REMARK    1  A    between atoms: C_2  and  C_3 
REMARK       I    between atoms: C_2  and  N_13 
REMARK    2  A    between atoms: C_3  and  C_4 
REMARK    3  A    between atoms: N_13  and  N_14 
REMARK    4  A    between atoms: N_14  and  C_15 
ROOT
ATOM      1  O   UNL d   1       1.000   0.160  -0.248  0.00  0.00    -0.272 OA
ATOM      2  C   UNL d   1       2.226   0.105  -0.106  0.00  0.00     0.240 C 
ATOM      3  N   UNL d   1       2.998   0.979  -0.845  0.00  0.00    -0.269 N 
ATOM      4  H   UNL d   1       2.487   1.484  -1.566  0.00  0.00     0.190 HD
ENDROOT
BRANCH   2   5
ATOM      5  C   UNL d   1       2.922  -0.844   0.867  0.00  0.00     0.143 C 
BRANCH   5   6
ATOM      6  C   UNL d   1       1.999  -1.700   1.726  0.00  0.00    -0.049 A 
ATOM      7  C   UNL d   1       0.942  -1.115   2.459  0.00  0.00     0.008 A 
ATOM      8  C   UNL d   1       0.091  -1.884   3.262  0.00  0.00     0.008 A 
ATOM      9  C   UNL d   1       0.305  -3.247   3.333  0.00  0.00    -0.052 A 
ATOM     10  C   UNL d   1       1.360  -3.842   2.634  0.00  0.00    -0.051 A 
ATOM     11  C   UNL d   1      -0.456  -4.266   4.125  0.00  0.00     0.039 C 
ATOM     12  C   UNL d   1       2.216  -3.086   1.841  0.00  0.00     0.015 A 
ATOM     13  C   UNL d   1       1.406  -5.315   2.912  0.00  0.00     0.039 C 
ATOM     14  C   UNL d   1      -0.018  -5.565   3.433  0.00  0.00     0.009 C 
ENDBRANCH   5   6
ENDBRANCH   2   5
BRANCH   3  15
ATOM     15  N   UNL d   1       4.370   0.865  -1.020  0.00  0.00    -0.298 N 
ATOM     16  H   UNL d   1       4.940   0.268  -0.428  0.00  0.00     0.187 HD
BRANCH  15  17
ATOM     17  C   UNL d   1       5.005   1.800  -1.855  0.00  0.00     0.048 A 
ATOM     18  C   UNL d   1       4.576   3.131  -1.977  0.00  0.00     0.034 A 
ATOM     19  C   UNL d   1       5.171   4.002  -2.899  0.00  0.00     0.044 A 
ATOM     20  C   UNL d   1       6.194   3.541  -3.716  0.00  0.00     0.116 A 
ATOM     21  F   UNL d   1       6.746   4.364  -4.617  0.00  0.00    -0.206 F 
ATOM     22  C   UNL d   1       6.649   2.234  -3.610  0.00  0.00     0.044 A 
ATOM     23  C   UNL d   1       6.061   1.371  -2.677  0.00  0.00     0.034 A 
ENDBRANCH  15  17
ENDBRANCH   3  15
TORSDOF 4
