@<TRIPOS>MOLECULE
*****
 66 68 0 0 0
SMALL
GASTEIGER

@<TRIPOS>ATOM
      1 C           1.0099   -0.1048   -0.0220 C.3     1  UNL1       -0.0380
      2 C           2.5524   -0.1791   -0.0389 C.3     1  UNL1        0.0997
      3 N           3.0234   -1.5563   -0.1647 N.am    1  UNL1       -0.2701
      4 C           2.6662   -2.5312    0.7208 C.2     1  UNL1        0.4012
      5 O           2.0048   -2.3370    1.7397 O.2     1  UNL1       -0.2265
      6 O           3.1267   -3.7449    0.3325 O.3     1  UNL1       -0.4456
      7 C           2.7644   -4.8028    1.2409 C.3     1  UNL1        0.1191
      8 C           3.3537   -6.1291    0.8099 C.ar    1  UNL1       -0.0103
      9 C           2.6544   -7.3271    1.0343 C.ar    1  UNL1       -0.0554
     10 C           3.2526   -8.5625    0.7674 C.ar    1  UNL1       -0.0614
     11 C           4.5253   -8.6139    0.2043 C.ar    1  UNL1       -0.0617
     12 C           5.2261   -7.4335   -0.0316 C.ar    1  UNL1       -0.0614
     13 C           4.6519   -6.2010    0.2873 C.ar    1  UNL1       -0.0554
     14 C           3.0444    0.6363   -1.2595 C.2     1  UNL1        0.2338
     15 O           2.2661    0.8588   -2.1846 O.2     1  UNL1       -0.2738
     16 N           4.3736    1.0249   -1.3047 N.am    1  UNL1       -0.3002
     17 C           4.9409    1.9190   -2.3785 C.3     1  UNL1        0.1295
     18 C           4.4945    3.4081   -2.2211 C.3     1  UNL1        0.0228
     19 S           2.7607    3.5755   -2.7443 S.3     1  UNL1       -0.1537
     20 C           2.0826    5.0662   -1.9699 C.3     1  UNL1        0.0189
     21 C           0.5554    5.0110   -1.9078 C.ar    1  UNL1       -0.0376
     22 C          -0.1795    6.2039   -1.8601 C.ar    1  UNL1       -0.0578
     23 C          -1.5691    6.1804   -1.6838 C.ar    1  UNL1       -0.0615
     24 C          -2.2590    4.9694   -1.6413 C.ar    1  UNL1       -0.0617
     25 C          -1.5559    3.7759   -1.7176 C.ar    1  UNL1       -0.0615
     26 C          -0.1650    3.7997   -1.8252 C.ar    1  UNL1       -0.0578
     27 C           6.4911    1.8481   -2.3641 C.2     1  UNL1        0.3288
     28 O           7.1275    1.1718   -1.5616 O.2     1  UNL1       -0.2487
     29 O           7.0611    2.6010   -3.3512 O.3     1  UNL1       -0.4586
     30 C           8.5082    2.6087   -3.3829 C.3     1  UNL1        0.1176
     31 C           8.9865    3.5590   -4.4626 C.ar    1  UNL1       -0.0103
     32 C           9.8547    3.1624   -5.4941 C.ar    1  UNL1       -0.0554
     33 C          10.3160    4.0960   -6.4328 C.ar    1  UNL1       -0.0614
     34 C           9.8608    5.4129   -6.3939 C.ar    1  UNL1       -0.0617
     35 C           9.0061    5.8181   -5.3731 C.ar    1  UNL1       -0.0614
     36 C           8.5901    4.9029   -4.4057 C.ar    1  UNL1       -0.0554
     37 H           0.5574   -0.7008    0.7740 H       1  UNL1        0.0252
     38 H           0.5870   -0.4705   -0.9662 H       1  UNL1        0.0252
     39 H           0.6683    0.9283    0.1123 H       1  UNL1        0.0252
     40 H           2.9467    0.2438    0.8932 H       1  UNL1        0.0593
     41 H           3.5097   -1.8426   -1.0052 H       1  UNL1        0.1528
     42 H           1.6707   -4.8823    1.2843 H       1  UNL1        0.0749
     43 H           3.1489   -4.5799    2.2456 H       1  UNL1        0.0749
     44 H           1.6388   -7.3113    1.4250 H       1  UNL1        0.0621
     45 H           2.7302   -9.4858    1.0063 H       1  UNL1        0.0618
     46 H           4.9706   -9.5724   -0.0494 H       1  UNL1        0.0618
     47 H           6.2282   -7.4714   -0.4497 H       1  UNL1        0.0618
     48 H           5.2243   -5.2909    0.1256 H       1  UNL1        0.0621
     49 H           5.0457    0.5427   -0.7137 H       1  UNL1        0.1496
     50 H           4.6164    1.5114   -3.3464 H       1  UNL1        0.0623
     51 H           5.0367    4.0460   -2.9236 H       1  UNL1        0.0400
     52 H           4.7039    3.7582   -1.2030 H       1  UNL1        0.0400
     53 H           2.3854    5.8757   -2.6401 H       1  UNL1        0.0425
     54 H           2.4672    5.2741   -0.9634 H       1  UNL1        0.0425
     55 H           0.3221    7.1636   -1.9590 H       1  UNL1        0.0621
     56 H          -2.1175    7.1113   -1.5700 H       1  UNL1        0.0618
     57 H          -3.3413    4.9539   -1.5501 H       1  UNL1        0.0618
     58 H          -2.0746    2.8210   -1.6804 H       1  UNL1        0.0618
     59 H           0.3390    2.8358   -1.8670 H       1  UNL1        0.0621
     60 H           8.8846    1.5951   -3.5612 H       1  UNL1        0.0749
     61 H           8.8996    2.9698   -2.4221 H       1  UNL1        0.0749
     62 H          10.1818    2.1287   -5.5875 H       1  UNL1        0.0621
     63 H          11.0304    3.8009   -7.1990 H       1  UNL1        0.0618
     64 H          10.1685    6.1221   -7.1585 H       1  UNL1        0.0618
     65 H           8.6646    6.8484   -5.3239 H       1  UNL1        0.0618
     66 H           7.9401    5.2387   -3.6021 H       1  UNL1        0.0621
@<TRIPOS>BOND
     1     1     2    1
     2     2     3    1
     3     3     4   am
     4     4     5    2
     5     4     6    1
     6     6     7    1
     7     7     8    1
     8     8     9   ar
     9     9    10   ar
    10    10    11   ar
    11    11    12   ar
    12    12    13   ar
    13     8    13   ar
    14     2    14    1
    15    14    15    2
    16    14    16   am
    17    16    17    1
    18    17    18    1
    19    18    19    1
    20    19    20    1
    21    20    21    1
    22    21    22   ar
    23    22    23   ar
    24    23    24   ar
    25    24    25   ar
    26    25    26   ar
    27    21    26   ar
    28    17    27    1
    29    27    28    2
    30    27    29    1
    31    29    30    1
    32    30    31    1
    33    31    32   ar
    34    32    33   ar
    35    33    34   ar
    36    34    35   ar
    37    35    36   ar
    38    31    36   ar
    39     1    37    1
    40     1    38    1
    41     1    39    1
    42     2    40    1
    43     3    41    1
    44     7    42    1
    45     7    43    1
    46     9    44    1
    47    10    45    1
    48    11    46    1
    49    12    47    1
    50    13    48    1
    51    16    49    1
    52    17    50    1
    53    18    51    1
    54    18    52    1
    55    20    53    1
    56    20    54    1
    57    22    55    1
    58    23    56    1
    59    24    57    1
    60    25    58    1
    61    26    59    1
    62    30    60    1
    63    30    61    1
    64    32    62    1
    65    33    63    1
    66    34    64    1
    67    35    65    1
    68    36    66    1
