@<TRIPOS>MOLECULE
*****
 47 49 0 0 0
SMALL
GASTEIGER

@<TRIPOS>ATOM
      1 O           1.0961    0.0228    0.0669 O.2     1  UNL1       -0.2509
      2 C           2.3259    0.0389    0.1430 C.2     1  UNL1        0.3202
      3 N           2.9949   -0.2974    1.2993 N.am    1  UNL1       -0.2177
      4 N           2.3007   -0.6739    2.4660 N.am    1  UNL1       -0.2292
      5 C           3.0420   -0.9468    3.6077 C.2     1  UNL1        0.2602
      6 O           4.2712   -0.8905    3.6353 O.2     1  UNL1       -0.2687
      7 C           2.2963   -1.3734    4.8284 C.ar    1  UNL1        0.0400
      8 C           2.7573   -1.0082    6.1032 C.ar    1  UNL1       -0.0495
      9 C           2.1759   -1.5607    7.2514 C.ar    1  UNL1       -0.0592
     10 C           1.1083   -2.4510    7.1319 C.ar    1  UNL1       -0.0350
     11 C           0.6500   -2.8204    5.8577 C.ar    1  UNL1        0.1092
     12 S          -0.6559   -4.0316    5.7845 S.O2    1  UNL1        0.0724
     13 O          -0.1197   -5.2427    6.3810 O.2     1  UNL1       -0.1500
     14 O          -1.8115   -3.3665    6.3328 O.2     1  UNL1       -0.1500
     15 N          -0.9284   -4.3580    4.1543 N.pl3   1  UNL1       -0.2163
     16 C          -1.9721   -5.2409    3.7503 C.ar    1  UNL1        0.0481
     17 C          -1.7667   -6.0912    2.6568 C.ar    1  UNL1       -0.0379
     18 C          -2.8211   -6.8766    2.1692 C.ar    1  UNL1       -0.0416
     19 C          -4.0597   -6.8483    2.8077 C.ar    1  UNL1        0.0411
     20 CL         -5.3219   -7.8984    2.2986 Cl      1  UNL1       -0.0835
     21 C          -4.2740   -5.9897    3.8787 C.ar    1  UNL1       -0.0416
     22 C          -3.2370   -5.1763    4.3323 C.ar    1  UNL1       -0.0379
     23 C           1.2324   -2.2745    4.7098 C.ar    1  UNL1       -0.0229
     24 N           3.0895    0.4663   -0.9223 N.am    1  UNL1       -0.2683
     25 C           4.4851    0.4014   -1.0872 C.ar    1  UNL1        0.0349
     26 C           5.1602    1.4085   -1.7887 C.ar    1  UNL1       -0.0391
     27 C           6.5536    1.3411   -1.9403 C.ar    1  UNL1       -0.0416
     28 C           7.2656    0.2890   -1.3645 C.ar    1  UNL1        0.0411
     29 CL          8.9829    0.2598   -1.4381 Cl      1  UNL1       -0.0835
     30 C           6.5935   -0.7347   -0.7077 C.ar    1  UNL1       -0.0416
     31 C           5.2068   -0.6880   -0.5958 C.ar    1  UNL1       -0.0391
     32 H           3.9944   -0.1518    1.4127 H       1  UNL1        0.1744
     33 H           1.2872   -0.5947    2.4345 H       1  UNL1        0.1732
     34 H           3.5818   -0.3052    6.2116 H       1  UNL1        0.0625
     35 H           2.5740   -1.3231    8.2375 H       1  UNL1        0.0618
     36 H           0.6478   -2.8640    8.0309 H       1  UNL1        0.0637
     37 H          -0.4237   -3.8831    3.4187 H       1  UNL1        0.1737
     38 H          -0.7904   -6.1766    2.1853 H       1  UNL1        0.0637
     39 H          -2.6736   -7.5119    1.2990 H       1  UNL1        0.0633
     40 H          -5.2413   -5.9344    4.3692 H       1  UNL1        0.0633
     41 H          -3.4521   -4.4897    5.1432 H       1  UNL1        0.0637
     42 H           0.9206   -2.5693    3.7208 H       1  UNL1        0.0645
     43 H           2.5501    0.8690   -1.6816 H       1  UNL1        0.1564
     44 H           4.6377    2.2854   -2.1665 H       1  UNL1        0.0636
     45 H           7.0830    2.1159   -2.4907 H       1  UNL1        0.0633
     46 H           7.1311   -1.5767   -0.2821 H       1  UNL1        0.0633
     47 H           4.6968   -1.5322   -0.1395 H       1  UNL1        0.0636
@<TRIPOS>BOND
     1     1     2    2
     2     2     3   am
     3     3     4    1
     4     4     5   am
     5     5     6    2
     6     5     7    1
     7     7     8   ar
     8     8     9   ar
     9     9    10   ar
    10    10    11   ar
    11    11    12    1
    12    12    13    2
    13    12    14    2
    14    12    15    1
    15    15    16    1
    16    16    17   ar
    17    17    18   ar
    18    18    19   ar
    19    19    20    1
    20    19    21   ar
    21    21    22   ar
    22    16    22   ar
    23    11    23   ar
    24     7    23   ar
    25     2    24   am
    26    24    25    1
    27    25    26   ar
    28    26    27   ar
    29    27    28   ar
    30    28    29    1
    31    28    30   ar
    32    30    31   ar
    33    25    31   ar
    34     3    32    1
    35     4    33    1
    36     8    34    1
    37     9    35    1
    38    10    36    1
    39    15    37    1
    40    17    38    1
    41    18    39    1
    42    21    40    1
    43    22    41    1
    44    23    42    1
    45    24    43    1
    46    26    44    1
    47    27    45    1
    48    30    46    1
    49    31    47    1
