REMARK  8 active torsions:
REMARK  status: ('A' for Active; 'I' for Inactive)
REMARK    1  A    between atoms: C_2  and  C_4 
REMARK    2  A    between atoms: C_7  and  O_8 
REMARK    3  A    between atoms: O_8  and  C_9 
REMARK    4  A    between atoms: C_9  and  C_10 
REMARK    5  A    between atoms: C_10  and  C_11 
REMARK       I    between atoms: C_11  and  N_13 
REMARK    6  A    between atoms: N_13  and  N_14 
REMARK       I    between atoms: N_14  and  C_15 
REMARK    7  A    between atoms: C_15  and  C_17 
REMARK    8  A    between atoms: C_17  and  C_18 
ROOT
ATOM      1  C   UNL d   1       2.980   9.055  -1.515  0.00  0.00     0.238 C 
ATOM      2  O   UNL d   1       1.872   8.897  -0.996  0.00  0.00    -0.272 OA
ATOM      3  N   UNL d   1       3.422  10.355  -1.941  0.00  0.00    -0.267 N 
ATOM      4  H   UNL d   1       4.327  10.506  -2.382  0.00  0.00     0.190 HD
ENDROOT
BRANCH   3   5
ATOM      5  N   UNL d   1       2.570  11.690  -1.614  0.00  0.00    -0.267 N 
ATOM      6  C   UNL d   1       2.974  13.081  -1.942  0.00  0.00     0.240 C 
ATOM      7  O   UNL d   1       4.026  13.265  -2.569  0.00  0.00    -0.272 OA
ATOM      8  H   UNL d   1       1.637  11.450  -1.288  0.00  0.00     0.190 HD
BRANCH   6   9
ATOM      9  C   UNL d   1       1.912  14.406  -1.413  0.00  0.00     0.141 C 
BRANCH   9  10
ATOM     10  C   UNL d   1       1.859  16.016  -2.062  0.00  0.00    -0.039 C 
ATOM     11  C   UNL d   1       1.520  15.993  -3.437  0.00  0.00     0.113 C 
ATOM     12  N   UNL d   1       2.514  16.898  -3.802  0.00  0.00    -0.282 NA
ATOM     13  C   UNL d   1       2.052  18.074  -3.262  0.00  0.00     0.019 A 
ATOM     14  H   UNL d   1       3.507  16.729  -3.709  0.00  0.00     0.128 HD
ATOM     15  C   UNL d   1       1.976  19.285  -3.931  0.00  0.00     0.024 A 
ATOM     16  C   UNL d   1       1.613  17.692  -1.961  0.00  0.00    -0.011 A 
ATOM     17  C   UNL d   1       1.360  20.401  -3.442  0.00  0.00     0.002 A 
ATOM     18  C   UNL d   1       0.894  20.247  -2.144  0.00  0.00     0.001 A 
ATOM     19  C   UNL d   1       1.029  18.942  -1.373  0.00  0.00     0.013 A 
ENDBRANCH   9  10
ENDBRANCH   6   9
ENDBRANCH   3   5
BRANCH   1  20
ATOM     20  C   UNL d   1       3.948   7.794  -1.715  0.00  0.00     0.131 C 
BRANCH  20  21
ATOM     21  C   UNL d   1       3.392   6.417  -1.185  0.00  0.00     0.185 C 
BRANCH  21  22
ATOM     22  O   UNL d   1       4.341   5.311  -1.319  0.00  0.00    -0.351 OA
BRANCH  22  23
ATOM     23  C   UNL d   1       3.879   4.050  -0.967  0.00  0.00     0.068 A 
ATOM     24  C   UNL d   1       4.710   2.945  -1.209  0.00  0.00     0.037 A 
ATOM     25  C   UNL d   1       4.288   1.623  -0.911  0.00  0.00     0.010 A 
ATOM     26  C   UNL d   1       3.022   1.364  -0.357  0.00  0.00    -0.055 A 
ATOM     27  C   UNL d   1       2.228   2.487  -0.076  0.00  0.00     0.010 A 
ATOM     28  C   UNL d   1       2.639   3.795  -0.385  0.00  0.00     0.037 A 
BRANCH  26  29
ATOM     29  C   UNL d   1       2.544  -0.048   0.011  0.00  0.00     0.010 C 
ATOM     30  C   UNL d   1       1.007  -0.182   0.078  0.00  0.00     0.015 C 
ATOM     31  C   UNL d   1       3.061  -1.164  -0.913  0.00  0.00     0.015 C 
ENDBRANCH  26  29
ENDBRANCH  22  23
ENDBRANCH  21  22
ENDBRANCH  20  21
ENDBRANCH   1  20
TORSDOF 8
