REMARK  7 active torsions:
REMARK  status: ('A' for Active; 'I' for Inactive)
REMARK    1  A    between atoms: O_2  and  C_3 
REMARK    2  A    between atoms: C_8  and  N_9 
REMARK       I    between atoms: N_9  and  C_10 
REMARK       I    between atoms: C_10  and  N_12 
REMARK    3  A    between atoms: N_12  and  C_13 
REMARK    4  A    between atoms: C_15  and  C_16 
REMARK    5  A    between atoms: C_16  and  C_17 
REMARK       I    between atoms: C_17  and  N_19 
REMARK    6  A    between atoms: N_19  and  C_20 
REMARK    7  A    between atoms: C_24  and  S_25 
ROOT
ATOM      1  C   UNL d   1      -1.066   0.751   2.299  0.00  0.00     0.174 A 
ATOM      2  N   UNL d   1      -0.545  -0.228   2.983  0.00  0.00    -0.228 NA
ATOM      3  C   UNL d   1      -1.475  -1.117   3.510  0.00  0.00     0.052 A 
ATOM      4  C   UNL d   1      -2.764  -0.836   3.092  0.00  0.00     0.081 A 
ATOM      5  S   UNL d   1      -2.773   0.635   2.158  0.00  0.00    -0.062 SA
ENDROOT
BRANCH   1   6
ATOM      6  N   UNL d   1      -0.417   1.792   1.635  0.00  0.00    -0.287 N 
ATOM      7  C   UNL d   1       0.961   1.732   1.376  0.00  0.00     0.326 C 
ATOM      8  N   UNL d   1       1.349   2.478   0.234  0.00  0.00    -0.306 N 
ATOM      9  O   UNL d   1       1.746   0.981   1.959  0.00  0.00    -0.247 OA
ATOM     10  H   UNL d   1       0.993   3.417   0.140  0.00  0.00     0.171 HD
ATOM     11  H   UNL d   1      -0.980   2.554   1.302  0.00  0.00     0.172 HD
BRANCH   8  12
ATOM     12  C   UNL d   1       2.442   2.110  -0.650  0.00  0.00     0.069 C 
ATOM     13  C   UNL d   1       3.089   3.109  -1.413  0.00  0.00     0.032 C 
ATOM     14  C   UNL d   1       4.208   2.819  -2.230  0.00  0.00     0.002 C 
ATOM     15  C   UNL d   1       4.715   1.527  -2.294  0.00  0.00     0.003 C 
ATOM     16  C   UNL d   1       4.030   0.513  -1.634  0.00  0.00     0.039 C 
ATOM     17  C   UNL d   1       2.881   0.786  -0.859  0.00  0.00     0.095 C 
BRANCH  17  18
ATOM     18  O   UNL d   1       2.288  -0.350  -0.379  0.00  0.00    -0.354 OA
ATOM     19  C   UNL d   1       0.878  -0.443  -0.535  0.00  0.00     0.210 C 
ENDBRANCH  17  18
ENDBRANCH   8  12
ENDBRANCH   1   6
BRANCH   3  20
ATOM     20  C   UNL d   1      -1.018  -2.252   4.423  0.00  0.00     0.163 C 
BRANCH  20  21
ATOM     21  C   UNL d   1       0.490  -2.225   4.710  0.00  0.00     0.227 C 
ATOM     22  O   UNL d   1       1.238  -1.374   4.245  0.00  0.00    -0.273 OA
ATOM     23  N   UNL d   1       1.006  -3.236   5.522  0.00  0.00    -0.327 N 
ATOM     24  H   UNL d   1       0.473  -4.072   5.716  0.00  0.00     0.169 HD
BRANCH  23  25
ATOM     25  C   UNL d   1       2.389  -3.224   5.861  0.00  0.00     0.035 A 
ATOM     26  C   UNL d   1       3.131  -4.401   5.912  0.00  0.00     0.029 A 
ATOM     27  C   UNL d   1       4.478  -4.350   6.290  0.00  0.00     0.004 A 
ATOM     28  C   UNL d   1       5.091  -3.124   6.585  0.00  0.00     0.018 A 
ATOM     29  C   UNL d   1       4.361  -1.935   6.544  0.00  0.00     0.002 A 
ATOM     30  C   UNL d   1       3.019  -2.008   6.177  0.00  0.00     0.048 A 
BRANCH  29  31
ATOM     31  S   UNL d   1       5.176  -0.413   7.019  0.00  0.00    -0.134 SA
ATOM     32  C   UNL d   1       3.851   0.833   6.895  0.00  0.00     0.095 C 
ENDBRANCH  29  31
ENDBRANCH  23  25
ENDBRANCH  20  21
ENDBRANCH   3  20
TORSDOF 7
