@<TRIPOS>MOLECULE
*****
 59 62 0 0 0
SMALL
GASTEIGER

@<TRIPOS>ATOM
      1 C           0.9301    0.0915    0.0047 C.3     1  UNL1        0.0820
      2 O           2.3387    0.0886    0.0983 O.3     1  UNL1       -0.4645
      3 C           2.7723    0.9725    1.0418 C.2     1  UNL1        0.3389
      4 O           2.1476    1.7544    1.7255 O.2     1  UNL1       -0.2450
      5 C           4.1975    1.0088    1.0738 C.ar    1  UNL1        0.0590
      6 C           5.0384    1.1622    2.3461 C.ar    1  UNL1       -0.0472
      7 C           6.4632    1.2931    2.4946 C.ar    1  UNL1       -0.0537
      8 C           7.0472    0.8692    1.3845 C.ar    1  UNL1       -0.0214
      9 C           8.9242    0.6342    0.8159 C.2     1  UNL1       -0.0083
     10 C           9.3926    0.9359   -0.8611 C.2     1  UNL1        0.1762
     11 O           8.6752    0.5655   -2.0412 O.3     1  UNL1       -0.4508
     12 C           9.5629    0.4336   -3.0414 C.ar    1  UNL1        0.1512
     13 C          10.1158    1.6194   -3.3084 C.ar    1  UNL1        0.0683
     14 C          10.2998    1.5349   -4.6655 C.ar    1  UNL1       -0.0438
     15 C          10.9838    0.4355   -5.1730 C.ar    1  UNL1       -0.0188
     16 C          11.2811   -0.5333   -4.2278 C.ar    1  UNL1        0.1286
     17 O          12.3343   -1.3575   -4.3330 O.3     1  UNL1       -0.5062
     18 C          10.5485   -0.5558   -3.0525 C.ar    1  UNL1        0.0811
     19 C          11.2415   -1.0279   -1.7011 C.3     1  UNL1        0.0013
     20 N          10.6517   -0.3338   -0.1941 N.4     1  UNL1        0.2405
     21 C          10.7799    1.6780    0.3644 C.3     1  UNL1       -0.0185
     22 C           9.1454    2.6019    0.6572 C.3     1  UNL1        0.0394
     23 N           7.7396    1.7504   -0.2931 N.3     1  UNL1       -0.2902
     24 C           7.3026    2.4769   -1.4769 C.3     1  UNL1        0.0225
     25 C           7.5821    3.9174   -1.3853 C.3     1  UNL1        0.0569
     26 O           7.4437    4.3366   -2.7286 O.3     1  UNL1       -0.3937
     27 C           7.6958   -0.2811   -0.3011 C.3     1  UNL1        0.0394
     28 C           8.9417   -1.2126   -0.6492 C.3     1  UNL1       -0.0185
     29 C          10.8645    1.4708   -1.9414 C.2     1  UNL1        0.2315
     30 O          12.0437    1.3906   -1.6155 O.2     1  UNL1       -0.2832
     31 C           5.8960    0.8049    0.0978 C.ar    1  UNL1       -0.0537
     32 C           4.6320    0.9733   -0.1715 C.ar    1  UNL1       -0.0472
     33 H           0.6164   -0.6553   -0.7280 H       1  UNL1        0.0661
     34 H           0.5777    1.0757   -0.3157 H       1  UNL1        0.0661
     35 H           0.5339   -0.1777    0.9837 H       1  UNL1        0.0661
     36 H           4.4739    0.9882    3.2498 H       1  UNL1        0.0626
     37 H           7.0208    1.6292    3.3524 H       1  UNL1        0.0624
     38 H           9.4555    0.5965    1.8213 H       1  UNL1        0.0661
     39 H           9.4968    1.9027   -5.3439 H       1  UNL1        0.0627
     40 H          11.2241    0.3906   -6.2293 H       1  UNL1        0.0654
     41 H          12.6687   -1.2866   -5.2418 H       1  UNL1        0.2922
     42 H          12.3063   -0.8346   -1.6681 H       1  UNL1        0.0869
     43 H          11.0156   -2.0973   -1.6321 H       1  UNL1        0.0869
     44 H          10.9715   -0.8614    0.6243 H       1  UNL1        0.2038
     45 H          10.5029    2.4742   -0.5053 H       1  UNL1        0.0827
     46 H          11.7550    2.1993    0.3470 H       1  UNL1        0.0827
     47 H           9.1034    3.6992    0.6686 H       1  UNL1        0.0479
     48 H           9.2107    2.4804    1.7769 H       1  UNL1        0.0479
     49 H           6.2624    2.3232   -1.7389 H       1  UNL1        0.0449
     50 H           7.7567    2.1559   -2.3904 H       1  UNL1        0.0449
     51 H           8.6159    4.1162   -1.1063 H       1  UNL1        0.0570
     52 H           6.8692    4.3233   -0.6619 H       1  UNL1        0.0570
     53 H           7.9876    3.7171   -3.2566 H       1  UNL1        0.2095
     54 H           6.7414   -0.8974   -0.3488 H       1  UNL1        0.0479
     55 H           7.7440   -0.8133    0.8063 H       1  UNL1        0.0479
     56 H           8.6557   -1.3001   -1.7289 H       1  UNL1        0.0827
     57 H           8.9094   -2.2657   -0.3752 H       1  UNL1        0.0827
     58 H           6.2160    0.6145   -0.9752 H       1  UNL1        0.0624
     59 H           4.2616    0.8746   -1.1926 H       1  UNL1        0.0626
@<TRIPOS>UNITY_ATOM_ATTR
20 1
charge 1
@<TRIPOS>BOND
     1     1     2    1
     2     2     3    1
     3     3     4    2
     4     3     5    1
     5     5     6   ar
     6     6     7   ar
     7     7     8   ar
     8     8     9    1
     9     9    10    2
    10    10    11    1
    11    11    12    1
    12    12    13   ar
    13    13    14   ar
    14    14    15   ar
    15    15    16   ar
    16    16    17    1
    17    16    18   ar
    18    12    18   ar
    19    18    19    1
    20    19    20    1
    21    20    21    1
    22    21    22    1
    23    22    23    1
    24    23    24    1
    25    24    25    1
    26    25    26    1
    27    23    27    1
    28    27    28    1
    29    20    28    1
    30    13    29    1
    31    10    29    1
    32    29    30    2
    33     8    31   ar
    34    31    32   ar
    35     5    32   ar
    36     1    33    1
    37     1    34    1
    38     1    35    1
    39     6    36    1
    40     7    37    1
    41     9    38    1
    42    14    39    1
    43    15    40    1
    44    17    41    1
    45    19    42    1
    46    19    43    1
    47    20    44    1
    48    21    45    1
    49    21    46    1
    50    22    47    1
    51    22    48    1
    52    24    49    1
    53    24    50    1
    54    25    51    1
    55    25    52    1
    56    26    53    1
    57    27    54    1
    58    27    55    1
    59    28    56    1
    60    28    57    1
    61    31    58    1
    62    32    59    1
