REMARK  9 active torsions:
REMARK  status: ('A' for Active; 'I' for Inactive)
REMARK    1  A    between atoms: CG_2  and  CB_4 
REMARK    2  A    between atoms: CA_5  and  CB_4 
REMARK    3  A    between atoms: CA_5  and  C_30 
REMARK    4  A    between atoms: CA_5  and  N_6 
REMARK       I    between atoms: N_6  and  C_7 
REMARK    5  A    between atoms: C_9  and  C_7 
REMARK       I    between atoms: C_30  and  N_32 
REMARK    6  A    between atoms: N_32  and  CA_33 
REMARK    7  A    between atoms: CA_33  and  C_34 
REMARK    8  A    between atoms: CB_37  and  CA_33 
REMARK    9  A    between atoms: CB_37  and  OG1_39 
ROOT
ATOM      1  C   UNK d   0      12.515  -7.436   6.571  0.00  0.00     0.185 C 
ATOM      2  C   UNK d   0      13.900  -7.976   6.950  0.00  0.00     0.076 C 
ATOM      3  C   UNK d   0      13.740  -8.674   8.258  0.00  0.00    -0.018 A 
ATOM      4  C   UNK d   0      12.632  -8.484   9.073  0.00  0.00     0.045 A 
ATOM      5  N   UNK d   0      12.716  -9.368  10.103  0.00  0.00    -0.356 N 
ATOM      6  C   UNK d   0      13.890 -10.073  10.004  0.00  0.00     0.043 A 
ATOM      7  C   UNK d   0      14.418 -11.041  10.851  0.00  0.00     0.030 A 
ATOM      8  C   UNK d   0      15.628 -11.622  10.465  0.00  0.00     0.002 A 
ATOM      9  C   UNK d   0      16.260 -11.275   9.271  0.00  0.00     0.001 A 
ATOM     10  C   UNK d   0      15.710 -10.315   8.428  0.00  0.00     0.014 A 
ATOM     11  C   UNK d   0      14.525  -9.685   8.826  0.00  0.00    -0.001 A 
ATOM     12  C   UNK d   0      11.469  -7.602   8.800  0.00  0.00     0.173 C 
ATOM     13  C   UNK d   0      11.128  -6.599   9.818  0.00  0.00    -0.014 A 
ATOM     14  C   UNK d   0      10.768  -6.807  11.131  0.00  0.00     0.011 A 
ATOM     15  C   UNK d   0      10.528  -5.683  11.904  0.00  0.00     0.001 A 
ATOM     16  C   UNK d   0      10.621  -4.391  11.348  0.00  0.00     0.001 A 
ATOM     17  C   UNK d   0      10.947  -4.195  10.004  0.00  0.00     0.017 A 
ATOM     18  C   UNK d   0      11.189  -5.319   9.257  0.00  0.00     0.041 A 
ATOM     19  C   UNK d   0      11.629  -5.442   7.865  0.00  0.00     0.256 C 
ATOM     20  O   UNK d   0      11.780  -4.505   7.074  0.00  0.00    -0.267 OA
ATOM     21  N   UNK d   0      11.883  -6.760   7.686  0.00  0.00    -0.320 N 
ATOM     22  H   UNK d   0      12.029  -9.496  10.830  0.00  0.00     0.166 HD
ENDROOT
BRANCH   1  23
ATOM     23  C   UNK d   0      11.450  -8.568   6.334  0.00  0.00     0.241 C 
ATOM     24  N   LEU d   1      11.914  -9.844   6.088  0.00  0.00    -0.346 N 
ATOM     25  H   LEU d   1      12.688 -10.219   6.647  0.00  0.00     0.163 HD
ATOM     26  O   UNK d   0      10.260  -8.269   6.163  0.00  0.00    -0.271 OA
BRANCH  24  27
ATOM     27  CA  LEU d   1      11.116 -10.874   5.382  0.00  0.00     0.177 C 
BRANCH  27  28
ATOM     28  C   LEU d   1      11.529 -12.187   6.044  0.00  0.00     0.241 C 
ATOM     29  O   LEU d   1      12.277 -12.114   7.023  0.00  0.00    -0.271 OA
ATOM     30  N   THR d   2      11.077 -13.386   5.504  0.00  0.00    -0.343 N 
ATOM     31  H   THR d   2      10.515 -13.391   4.668  0.00  0.00     0.163 HD
BRANCH  30  32
ATOM     32  CA  THR d   2      11.979 -14.581   5.675  0.00  0.00     0.214 C 
BRANCH  32  33
ATOM     33  C   THR d   2      12.006 -15.109   7.160  0.00  0.00     0.199 C 
ATOM     34  O   THR d   2      11.223 -16.082   7.390  0.00  0.00    -0.646 OA
ATOM     35  OXT THR d   2      12.794 -14.527   7.953  0.00  0.00    -0.646 OA
ENDBRANCH  32  33
BRANCH  32  36
ATOM     36  CB  THR d   2      13.267 -14.149   4.923  0.00  0.00     0.147 C 
ATOM     37  CG2 THR d   2      14.381 -15.116   4.674  0.00  0.00     0.042 C 
BRANCH  36  38
ATOM     38  OG1 THR d   2      13.952 -13.065   5.559  0.00  0.00    -0.393 OA
ATOM     39  HG1 THR d   2      13.695 -13.147   6.519  0.00  0.00     0.210 HD
ENDBRANCH  36  38
ENDBRANCH  32  36
ENDBRANCH  30  32
ENDBRANCH  27  28
BRANCH  27  40
ATOM     40  CB  LEU d   1      11.334 -10.816   3.829  0.00  0.00     0.038 C 
BRANCH  40  41
ATOM     41  CG  LEU d   1      10.806  -9.493   3.197  0.00  0.00    -0.020 C 
ATOM     42  CD1 LEU d   1      11.708  -8.326   3.512  0.00  0.00     0.009 C 
ATOM     43  CD2 LEU d   1      10.756  -9.400   1.703  0.00  0.00     0.009 C 
ENDBRANCH  40  41
ENDBRANCH  27  40
ENDBRANCH  24  27
ENDBRANCH   1  23
TORSDOF 9
