REMARK  3 active torsions:
REMARK  status: ('A' for Active; 'I' for Inactive)
REMARK    1  A    between atoms: C_7  and  N_8 
REMARK       I    between atoms: N_8  and  C_9 
REMARK    2  A    between atoms: C_9  and  C_11 
REMARK    3  A    between atoms: C_14  and  O_15 
ROOT
ATOM      1  C   UNL d   1      -3.172   0.023   0.038  0.00  0.00     0.018 C 
ATOM      2  C   UNL d   1      -1.970   0.029  -0.014  0.00  0.00    -0.078 C 
ATOM      3  C   UNL d   1      -0.542   0.030  -0.038  0.00  0.00     0.019 A 
ATOM      4  C   UNL d   1       0.168   1.220  -0.038  0.00  0.00     0.021 A 
ATOM      5  C   UNL d   1       1.563   1.186   0.008  0.00  0.00     0.004 A 
ATOM      6  C   UNL d   1       2.251  -0.044   0.047  0.00  0.00     0.029 A 
ATOM      7  C   UNL d   1       1.540  -1.254   0.011  0.00  0.00     0.036 A 
ATOM      8  C   UNL d   1       0.143  -1.183  -0.032  0.00  0.00     0.050 A 
ENDROOT
BRANCH   7   9
ATOM      9  N   UNL d   1       2.223  -2.509   0.018  0.00  0.00    -0.323 N 
ATOM     10  C   UNL d   1       1.584  -3.749  -0.067  0.00  0.00     0.256 C 
ATOM     11  O   UNL d   1       0.376  -3.956  -0.139  0.00  0.00    -0.267 OA
ATOM     12  H   UNL d   1       3.236  -2.478   0.025  0.00  0.00     0.169 HD
BRANCH  10  13
ATOM     13  C   UNL d   1       2.406  -4.978  -0.090  0.00  0.00     0.034 A 
ATOM     14  C   UNL d   1       3.446  -5.182   0.818  0.00  0.00     0.020 A 
ATOM     15  C   UNL d   1       4.120  -6.411   0.837  0.00  0.00     0.039 A 
ATOM     16  C   UNL d   1       3.752  -7.428  -0.049  0.00  0.00     0.087 A 
ATOM     17  C   UNL d   1       2.702  -7.228  -0.949  0.00  0.00     0.068 A 
ATOM     18 CL   UNL d   1       2.242  -8.459  -2.070  0.00  0.00    -0.081 Cl
ATOM     19  C   UNL d   1       2.018  -6.014  -0.959  0.00  0.00     0.043 A 
BRANCH  16  20
ATOM     20  O   UNL d   1       4.407  -8.630  -0.048  0.00  0.00    -0.359 OA
ATOM     21  H   UNL d   1       5.098  -8.647   0.632  0.00  0.00     0.217 HD
ENDBRANCH  16  20
ENDBRANCH  10  13
ENDBRANCH   7   9
TORSDOF 3
