REMARK  4 active torsions:
REMARK  status: ('A' for Active; 'I' for Inactive)
REMARK       I    between atoms: C_2  and  N_3 
REMARK    1  A    between atoms: C_2  and  C_13 
REMARK    2  A    between atoms: N_3  and  N_4 
REMARK    3  A    between atoms: C_5  and  C_6 
REMARK    4  A    between atoms: C_9  and  O_10 
ROOT
ATOM      1  O   UNL d   1       1.103   0.183   0.131  0.00  0.00    -0.264 OA
ATOM      2  C   UNL d   1       2.331   0.012   0.060  0.00  0.00     0.288 C 
ATOM      3  N   UNL d   1       3.026  -0.857   0.899  0.00  0.00    -0.242 N 
ATOM      4  H   UNL d   1       4.040  -0.835   0.929  0.00  0.00     0.192 HD
ENDROOT
BRANCH   2   5
ATOM      5  C   UNL d   1       3.108   0.766  -0.912  0.00  0.00     0.103 A 
ATOM      6  C   UNL d   1       4.146   0.380  -1.748  0.00  0.00     0.049 A 
ATOM      7  C   UNL d   1       4.391   1.433  -2.685  0.00  0.00    -0.007 A 
ATOM      8  C   UNL d   1       5.231   1.571  -3.810  0.00  0.00     0.014 A 
ATOM      9  C   UNL d   1       3.538   2.484  -2.357  0.00  0.00     0.043 A 
ATOM     10  C   UNL d   1       5.194   2.751  -4.565  0.00  0.00     0.001 A 
ATOM     11  C   UNL d   1       4.343   3.793  -4.205  0.00  0.00     0.002 A 
ATOM     12  C   UNL d   1       3.503   3.683  -3.089  0.00  0.00     0.030 A 
ATOM     13  N   UNL d   1       2.792   2.065  -1.275  0.00  0.00    -0.351 N 
ATOM     14  H   UNL d   1       2.049   2.602  -0.847  0.00  0.00     0.166 HD
ENDBRANCH   2   5
BRANCH   3  15
ATOM     15  N   UNL d   1       2.324  -1.634   1.804  0.00  0.00    -0.183 NA
ATOM     16  C   UNL d   1       2.985  -2.264   2.723  0.00  0.00     0.150 C 
BRANCH  16  17
ATOM     17  C   UNL d   1       2.283  -3.070   3.760  0.00  0.00    -0.017 A 
ATOM     18  C   UNL d   1       1.189  -3.882   3.434  0.00  0.00     0.015 A 
ATOM     19  C   UNL d   1       0.505  -4.585   4.439  0.00  0.00     0.037 A 
ATOM     20  C   UNL d   1       0.910  -4.456   5.765  0.00  0.00     0.065 A 
ATOM     21  C   UNL d   1       2.001  -3.659   6.096  0.00  0.00     0.037 A 
ATOM     22  C   UNL d   1       2.701  -2.977   5.093  0.00  0.00     0.015 A 
BRANCH  20  23
ATOM     23  O   UNL d   1       0.260  -5.090   6.783  0.00  0.00    -0.361 OA
ATOM     24  H   UNL d   1      -0.484  -5.599   6.422  0.00  0.00     0.217 HD
ENDBRANCH  20  23
ENDBRANCH  16  17
ENDBRANCH   3  15
TORSDOF 4
