REMARK  5 active torsions:
REMARK  status: ('A' for Active; 'I' for Inactive)
REMARK    1  A    between atoms: S_2  and  C_3 
REMARK    2  A    between atoms: C_8  and  N_9 
REMARK       I    between atoms: N_9  and  C_10 
REMARK    3  A    between atoms: C_10  and  C_12 
REMARK    4  A    between atoms: C_12  and  N_14 
REMARK       I    between atoms: N_14  and  C_15 
REMARK    5  A    between atoms: C_15  and  C_17 
ROOT
ATOM      1  C   UNL d   1       4.312   2.834   2.484  0.00  0.00     0.173 C 
ATOM      2  C   UNL d   1       5.776   2.874   2.902  0.00  0.00     0.042 C 
ENDROOT
BRANCH   1   3
ATOM      3  C   UNL d   1       4.075   1.460   1.843  0.00  0.00     0.244 C 
ATOM      4  N   UNL d   1       4.005   0.332   2.646  0.00  0.00    -0.324 N 
ATOM      5  H   UNL d   1       4.314   0.431   3.610  0.00  0.00     0.169 HD
ATOM      6  O   UNL d   1       4.066   1.468   0.609  0.00  0.00    -0.271 OA
BRANCH   4   7
ATOM      7  C   UNL d   1       3.764  -1.020   2.203  0.00  0.00     0.051 C 
ATOM      8  C   UNL d   1       4.008  -2.051   3.153  0.00  0.00     0.031 C 
ATOM      9  C   UNL d   1       3.832  -3.412   2.832  0.00  0.00     0.002 C 
ATOM     10  C   UNL d   1       3.449  -3.779   1.553  0.00  0.00     0.002 C 
ATOM     11  C   UNL d   1       3.247  -2.795   0.602  0.00  0.00     0.021 C 
ATOM     12  C   UNL d   1       3.315  -1.426   0.917  0.00  0.00     0.026 C 
BRANCH  12  13
ATOM     13  S   UNL d   1       2.713  -0.485  -0.492  0.00  0.00    -0.132 SA
ATOM     14  C   UNL d   1       1.027  -0.123   0.035  0.00  0.00     0.095 C 
ENDBRANCH  12  13
ENDBRANCH   4   7
ENDBRANCH   1   3
BRANCH   1  15
ATOM     15  N   UNL d   1       4.019   3.819   1.407  0.00  0.00    -0.344 N 
ATOM     16  C   UNL d   1       4.243   5.166   1.532  0.00  0.00     0.252 C 
ATOM     17  O   UNL d   1       4.612   5.686   2.580  0.00  0.00    -0.268 OA
ATOM     18  H   UNL d   1       3.844   3.407   0.489  0.00  0.00     0.163 HD
BRANCH  16  19
ATOM     19  C   UNL d   1       4.065   6.029   0.331  0.00  0.00     0.032 A 
ATOM     20  C   UNL d   1       5.016   7.036   0.104  0.00  0.00     0.018 A 
ATOM     21  C   UNL d   1       4.819   7.991  -0.898  0.00  0.00     0.025 A 
ATOM     22  C   UNL d   1       3.694   7.909  -1.713  0.00  0.00     0.034 A 
ATOM     23 CL   UNL d   1       3.495   9.029  -3.005  0.00  0.00    -0.084 Cl
ATOM     24  C   UNL d   1       2.741   6.909  -1.502  0.00  0.00     0.025 A 
ATOM     25  C   UNL d   1       2.923   5.966  -0.476  0.00  0.00     0.018 A 
ENDBRANCH  16  19
ENDBRANCH   1  15
TORSDOF 5
