@<TRIPOS>MOLECULE
*****
 54 55 0 0 0
SMALL
GASTEIGER

@<TRIPOS>ATOM
      1 C           1.0097   -0.0831    0.0857 C.3     1  UNL1       -0.0307
      2 C           2.5289   -0.0889    0.1057 C.3     1  UNL1        0.0868
      3 O           2.9795    0.7076    1.2098 O.3     1  UNL1       -0.4922
      4 C           4.3289    0.9319    1.2660 C.ar    1  UNL1        0.1206
      5 C           4.9179    1.0581    2.5280 C.ar    1  UNL1       -0.0182
      6 C           6.2895    1.3884    2.6666 C.ar    1  UNL1       -0.0370
      7 C           7.1032    1.5403    1.5330 C.ar    1  UNL1        0.0336
      8 N           8.5181    1.7576    1.6454 N.am    1  UNL1       -0.2855
      9 C           9.3948    1.8199    0.5563 C.2     1  UNL1        0.2177
     10 O           9.0577    1.7381   -0.6252 O.2     1  UNL1       -0.2755
     11 C          10.8817    1.9881    0.8572 C.3     1  UNL1        0.0326
     12 C          11.6950    2.0698   -0.4707 C.3     1  UNL1        0.0336
     13 C          13.2038    2.2463   -0.2568 C.2     1  UNL1        0.2295
     14 O          13.7064    2.3111    0.8646 O.2     1  UNL1       -0.2743
     15 N          13.9713    2.3282   -1.4119 N.am    1  UNL1       -0.2351
     16 N          15.4197    2.4929   -1.3515 N.am    1  UNL1       -0.2455
     17 C          16.1589    2.5777   -2.5472 C.2     1  UNL1        0.1533
     18 S          15.3537    2.4725   -4.0274 S.2     1  UNL1       -0.0170
     19 N          17.5601    2.7433   -2.3916 N.am    1  UNL1       -0.2627
     20 C          18.5078    2.8976   -3.4291 C.2     1  UNL1        0.2496
     21 O          18.2377    2.9029   -4.6363 O.2     1  UNL1       -0.2698
     22 C          19.9651    3.0615   -3.1431 C.ar    1  UNL1        0.0381
     23 C          20.7193    3.9014   -3.9899 C.ar    1  UNL1       -0.0493
     24 C          22.1200    3.9254   -3.9362 C.ar    1  UNL1       -0.0571
     25 C          22.8041    3.1563   -2.9883 C.ar    1  UNL1       -0.0365
     26 C          24.2954    3.3170   -2.8475 C.3     1  UNL1       -0.0387
     27 C          22.0507    2.2958   -2.1677 C.ar    1  UNL1        0.0215
     28 BR         22.9017    1.1131   -0.9449 Br      1  UNL1       -0.0500
     29 C          20.6443    2.2428   -2.2430 C.ar    1  UNL1       -0.0354
     30 C           6.4732    1.4418    0.2904 C.ar    1  UNL1       -0.0370
     31 C           5.1177    1.1417    0.1499 C.ar    1  UNL1       -0.0182
     32 H           0.6300   -0.7496   -0.6952 H       1  UNL1        0.0262
     33 H           0.6314    0.9266   -0.1092 H       1  UNL1        0.0262
     34 H           0.6063   -0.3987    1.0518 H       1  UNL1        0.0262
     35 H           2.8672    0.2900   -0.8641 H       1  UNL1        0.0694
     36 H           2.8917   -1.1134    0.2416 H       1  UNL1        0.0694
     37 H           4.3050    0.8872    3.4117 H       1  UNL1        0.0655
     38 H           6.6792    1.5251    3.6726 H       1  UNL1        0.0637
     39 H           8.8994    1.7873    2.5850 H       1  UNL1        0.1548
     40 H          11.2234    1.1316    1.4480 H       1  UNL1        0.0363
     41 H          11.0272    2.9027    1.4405 H       1  UNL1        0.0363
     42 H          11.3208    2.9093   -1.0738 H       1  UNL1        0.0363
     43 H          11.5250    1.1568   -1.0592 H       1  UNL1        0.0363
     44 H          13.5745    2.2763   -2.3523 H       1  UNL1        0.1728
     45 H          15.7966    2.5501   -0.4072 H       1  UNL1        0.1718
     46 H          17.9174    2.8067   -1.4477 H       1  UNL1        0.1569
     47 H          20.2174    4.5265   -4.7300 H       1  UNL1        0.0625
     48 H          22.6711    4.5385   -4.6504 H       1  UNL1        0.0621
     49 H          24.6962    4.0492   -3.5584 H       1  UNL1        0.0278
     50 H          24.8236    2.3736   -3.0147 H       1  UNL1        0.0278
     51 H          24.5260    3.6936   -1.8445 H       1  UNL1        0.0278
     52 H          20.1018    1.5196   -1.6445 H       1  UNL1        0.0636
     53 H           6.9979    1.6083   -0.6395 H       1  UNL1        0.0637
     54 H           4.7274    1.1091   -0.8598 H       1  UNL1        0.0655
@<TRIPOS>BOND
     1     1     2    1
     2     2     3    1
     3     3     4    1
     4     4     5   ar
     5     5     6   ar
     6     6     7   ar
     7     7     8    1
     8     8     9   am
     9     9    10    2
    10     9    11    1
    11    11    12    1
    12    12    13    1
    13    13    14    2
    14    13    15   am
    15    15    16    1
    16    16    17    1
    17    17    18    2
    18    17    19    1
    19    19    20   am
    20    20    21    2
    21    20    22    1
    22    22    23   ar
    23    23    24   ar
    24    24    25   ar
    25    25    26    1
    26    25    27   ar
    27    27    28    1
    28    27    29   ar
    29    22    29   ar
    30     7    30   ar
    31    30    31   ar
    32     4    31   ar
    33     1    32    1
    34     1    33    1
    35     1    34    1
    36     2    35    1
    37     2    36    1
    38     5    37    1
    39     6    38    1
    40     8    39    1
    41    11    40    1
    42    11    41    1
    43    12    42    1
    44    12    43    1
    45    15    44    1
    46    16    45    1
    47    19    46    1
    48    23    47    1
    49    24    48    1
    50    26    49    1
    51    26    50    1
    52    26    51    1
    53    29    52    1
    54    30    53    1
    55    31    54    1
