@<TRIPOS>MOLECULE
*****
 36 36 0 0 0
SMALL
GASTEIGER

@<TRIPOS>ATOM
      1 C           1.0208   -0.0714    0.1139 C.3     1  UNL1       -0.0636
      2 C           2.5475   -0.0071    0.0840 C.3     1  UNL1       -0.0376
      3 C           3.0717    1.0469   -0.9112 C.3     1  UNL1        0.0200
      4 C           2.5343    2.4352   -0.5435 C.3     1  UNL1       -0.0466
      5 N           4.5356    1.0741   -0.9657 N.am    1  UNL1       -0.3127
      6 C           5.1850    1.8952   -1.8685 C.2     1  UNL1        0.2135
      7 O           4.5853    2.5965   -2.6842 O.2     1  UNL1       -0.2758
      8 C           6.6920    1.8727   -1.7942 C.3     1  UNL1        0.0279
      9 C           7.2831    2.8743   -2.7993 C.3     1  UNL1       -0.0194
     10 C           8.7905    2.8983   -2.8098 C.ar    1  UNL1       -0.0452
     11 C           9.4852    4.1133   -2.8261 C.ar    1  UNL1       -0.0584
     12 C          10.8796    4.1217   -2.8480 C.ar    1  UNL1       -0.0598
     13 C          11.5876    2.9178   -2.8628 C.ar    1  UNL1       -0.0410
     14 C          10.9148    1.6978   -2.8650 C.ar    1  UNL1        0.0248
     15 N          11.6035    0.5007   -2.8369 N.pl3   1  UNL1       -0.3580
     16 C           9.5213    1.7019   -2.8511 C.ar    1  UNL1       -0.0379
     17 H           0.6760   -0.8303    0.8214 H       1  UNL1        0.0230
     18 H           0.6230   -0.3130   -0.8770 H       1  UNL1        0.0230
     19 H           0.5782    0.8761    0.4354 H       1  UNL1        0.0230
     20 H           2.9367   -0.9993   -0.1766 H       1  UNL1        0.0280
     21 H           2.9159    0.2157    1.0932 H       1  UNL1        0.0280
     22 H           2.7273    0.7807   -1.9192 H       1  UNL1        0.0495
     23 H           2.8726    2.7202    0.4580 H       1  UNL1        0.0247
     24 H           1.4437    2.4707   -0.5731 H       1  UNL1        0.0247
     25 H           2.8703    3.2099   -1.2352 H       1  UNL1        0.0247
     26 H           5.0734    0.4627   -0.3622 H       1  UNL1        0.1490
     27 H           7.0134    0.8504   -2.0176 H       1  UNL1        0.0361
     28 H           7.0207    2.1226   -0.7784 H       1  UNL1        0.0361
     29 H           6.9023    3.8786   -2.5667 H       1  UNL1        0.0318
     30 H           6.9383    2.6444   -3.8165 H       1  UNL1        0.0318
     31 H           8.9486    5.0599   -2.8208 H       1  UNL1        0.0620
     32 H          11.4184    5.0655   -2.8503 H       1  UNL1        0.0618
     33 H          12.6729    2.9414   -2.8781 H       1  UNL1        0.0636
     34 H          12.6119    0.4887   -2.8753 H       1  UNL1        0.1423
     35 H          11.1039   -0.3770   -2.8649 H       1  UNL1        0.1423
     36 H           8.9993    0.7501   -2.8738 H       1  UNL1        0.0639
@<TRIPOS>BOND
     1     1     2    1
     2     2     3    1
     3     3     4    1
     4     3     5    1
     5     5     6   am
     6     6     7    2
     7     6     8    1
     8     8     9    1
     9     9    10    1
    10    10    11   ar
    11    11    12   ar
    12    12    13   ar
    13    13    14   ar
    14    14    15    1
    15    14    16   ar
    16    10    16   ar
    17     1    17    1
    18     1    18    1
    19     1    19    1
    20     2    20    1
    21     2    21    1
    22     3    22    1
    23     4    23    1
    24     4    24    1
    25     4    25    1
    26     5    26    1
    27     8    27    1
    28     8    28    1
    29     9    29    1
    30     9    30    1
    31    11    31    1
    32    12    32    1
    33    13    33    1
    34    15    34    1
    35    15    35    1
    36    16    36    1
