REMARK  10 active torsions:
REMARK  status: ('A' for Active; 'I' for Inactive)
REMARK    1  A    between atoms: C_2  and  C_4 
REMARK    2  A    between atoms: C_4  and  C_5 
REMARK    3  A    between atoms: C_5  and  O_6 
REMARK    4  A    between atoms: O_6  and  C_7 
REMARK    5  A    between atoms: C_11  and  N_12 
REMARK       I    between atoms: N_12  and  C_13 
REMARK    6  A    between atoms: C_13  and  C_15 
REMARK    7  A    between atoms: C_15  and  N_16 
REMARK    8  A    between atoms: N_16  and  C_17 
REMARK    9  A    between atoms: C_22  and  C_23 
REMARK       I    between atoms: C_23  and  N_25 
REMARK   10  A    between atoms: N_25  and  C_26 
ROOT
ATOM      1  N   UNL d   1       8.880   0.264   4.660  0.00  0.00    -0.381 N 
ATOM      2  H   UNL d   1       7.947   0.500   4.299  0.00  0.00     0.160 HD
ENDROOT
BRANCH   1   3
ATOM      3  C   UNL d   1       9.677  -0.523   3.706  0.00  0.00     0.223 C 
BRANCH   3   4
ATOM      4  C   UNL d   1       8.732  -1.062   2.636  0.00  0.00     0.239 C 
ATOM      5  N   UNL d   1       9.270  -1.970   1.721  0.00  0.00    -0.326 N 
ATOM      6  H   UNL d   1      10.242  -2.244   1.809  0.00  0.00     0.169 HD
ATOM      7  O   UNL d   1       7.574  -0.634   2.647  0.00  0.00    -0.271 OA
BRANCH   5   8
ATOM      8  C   UNL d   1       8.516  -2.600   0.688  0.00  0.00     0.037 A 
ATOM      9  C   UNL d   1       9.091  -3.553  -0.157  0.00  0.00     0.029 A 
ATOM     10  C   UNL d   1       8.295  -4.210  -1.114  0.00  0.00     0.005 A 
ATOM     11  C   UNL d   1       6.944  -3.882  -1.272  0.00  0.00     0.037 A 
ATOM     12  C   UNL d   1       6.366  -2.939  -0.442  0.00  0.00     0.070 A 
ATOM     13  C   UNL d   1       7.159  -2.323   0.517  0.00  0.00     0.066 A 
BRANCH  12  14
ATOM     14  O   UNL d   1       5.015  -2.737  -0.547  0.00  0.00    -0.351 OA
BRANCH  14  15
ATOM     15  C   UNL d   1       4.583  -1.401  -0.266  0.00  0.00     0.176 C 
BRANCH  15  16
ATOM     16  C   UNL d   1       3.059  -1.357  -0.226  0.00  0.00     0.030 C 
BRANCH  16  17
ATOM     17  C   UNL d   1       2.528   0.076  -0.049  0.00  0.00    -0.021 C 
ATOM     18  C   UNL d   1       1.000   0.075  -0.071  0.00  0.00     0.009 C 
ATOM     19  C   UNL d   1       3.015   0.712   1.256  0.00  0.00     0.009 C 
ENDBRANCH  16  17
ENDBRANCH  15  16
ENDBRANCH  14  15
ENDBRANCH  12  14
ENDBRANCH   5   8
ENDBRANCH   3   4
ENDBRANCH   1   3
BRANCH   1  20
ATOM     20  C   UNL d   1       9.405   1.179   5.544  0.00  0.00     0.029 A 
ATOM     21  C   UNL d   1       8.673   1.514   6.685  0.00  0.00     0.031 A 
ATOM     22  C   UNL d   1       9.146   2.459   7.591  0.00  0.00     0.027 A 
ATOM     23  C   UNL d   1      10.396   3.044   7.404  0.00  0.00     0.049 A 
ATOM     24 CL   UNL d   1      10.888   4.111   8.680  0.00  0.00    -0.083 Cl
ATOM     25  C   UNL d   1      11.154   2.722   6.261  0.00  0.00     0.055 A 
ATOM     26  C   UNL d   1      10.644   1.782   5.354  0.00  0.00     0.048 A 
BRANCH  25  27
ATOM     27  C   UNL d   1      12.455   3.372   5.985  0.00  0.00     0.253 C 
ATOM     28  O   UNL d   1      12.938   4.094   6.856  0.00  0.00    -0.268 OA
ATOM     29  N   UNL d   1      13.096   3.172   4.770  0.00  0.00    -0.352 N 
ATOM     30  H   UNL d   1      12.786   2.471   4.116  0.00  0.00     0.163 HD
BRANCH  29  31
ATOM     31  C   UNL d   1      14.385   3.794   4.469  0.00  0.00     0.084 C 
ATOM     32  C   UNL d   1      14.415   5.284   4.850  0.00  0.00     0.025 C 
ATOM     33  C   UNL d   1      15.772   5.930   4.672  0.00  0.00     0.002 C 
ATOM     34  C   UNL d   1      16.848   5.129   5.397  0.00  0.00     0.000 C 
ATOM     35  C   UNL d   1      16.877   3.687   4.905  0.00  0.00     0.002 C 
ATOM     36  C   UNL d   1      15.529   3.001   5.110  0.00  0.00     0.025 C 
ENDBRANCH  29  31
ENDBRANCH  25  27
ENDBRANCH   1  20
TORSDOF 10
