@<TRIPOS>MOLECULE
*****
 68 69 0 0 0
SMALL
GASTEIGER

@<TRIPOS>ATOM
      1 C          17.3411    4.2306    2.6118 C.3     1  UNL1       -0.0253
      2 C          16.8815    2.7716    2.3940 C.3     1  UNL1        0.1068
      3 C          16.5170    2.6312    0.9086 C.3     1  UNL1       -0.0253
      4 C          18.0662    1.8665    2.7635 C.3     1  UNL1       -0.0253
      5 O          15.7225    2.4974    3.2490 O.3     1  UNL1       -0.4447
      6 C          15.1708    1.2464    3.1945 C.2     1  UNL1        0.4008
      7 O          15.5696    0.3297    2.4839 O.2     1  UNL1       -0.2265
      8 N          14.0947    1.0951    4.0324 N.am    1  UNL1       -0.2811
      9 C          13.4063   -0.1845    4.0774 C.3     1  UNL1        0.0147
     10 C          12.2302   -0.2155    5.0472 C.3     1  UNL1       -0.0372
     11 C          11.5509   -1.5897    5.0500 C.3     1  UNL1       -0.0494
     12 C          10.3608   -1.6305    6.0159 C.3     1  UNL1       -0.0239
     13 C           9.7061   -3.0264    6.0324 C.3     1  UNL1        0.1232
     14 N           8.2769   -2.9237    5.6653 N.am    1  UNL1       -0.2679
     15 C           7.7945   -3.2746    4.4311 C.2     1  UNL1        0.4012
     16 O           8.4988   -3.6894    3.5152 O.2     1  UNL1       -0.2265
     17 O           6.4477   -3.0987    4.3391 O.3     1  UNL1       -0.4456
     18 C           5.8801   -3.4647    3.0545 C.3     1  UNL1        0.1191
     19 C           4.3700   -3.2983    3.0535 C.ar    1  UNL1       -0.0103
     20 C           3.7642   -2.1906    3.6600 C.ar    1  UNL1       -0.0554
     21 C           2.3737   -2.1226    3.7900 C.ar    1  UNL1       -0.0614
     22 C           1.5645   -3.0987    3.2125 C.ar    1  UNL1       -0.0617
     23 C           2.1477   -4.1606    2.5267 C.ar    1  UNL1       -0.0614
     24 C           3.5415   -4.2592    2.4454 C.ar    1  UNL1       -0.0554
     25 C           9.9073   -3.7044    7.4096 C.2     1  UNL1        0.3280
     26 O           8.9892   -4.0386    8.1505 O.2     1  UNL1       -0.2487
     27 O          11.2364   -3.8779    7.7019 O.3     1  UNL1       -0.4586
     28 C          11.4824   -4.5075    8.9732 C.3     1  UNL1        0.1176
     29 C          12.9669   -4.6254    9.2574 C.ar    1  UNL1       -0.0103
     30 C          13.5811   -5.8785    9.4179 C.ar    1  UNL1       -0.0554
     31 C          14.9135   -5.9718    9.8364 C.ar    1  UNL1       -0.0614
     32 C          15.6724   -4.8178   10.0165 C.ar    1  UNL1       -0.0617
     33 C          15.0844   -3.5685    9.8322 C.ar    1  UNL1       -0.0614
     34 C          13.7383   -3.4727    9.4662 C.ar    1  UNL1       -0.0554
     35 H          18.2113    4.4640    1.9814 H       1  UNL1        0.0268
     36 H          17.6284    4.4161    3.6523 H       1  UNL1        0.0268
     37 H          16.5516    4.9477    2.3629 H       1  UNL1        0.0268
     38 H          17.3765    2.8534    0.2669 H       1  UNL1        0.0268
     39 H          15.6988    3.3098    0.6439 H       1  UNL1        0.0268
     40 H          16.1817    1.6235    0.6558 H       1  UNL1        0.0268
     41 H          18.9395    2.0818    2.1385 H       1  UNL1        0.0268
     42 H          17.8359    0.8069    2.6363 H       1  UNL1        0.0268
     43 H          18.3460    2.0028    3.8138 H       1  UNL1        0.0268
     44 H          13.8001    1.8799    4.5962 H       1  UNL1        0.1520
     45 H          14.1410   -0.9521    4.3521 H       1  UNL1        0.0463
     46 H          13.0633   -0.4187    3.0615 H       1  UNL1        0.0463
     47 H          11.5015    0.5541    4.7676 H       1  UNL1        0.0280
     48 H          12.5800    0.0229    6.0584 H       1  UNL1        0.0280
     49 H          12.2784   -2.3610    5.3326 H       1  UNL1        0.0266
     50 H          11.2013   -1.8311    4.0381 H       1  UNL1        0.0266
     51 H           9.6376   -0.8631    5.7116 H       1  UNL1        0.0288
     52 H          10.7074   -1.3468    7.0181 H       1  UNL1        0.0288
     53 H          10.1795   -3.6866    5.2961 H       1  UNL1        0.0615
     54 H           7.6079   -2.6356    6.3697 H       1  UNL1        0.1528
     55 H           6.1142   -4.5187    2.8578 H       1  UNL1        0.0749
     56 H           6.3089   -2.8427    2.2592 H       1  UNL1        0.0749
     57 H           4.3754   -1.3862    4.0615 H       1  UNL1        0.0621
     58 H           1.9225   -1.3176    4.3641 H       1  UNL1        0.0618
     59 H           0.4827   -3.0289    3.2958 H       1  UNL1        0.0618
     60 H           1.5177   -4.9272    2.0808 H       1  UNL1        0.0618
     61 H           3.9725   -5.1070    1.9166 H       1  UNL1        0.0621
     62 H          11.0199   -5.5017    8.9866 H       1  UNL1        0.0749
     63 H          11.0368   -3.9106    9.7806 H       1  UNL1        0.0749
     64 H          13.0263   -6.7966    9.2358 H       1  UNL1        0.0621
     65 H          15.3581   -6.9447   10.0347 H       1  UNL1        0.0618
     66 H          16.7198   -4.8926   10.2993 H       1  UNL1        0.0618
     67 H          15.6697   -2.6668    9.9935 H       1  UNL1        0.0618
     68 H          13.2871   -2.4896    9.3588 H       1  UNL1        0.0621
@<TRIPOS>BOND
     1     1     2    1
     2     2     3    1
     3     2     4    1
     4     2     5    1
     5     5     6    1
     6     6     7    2
     7     6     8   am
     8     8     9    1
     9     9    10    1
    10    10    11    1
    11    11    12    1
    12    14    15   am
    13    15    16    2
    14    15    17    1
    15    17    18    1
    16    18    19    1
    17    19    20   ar
    18    20    21   ar
    19    21    22   ar
    20    22    23   ar
    21    23    24   ar
    22    19    24   ar
    23    13    25    1
    24    25    26    2
    25    25    27    1
    26    27    28    1
    27    28    29    1
    28    29    30   ar
    29    30    31   ar
    30    31    32   ar
    31    32    33   ar
    32    33    34   ar
    33    29    34   ar
    34    13    14    1
    35    13    12    1
    36     1    35    1
    37     1    36    1
    38     1    37    1
    39     3    38    1
    40     3    39    1
    41     3    40    1
    42     4    41    1
    43     4    42    1
    44     4    43    1
    45     8    44    1
    46     9    45    1
    47     9    46    1
    48    10    47    1
    49    10    48    1
    50    11    49    1
    51    11    50    1
    52    12    51    1
    53    12    52    1
    54    13    53    1
    55    14    54    1
    56    18    55    1
    57    18    56    1
    58    20    57    1
    59    21    58    1
    60    22    59    1
    61    23    60    1
    62    24    61    1
    63    28    62    1
    64    28    63    1
    65    30    64    1
    66    31    65    1
    67    32    66    1
    68    33    67    1
    69    34    68    1
