@<TRIPOS>MOLECULE
*****
 62 64 0 0 0
SMALL
GASTEIGER

@<TRIPOS>ATOM
      1 C           1.1447    0.4020   -0.2801 C.3     1  UNL1       -0.0108
      2 C           2.6329    0.2126   -0.0533 C.3     1  UNL1        0.0878
      3 N           3.0278   -1.0770    0.6761 N.pl3   1  UNL1       -0.3883
      4 C           2.1597   -1.8195    1.6968 C.3     1  UNL1        0.0878
      5 C           0.6583   -1.6749    1.5677 C.3     1  UNL1       -0.0108
      6 C           4.4770   -1.1375    1.1167 C.ar    1  UNL1        0.1446
      7 C           5.0910   -2.4004    1.2379 C.ar    1  UNL1        0.0053
      8 C           6.4587   -2.5449    1.5773 C.ar    1  UNL1       -0.0345
      9 C           7.2707   -1.4166    1.7131 C.ar    1  UNL1        0.0338
     10 N           8.6903   -1.5453    1.9007 N.am    1  UNL1       -0.2848
     11 C           9.5731   -0.4552    1.9356 C.2     1  UNL1        0.2275
     12 O           9.1759    0.7051    1.8173 O.2     1  UNL1       -0.2746
     13 C          11.0864   -0.7368    2.1137 C.3     1  UNL1        0.0780
     14 S          11.9294    0.8911    2.1713 S.3     1  UNL1       -0.0750
     15 C          13.6290    0.6447    2.3806 C.ar    1  UNL1        0.2105
     16 N          14.2423   -0.5384    2.4546 N.ar    1  UNL1       -0.1443
     17 N          15.5334   -0.1441    2.6140 N.ar    1  UNL1       -0.2446
     18 C          15.6645    1.2241    2.6372 C.ar    1  UNL1        0.2317
     19 N          16.8618    1.8675    2.7942 N.pl3   1  UNL1       -0.2054
     20 N          16.9088    3.2440    2.8350 N.2     1  UNL1       -0.1875
     21 C          18.0588    3.8411    2.9038 C.2     1  UNL1        0.0528
     22 C          18.1410    5.3334    2.9354 C.ar    1  UNL1       -0.0054
     23 C          19.1311    6.0170    2.2223 C.ar    1  UNL1       -0.0523
     24 C          19.1997    7.4251    2.2814 C.ar    1  UNL1       -0.0472
     25 C          18.2489    8.1723    3.0012 C.ar    1  UNL1        0.0590
     26 C          18.2871    9.6744    2.8885 C.2     1  UNL1        0.3389
     27 O          19.1155   10.2607    2.2234 O.2     1  UNL1       -0.2450
     28 O          17.2697   10.2702    3.5757 O.3     1  UNL1       -0.4645
     29 C          17.2350   11.7035    3.4572 C.3     1  UNL1        0.0820
     30 C          17.2803    7.4768    3.7354 C.ar    1  UNL1       -0.0472
     31 C          17.2276    6.0682    3.7002 C.ar    1  UNL1       -0.0523
     32 N          14.4609    1.7289    2.4847 N.ar    1  UNL1       -0.1865
     33 C           6.6277   -0.1723    1.6117 C.ar    1  UNL1       -0.0345
     34 C           5.2600   -0.0198    1.3345 C.ar    1  UNL1        0.0053
     35 H           0.9239    1.1971   -0.9951 H       1  UNL1        0.0289
     36 H           0.6508    0.7159    0.6424 H       1  UNL1        0.0289
     37 H           0.6947   -0.4958   -0.7056 H       1  UNL1        0.0289
     38 H           3.0381    1.1010    0.4365 H       1  UNL1        0.0965
     39 H           3.0902    0.1141   -1.0454 H       1  UNL1        0.0965
     40 H           3.0718   -1.7174   -0.1235 H       1  UNL1        0.3743
     41 H           2.4796   -1.5641    2.7120 H       1  UNL1        0.0965
     42 H           2.3751   -2.8795    1.5138 H       1  UNL1        0.0965
     43 H           0.3366   -0.6875    1.9009 H       1  UNL1        0.0289
     44 H           0.1164   -2.3721    2.2117 H       1  UNL1        0.0289
     45 H           0.3204   -1.9067    0.5559 H       1  UNL1        0.0289
     46 H           4.5255   -3.3076    1.0385 H       1  UNL1        0.0682
     47 H           6.8558   -3.5523    1.6982 H       1  UNL1        0.0638
     48 H           9.0768   -2.4833    1.9384 H       1  UNL1        0.1548
     49 H          11.4441   -1.3178    1.2594 H       1  UNL1        0.0475
     50 H          11.2432   -1.2803    3.0486 H       1  UNL1        0.0475
     51 H          16.2517   -0.8501    2.7013 H       1  UNL1        0.1919
     52 H          17.7283    1.3442    2.8998 H       1  UNL1        0.1774
     53 H          19.0182    3.2923    2.9408 H       1  UNL1        0.0851
     54 H          19.8266    5.4837    1.5780 H       1  UNL1        0.0624
     55 H          19.9945    7.9431    1.7438 H       1  UNL1        0.0626
     56 H          16.3933   12.0812    4.0480 H       1  UNL1        0.0661
     57 H          17.0797   12.0096    2.4165 H       1  UNL1        0.0661
     58 H          18.1531   12.1504    3.8533 H       1  UNL1        0.0661
     59 H          16.5482    8.0135    4.3343 H       1  UNL1        0.0626
     60 H          16.4625    5.5442    4.2698 H       1  UNL1        0.0624
     61 H           7.1647    0.7620    1.7233 H       1  UNL1        0.0638
     62 H           4.9062    1.0021    1.2567 H       1  UNL1        0.0682
@<TRIPOS>UNITY_ATOM_ATTR
3 1
charge 1
@<TRIPOS>BOND
     1     1     2    1
     2     2     3    1
     3     3     4    1
     4     4     5    1
     5     3     6    1
     6     6     7   ar
     7     7     8   ar
     8     8     9   ar
     9     9    10    1
    10    10    11   am
    11    11    12    2
    12    11    13    1
    13    13    14    1
    14    14    15    1
    15    15    16   ar
    16    16    17   ar
    17    17    18   ar
    18    18    19    1
    19    19    20    1
    20    20    21    2
    21    21    22    1
    22    22    23   ar
    23    23    24   ar
    24    24    25   ar
    25    25    26    1
    26    26    27    2
    27    26    28    1
    28    28    29    1
    29    25    30   ar
    30    30    31   ar
    31    22    31   ar
    32    18    32   ar
    33    15    32   ar
    34     9    33   ar
    35    33    34   ar
    36     6    34   ar
    37     1    35    1
    38     1    36    1
    39     1    37    1
    40     2    38    1
    41     2    39    1
    42     3    40    1
    43     4    41    1
    44     4    42    1
    45     5    43    1
    46     5    44    1
    47     5    45    1
    48     7    46    1
    49     8    47    1
    50    10    48    1
    51    13    49    1
    52    13    50    1
    53    17    51    1
    54    19    52    1
    55    21    53    1
    56    23    54    1
    57    24    55    1
    58    29    56    1
    59    29    57    1
    60    29    58    1
    61    30    59    1
    62    31    60    1
    63    33    61    1
    64    34    62    1
