@<TRIPOS>MOLECULE
*****
 51 54 0 0 0
SMALL
GASTEIGER

@<TRIPOS>ATOM
      1 O           0.9607    0.0885   -0.0411 O.2     1  UNL1       -0.2702
      2 C           2.1888    0.0440   -0.0375 C.2     1  UNL1        0.2443
      3 N           2.8924   -0.5228    1.0247 N.am    1  UNL1       -0.3085
      4 C           2.2269   -1.0948    2.2226 C.3     1  UNL1        0.0234
      5 C           2.6648   -2.5541    2.4125 C.3     1  UNL1       -0.0345
      6 C           2.1036   -3.1852    3.6869 C.3     1  UNL1       -0.0514
      7 C           2.4522   -2.3631    4.9208 C.3     1  UNL1       -0.0529
      8 C           1.9688   -0.9272    4.7570 C.3     1  UNL1       -0.0514
      9 C           2.5424   -0.2805    3.4912 C.3     1  UNL1       -0.0345
     10 C           2.9661    0.6771   -1.2010 C.ar    1  UNL1        0.0368
     11 C           4.0534    0.1214   -1.8668 C.ar    1  UNL1       -0.0479
     12 C           4.7263    0.8359   -3.0179 C.ar    1  UNL1       -0.0398
     13 C           4.2760    2.0773   -3.6839 C.ar    1  UNL1        0.0338
     14 N           4.9275    2.6695   -5.1840 N.am    1  UNL1       -0.2802
     15 C           4.4246    3.9244   -6.2527 C.2     1  UNL1        0.2689
     16 O           3.5482    4.4970   -5.5206 O.2     1  UNL1       -0.2681
     17 C           4.9845    4.7267   -7.9616 C.ar    1  UNL1        0.1536
     18 N           4.7407    5.6619   -7.0844 N.ar    1  UNL1       -0.1656
     19 N           5.4133    6.7659   -7.0994 N.ar    1  UNL1       -0.2420
     20 C           4.6497    7.6140   -7.8220 C.ar    1  UNL1        0.2725
     21 O           3.5117    8.0344   -7.7573 O.2     1  UNL1       -0.2658
     22 C           5.2222    7.4963   -9.0803 C.ar    1  UNL1        0.0501
     23 C           5.5364    8.9237   -9.5955 C.ar    1  UNL1       -0.0487
     24 C           6.0145    9.2500  -10.8245 C.ar    1  UNL1       -0.0610
     25 C           6.1828    8.0713  -11.5101 C.ar    1  UNL1       -0.0611
     26 C           5.8477    6.5406  -10.8664 C.ar    1  UNL1       -0.0516
     27 C           5.3425    6.1026   -9.4275 C.ar    1  UNL1        0.0195
     28 C           3.2012    2.5949   -2.9080 C.ar    1  UNL1       -0.0398
     29 C           2.5632    1.9147   -1.7284 C.ar    1  UNL1       -0.0479
     30 H           3.9002   -0.4684    1.0443 H       1  UNL1        0.1493
     31 H           1.1385   -1.0779    2.0771 H       1  UNL1        0.0498
     32 H           3.7605   -2.6010    2.4483 H       1  UNL1        0.0283
     33 H           2.3474   -3.1467    1.5478 H       1  UNL1        0.0283
     34 H           2.4983   -4.2013    3.7997 H       1  UNL1        0.0266
     35 H           1.0130   -3.2693    3.6057 H       1  UNL1        0.0266
     36 H           3.5377   -2.3740    5.0804 H       1  UNL1        0.0265
     37 H           1.9932   -2.8133    5.8090 H       1  UNL1        0.0265
     38 H           2.2550   -0.3423    5.6386 H       1  UNL1        0.0266
     39 H           0.8727   -0.9211    4.7079 H       1  UNL1        0.0266
     40 H           3.6294   -0.1851    3.6062 H       1  UNL1        0.0283
     41 H           2.1414    0.7346    3.3957 H       1  UNL1        0.0283
     42 H           4.3594   -0.8933   -1.5717 H       1  UNL1        0.0626
     43 H           5.6393    0.3232   -3.3206 H       1  UNL1        0.0636
     44 H           5.7455    2.1034   -5.3694 H       1  UNL1        0.1552
     45 H           6.3209    6.5041   -7.5148 H       1  UNL1        0.1921
     46 H           5.4041    9.7414   -8.8836 H       1  UNL1        0.0625
     47 H           6.1994   10.2910  -11.1495 H       1  UNL1        0.0618
     48 H           6.5969    8.2805  -12.5287 H       1  UNL1        0.0618
     49 H           6.0447    5.9196  -11.7617 H       1  UNL1        0.0624
     50 H           2.7836    3.5714   -3.1242 H       1  UNL1        0.0636
     51 H           1.6985    2.3820   -1.2395 H       1  UNL1        0.0626
@<TRIPOS>BOND
     1     1     2    2
     2     2     3   am
     3     3     4    1
     4     4     5    1
     5     5     6    1
     6     6     7    1
     7     7     8    1
     8     8     9    1
     9     4     9    1
    10     2    10    1
    11    10    11   ar
    12    11    12   ar
    13    12    13   ar
    14    13    14    1
    15    14    15   am
    16    15    16    2
    17    15    17    1
    18    17    18   ar
    19    18    19   ar
    20    19    20   ar
    21    20    21    2
    22    20    22   ar
    23    22    23   ar
    24    23    24   ar
    25    24    25   ar
    26    25    26   ar
    27    26    27   ar
    28    17    27   ar
    29    22    27   ar
    30    13    28   ar
    31    28    29   ar
    32    10    29   ar
    33     3    30    1
    34     4    31    1
    35     5    32    1
    36     5    33    1
    37     6    34    1
    38     6    35    1
    39     7    36    1
    40     7    37    1
    41     8    38    1
    42     8    39    1
    43     9    40    1
    44     9    41    1
    45    11    42    1
    46    12    43    1
    47    14    44    1
    48    19    45    1
    49    23    46    1
    50    24    47    1
    51    25    48    1
    52    26    49    1
    53    28    50    1
    54    29    51    1
