@<TRIPOS>MOLECULE
*****
 38 39 0 0 0
SMALL
GASTEIGER

@<TRIPOS>ATOM
      1 C           1.1364    0.0050    0.0681 C.3     1  UNL1       -0.0495
      2 C           2.6629   -0.0299    0.0868 C.3     1  UNL1        0.0103
      3 N           3.2340   -1.2208    0.7255 N.am    1  UNL1       -0.2985
      4 C           4.6035   -1.4051    0.8244 C.2     1  UNL1        0.3160
      5 O           5.4190   -0.5918    0.3884 O.2     1  UNL1       -0.2513
      6 N           4.9960   -2.5799    1.4543 N.am    1  UNL1       -0.2180
      7 N           6.4017   -2.8768    1.6138 N.am    1  UNL1       -0.2297
      8 C           6.8043   -4.0512    2.2413 C.2     1  UNL1        0.2530
      9 O           6.0027   -4.8757    2.6830 O.2     1  UNL1       -0.2693
     10 C           8.2971   -4.2635    2.3556 C.2     1  UNL1        0.0022
     11 C           8.8331   -5.3643    2.9329 C.2     1  UNL1       -0.0495
     12 C          10.2907   -5.6260    3.0819 C.ar    1  UNL1       -0.0212
     13 C          10.8307   -6.8997    2.8194 C.ar    1  UNL1       -0.0509
     14 C          12.2108   -7.1476    2.9511 C.ar    1  UNL1       -0.0157
     15 C          13.0664   -6.1345    3.3772 C.ar    1  UNL1        0.1621
     16 C          12.5430   -4.8725    3.6599 C.ar    1  UNL1        0.1626
     17 C          11.1679   -4.6282    3.5323 C.ar    1  UNL1       -0.0091
     18 O          13.3160   -3.8174    4.0761 O.3     1  UNL1       -0.4849
     19 C          14.7075   -4.0492    3.8296 C.3     1  UNL1        0.1237
     20 C          15.1115   -5.4540    4.2435 C.3     1  UNL1        0.1237
     21 O          14.3991   -6.4411    3.4868 O.3     1  UNL1       -0.4849
     22 H           0.7758    0.9194   -0.4223 H       1  UNL1        0.0245
     23 H           0.7215   -0.0091    1.0810 H       1  UNL1        0.0245
     24 H           0.7215   -0.8466   -0.4805 H       1  UNL1        0.0245
     25 H           3.0363    0.8562    0.6132 H       1  UNL1        0.0460
     26 H           3.0363    0.0218   -0.9425 H       1  UNL1        0.0460
     27 H           2.6040   -1.9154    1.0982 H       1  UNL1        0.1503
     28 H           4.3502   -3.2701    1.8250 H       1  UNL1        0.1744
     29 H           7.0387   -2.1769    1.2376 H       1  UNL1        0.1731
     30 H           8.9415   -3.4964    1.9433 H       1  UNL1        0.0670
     31 H           8.1857   -6.1465    3.3304 H       1  UNL1        0.0625
     32 H          10.1912   -7.7194    2.4961 H       1  UNL1        0.0625
     33 H          12.6165   -8.1322    2.7265 H       1  UNL1        0.0655
     34 H          10.7928   -3.6424    3.7898 H       1  UNL1        0.0661
     35 H          15.2726   -3.3119    4.4094 H       1  UNL1        0.0731
     36 H          14.9098   -3.8722    2.7662 H       1  UNL1        0.0731
     37 H          14.9214   -5.6269    5.3097 H       1  UNL1        0.0731
     38 H          16.1823   -5.6002    4.0631 H       1  UNL1        0.0731
@<TRIPOS>BOND
     1     1     2    1
     2     2     3    1
     3     3     4   am
     4     4     5    2
     5     4     6   am
     6     6     7    1
     7     7     8   am
     8     8     9    2
     9     8    10    1
    10    10    11    2
    11    11    12    1
    12    12    13   ar
    13    13    14   ar
    14    14    15   ar
    15    15    16   ar
    16    16    17   ar
    17    12    17   ar
    18    16    18    1
    19    18    19    1
    20    19    20    1
    21    20    21    1
    22    15    21    1
    23     1    22    1
    24     1    23    1
    25     1    24    1
    26     2    25    1
    27     2    26    1
    28     3    27    1
    29     6    28    1
    30     7    29    1
    31    10    30    1
    32    11    31    1
    33    13    32    1
    34    14    33    1
    35    17    34    1
    36    19    35    1
    37    19    36    1
    38    20    37    1
    39    20    38    1
