@<TRIPOS>MOLECULE
*****
 60 63 0 0 0
SMALL
GASTEIGER

@<TRIPOS>ATOM
      1 C           1.1117    0.2978   -0.3739 C.3     1  UNL1        0.0790
      2 O           2.4599   -0.0333   -0.0281 O.3     1  UNL1       -0.4915
      3 C           2.9510    0.0927    1.2553 C.ar    1  UNL1        0.1615
      4 C           4.1297    0.8689    1.3198 C.ar    1  UNL1       -0.0155
      5 C           4.9442    0.9022    2.4712 C.ar    1  UNL1       -0.0444
      6 C           4.5682    0.2188    3.6302 C.ar    1  UNL1        0.0598
      7 C           5.3705    0.3541    4.8936 C.2     1  UNL1        0.3407
      8 O           6.3717    1.0866    4.8771 O.2     1  UNL1       -0.2483
      9 N           4.9206   -0.3223    6.0075 N.am    1  UNL1        0.0006
     10 C           5.5028   -0.1419    7.1651 C.2     1  UNL1        0.3842
     11 N           5.0248   -0.8057    8.2692 N.pl3   1  UNL1       -0.2767
     12 C           3.8449   -1.6321    8.2590 C.3     1  UNL1        0.0684
     13 C           3.5738   -2.2095    9.6389 C.3     1  UNL1        0.0059
     14 C           2.3585   -3.0766    9.7593 C.2     1  UNL1        0.0106
     15 C           2.0546   -3.6673   10.9145 C.ar    1  UNL1        0.0510
     16 C           2.7098   -3.6416   12.1722 C.ar    1  UNL1       -0.0482
     17 C           2.2730   -4.4682   13.1271 C.ar    1  UNL1       -0.0608
     18 C           1.0744   -5.2706   12.9376 C.ar    1  UNL1       -0.0555
     19 C           0.3647   -5.3035   11.7890 C.ar    1  UNL1        0.0098
     20 C           0.8556   -4.4741   10.6670 C.ar    1  UNL1        0.2086
     21 N           0.4279   -4.3242    9.4700 N.2     1  UNL1       -0.2369
     22 C           1.3565   -3.4401    8.6983 C.3     1  UNL1        0.1661
     23 N           6.5459    0.7169    7.4242 N.pl3   1  UNL1       -0.2450
     24 C           7.4243    0.8082    8.5213 C.ar    1  UNL1        0.1000
     25 C           7.9460    2.0620    8.8842 C.ar    1  UNL1       -0.0205
     26 C           8.7992    2.1894    9.9865 C.ar    1  UNL1       -0.0232
     27 C           9.0674    1.0787   10.7758 C.ar    1  UNL1        0.1236
     28 F           9.8127    1.2107   11.8799 F       1  UNL1       -0.2055
     29 C           8.5622   -0.1684   10.4417 C.ar    1  UNL1       -0.0232
     30 C           7.7707   -0.3031    9.3020 C.ar    1  UNL1       -0.0205
     31 C           3.4110   -0.5576    3.5772 C.ar    1  UNL1       -0.0027
     32 C           2.6087   -0.6463    2.4116 C.ar    1  UNL1        0.1623
     33 O           1.5999   -1.5537    2.6447 O.3     1  UNL1       -0.4914
     34 C           0.6330   -1.6379    1.6367 C.3     1  UNL1        0.0790
     35 H           1.0446    0.5037   -1.4462 H       1  UNL1        0.0660
     36 H           0.7043    1.1279    0.2076 H       1  UNL1        0.0660
     37 H           0.4459   -0.5645   -0.3262 H       1  UNL1        0.0660
     38 H           4.4471    1.4483    0.4519 H       1  UNL1        0.0655
     39 H           5.8833    1.4553    2.4482 H       1  UNL1        0.0627
     40 H           5.3939   -0.5227    9.1691 H       1  UNL1        0.2577
     41 H           3.9900   -2.4560    7.5544 H       1  UNL1        0.0658
     42 H           2.9801   -1.0385    7.9503 H       1  UNL1        0.0658
     43 H           3.4744   -1.3889   10.3646 H       1  UNL1        0.0343
     44 H           4.4492   -2.7929    9.9642 H       1  UNL1        0.0343
     45 H           3.5651   -2.9917   12.3201 H       1  UNL1        0.0626
     46 H           2.8194   -4.5377   14.0640 H       1  UNL1        0.0618
     47 H           0.7590   -5.8375   13.8120 H       1  UNL1        0.0620
     48 H          -0.5213   -5.9216   11.7038 H       1  UNL1        0.0683
     49 H          -0.4308   -4.7608    9.1357 H       1  UNL1        0.4459
     50 H           0.8014   -2.5772    8.3211 H       1  UNL1        0.1077
     51 H           1.7897   -4.0228    7.8783 H       1  UNL1        0.1077
     52 H           6.9068    1.1851    6.5877 H       1  UNL1        0.2646
     53 H           7.6729    2.9570    8.3271 H       1  UNL1        0.0653
     54 H           9.2482    3.1454   10.2391 H       1  UNL1        0.0647
     55 H           8.7968   -1.0316   11.0549 H       1  UNL1        0.0647
     56 H           7.4344   -1.2963    9.0179 H       1  UNL1        0.0653
     57 H           3.1201   -1.1436    4.4455 H       1  UNL1        0.0663
     58 H          -0.1636   -2.3492    1.8546 H       1  UNL1        0.0660
     59 H           1.1236   -2.0074    0.7309 H       1  UNL1        0.0660
     60 H           0.1356   -0.6643    1.5834 H       1  UNL1        0.0660
@<TRIPOS>UNITY_ATOM_ATTR
21 1
charge 1
@<TRIPOS>BOND
     1     1     2    1
     2     2     3    1
     3     3     4   ar
     4     4     5   ar
     5     5     6   ar
     6     6     7    1
     7     7     8    2
     8     7     9    1
     9     9    10    2
    10    10    11    1
    11    11    12    1
    12    12    13    1
    13    13    14    1
    14    14    15    2
    15    15    16   ar
    16    16    17   ar
    17    17    18   ar
    18    18    19   ar
    19    19    20   ar
    20    15    20   ar
    21    20    21    2
    22    21    22    1
    23    14    22    1
    24    10    23    1
    25    23    24    1
    26    24    25   ar
    27    25    26   ar
    28    26    27   ar
    29    27    28    1
    30    27    29   ar
    31    29    30   ar
    32    24    30   ar
    33     6    31   ar
    34    31    32   ar
    35     3    32   ar
    36    32    33    1
    37    33    34    1
    38     1    35    1
    39     1    36    1
    40     1    37    1
    41     4    38    1
    42     5    39    1
    43    11    40    1
    44    12    41    1
    45    12    42    1
    46    13    43    1
    47    13    44    1
    48    16    45    1
    49    17    46    1
    50    18    47    1
    51    19    48    1
    52    21    49    1
    53    22    50    1
    54    22    51    1
    55    23    52    1
    56    25    53    1
    57    26    54    1
    58    29    55    1
    59    30    56    1
    60    31    57    1
    61    34    58    1
    62    34    59    1
    63    34    60    1
