@<TRIPOS>MOLECULE
*****
 44 45 0 0 0
SMALL
GASTEIGER

@<TRIPOS>ATOM
      1 C           1.0986    0.0111    0.0988 C.3     1  UNL1        0.0833
      2 O           2.5371    0.0025    0.1122 O.3     1  UNL1       -0.4535
      3 C           3.0630   -1.1400    0.6378 C.2     1  UNL1        0.4043
      4 O           2.3624   -2.0680    1.0459 O.2     1  UNL1       -0.2261
      5 N           4.4385   -1.0871    0.6974 N.am    1  UNL1       -0.2512
      6 C           5.2515   -2.1619    1.1245 C.ar    1  UNL1        0.0365
      7 C           6.4575   -1.9417    1.7944 C.ar    1  UNL1       -0.0401
      8 C           7.2869   -3.0305    2.1511 C.ar    1  UNL1       -0.0553
      9 C           6.9116   -4.3626    1.8759 C.ar    1  UNL1       -0.0302
     10 C           7.7616   -5.5223    2.3814 C.3     1  UNL1        0.0373
     11 N           7.2578   -6.8550    2.0834 N.am    1  UNL1       -0.3035
     12 C           7.8650   -8.0288    2.4884 C.2     1  UNL1        0.2996
     13 O           8.8950   -8.1199    3.1383 O.2     1  UNL1       -0.2652
     14 C           7.1018   -9.3020    2.0262 C.2     1  UNL1        0.3031
     15 O           6.0819   -9.1414    1.3613 O.2     1  UNL1       -0.2648
     16 N           7.6298  -10.5181    2.4542 N.am    1  UNL1       -0.2777
     17 C           7.1186  -11.7695    2.0366 C.ar    1  UNL1        0.0338
     18 C           7.0922  -12.8722    2.8988 C.ar    1  UNL1       -0.0399
     19 C           6.6002  -14.1120    2.4471 C.ar    1  UNL1       -0.0484
     20 C           6.1001  -14.2543    1.1418 C.ar    1  UNL1        0.0549
     21 C           5.4331  -15.5344    0.6973 C.3     1  UNL1        0.4174
     22 F           6.2583  -16.6144    0.7575 F       1  UNL1       -0.1659
     23 F           4.3524  -15.8440    1.4674 F       1  UNL1       -0.1659
     24 F           4.9694  -15.4892   -0.5843 F       1  UNL1       -0.1659
     25 C           6.1740  -13.1589    0.2765 C.ar    1  UNL1       -0.0484
     26 C           6.6705  -11.9339    0.7237 C.ar    1  UNL1       -0.0399
     27 C           5.7154   -4.5489    1.1755 C.ar    1  UNL1       -0.0553
     28 C           4.8948   -3.4732    0.8237 C.ar    1  UNL1       -0.0401
     29 H           0.7505    0.9491   -0.3445 H       1  UNL1        0.0661
     30 H           0.7041   -0.0466    1.1199 H       1  UNL1        0.0661
     31 H           0.7046   -0.8151   -0.5050 H       1  UNL1        0.0661
     32 H           4.8744   -0.2012    0.4775 H       1  UNL1        0.1582
     33 H           6.7380   -0.9403    2.1155 H       1  UNL1        0.0636
     34 H           8.2292   -2.8230    2.6592 H       1  UNL1        0.0621
     35 H           7.8363   -5.4493    3.4734 H       1  UNL1        0.0512
     36 H           8.7747   -5.4511    1.9695 H       1  UNL1        0.0512
     37 H           6.3822   -6.9849    1.5893 H       1  UNL1        0.1495
     38 H           8.3825  -10.4919    3.1359 H       1  UNL1        0.1553
     39 H           7.3678  -12.7762    3.9470 H       1  UNL1        0.0636
     40 H           6.5812  -14.9676    3.1234 H       1  UNL1        0.0624
     41 H           5.8337  -13.2413   -0.7544 H       1  UNL1        0.0624
     42 H           6.7223  -11.1110    0.0161 H       1  UNL1        0.0636
     43 H           5.3702   -5.5288    0.8698 H       1  UNL1        0.0621
     44 H           3.9829   -3.6906    0.2744 H       1  UNL1        0.0636
@<TRIPOS>BOND
     1     1     2    1
     2     2     3    1
     3     3     4    2
     4     3     5   am
     5     5     6    1
     6     6     7   ar
     7     7     8   ar
     8     8     9   ar
     9     9    10    1
    10    10    11    1
    11    11    12   am
    12    12    13    2
    13    12    14    1
    14    14    15    2
    15    14    16   am
    16    16    17    1
    17    17    18   ar
    18    18    19   ar
    19    19    20   ar
    20    20    21    1
    21    21    22    1
    22    21    23    1
    23    21    24    1
    24    20    25   ar
    25    25    26   ar
    26    17    26   ar
    27     9    27   ar
    28    27    28   ar
    29     6    28   ar
    30     1    29    1
    31     1    30    1
    32     1    31    1
    33     5    32    1
    34     7    33    1
    35     8    34    1
    36    10    35    1
    37    10    36    1
    38    11    37    1
    39    16    38    1
    40    18    39    1
    41    19    40    1
    42    25    41    1
    43    26    42    1
    44    27    43    1
    45    28    44    1
