REMARK  6 active torsions:
REMARK  status: ('A' for Active; 'I' for Inactive)
REMARK    1  A    between atoms: C_2  and  N_3 
REMARK    2  A    between atoms: C_2  and  C_19 
REMARK    3  A    between atoms: N_3  and  C_4 
REMARK    4  A    between atoms: C_7  and  O_8 
REMARK    5  A    between atoms: O_8  and  C_9 
REMARK    6  A    between atoms: C_9  and  C_10 
REMARK       I    between atoms: C_19  and  N_21 
REMARK       I    between atoms: N_21  and  C_22 
REMARK       I    between atoms: C_22  and  N_23 
ROOT
ATOM      1  C   UNL d   1       2.624   1.954  -1.556  0.00  0.00     0.028 A 
ATOM      2  C   UNL d   1       3.620   2.577  -2.314  0.00  0.00     0.032 A 
ATOM      3  C   UNL d   1       3.309   3.244  -3.514  0.00  0.00     0.039 A 
ATOM      4  C   UNL d   1       2.014   3.217  -4.030  0.00  0.00     0.069 A 
ATOM      5  C   UNL d   1       1.015   2.625  -3.283  0.00  0.00     0.039 A 
ATOM      6  C   UNL d   1       1.322   2.047  -2.054  0.00  0.00     0.032 A 
ENDROOT
BRANCH   1   7
ATOM      7  N   UNL d   1       2.938   1.295  -0.375  0.00  0.00    -0.377 N 
ATOM      8  H   UNL d   1       3.547   1.788   0.270  0.00  0.00     0.160 HD
BRANCH   7   9
ATOM      9  C   UNL d   1       2.460  -0.058  -0.021  0.00  0.00     0.170 C 
ATOM     10  C   UNL d   1       0.933  -0.173  -0.008  0.00  0.00     0.042 C 
BRANCH   9  11
ATOM     11  C   UNL d   1       2.912  -0.494   1.402  0.00  0.00     0.247 C 
ATOM     12  O   UNL d   1       2.086  -0.792   2.271  0.00  0.00    -0.271 OA
ATOM     13  N   UNL d   1       4.271  -0.581   1.644  0.00  0.00    -0.278 N 
ATOM     14  C   UNL d   1       4.851  -0.984   2.821  0.00  0.00     0.320 C 
ATOM     15  H   UNL d   1       4.932  -0.352   0.915  0.00  0.00     0.173 HD
ATOM     16  N   UNL d   1       4.021  -1.324   3.831  0.00  0.00    -0.352 N 
ATOM     17  O   UNL d   1       6.074  -1.037   2.958  0.00  0.00    -0.247 OA
ATOM     18  H   UNL d   1       3.011  -1.279   3.696  0.00  0.00     0.160 HD
ATOM     19  H   UNL d   1       4.378  -1.625   4.725  0.00  0.00     0.160 HD
ENDBRANCH   9  11
ENDBRANCH   7   9
ENDBRANCH   1   7
BRANCH   4  20
ATOM     20  O   UNL d   1       1.825   3.793  -5.252  0.00  0.00    -0.347 OA
BRANCH  20  21
ATOM     21  C   UNL d   1       0.521   3.633  -5.833  0.00  0.00     0.216 C 
BRANCH  21  22
ATOM     22  C   UNL d   1       0.469   4.261  -7.203  0.00  0.00    -0.012 A 
ATOM     23  C   UNL d   1       1.647   4.701  -7.829  0.00  0.00     0.011 A 
ATOM     24  C   UNL d   1       1.594   5.426  -9.016  0.00  0.00     0.001 A 
ATOM     25  C   UNL d   1       0.372   5.635  -9.648  0.00  0.00     0.002 A 
ATOM     26  C   UNL d   1      -0.802   5.145  -9.077  0.00  0.00     0.024 A 
ATOM     27  C   UNL d   1      -0.755   4.461  -7.860  0.00  0.00     0.042 A 
ATOM     28 CL   UNL d   1      -2.244   3.877  -7.204  0.00  0.00    -0.084 Cl
ENDBRANCH  21  22
ENDBRANCH  20  21
ENDBRANCH   4  20
TORSDOF 6
