@<TRIPOS>MOLECULE
*****
 39 41 0 0 0
SMALL
GASTEIGER

@<TRIPOS>ATOM
      1 N           1.0067   -0.0223    0.1053 N.3     1  UNL1       -0.2030
      2 S           2.6846   -0.0065    0.1084 S.O2    1  UNL1        0.0622
      3 O           3.0934    0.9168   -0.9222 O.2     1  UNL1       -0.1527
      4 O           3.0918    0.1636    1.4864 O.2     1  UNL1       -0.1527
      5 C           3.3213   -1.5880   -0.4050 C.ar    1  UNL1        0.1425
      6 C           4.4011   -1.8614   -1.2144 C.ar    1  UNL1       -0.0278
      7 C           4.5946   -3.2475   -1.4259 C.ar    1  UNL1       -0.0481
      8 C           3.6712   -4.0432   -0.7728 C.ar    1  UNL1        0.0087
      9 C           3.5530   -5.5594   -0.7754 C.3     1  UNL1        0.0434
     10 N           4.5765   -6.1700   -1.6272 N.am    1  UNL1       -0.3066
     11 C           4.6994   -7.5309   -1.8088 C.2     1  UNL1        0.2482
     12 O           3.9307   -8.3516   -1.3242 O.2     1  UNL1       -0.2701
     13 C           5.8146   -7.9973   -2.6971 C.ar    1  UNL1        0.0883
     14 C           5.5307   -8.9948   -3.6485 C.ar    1  UNL1        0.0315
     15 C           6.5452   -9.4617   -4.5039 C.ar    1  UNL1        0.2776
     16 N           6.2432  -10.4847   -5.5178 N.pl3   1  UNL1        0.0797
     17 O           7.1691  -10.8633   -6.2497 O.2     1  UNL1        0.0414
     18 O           5.0790  -10.8999   -5.5868 O.co2   1  UNL1       -0.5760
     19 C           7.8473   -8.9598   -4.4056 C.ar    1  UNL1        0.0609
     20 C           8.1321   -7.9947   -3.4388 C.ar    1  UNL1        0.1693
     21 C           7.1227   -7.4965   -2.5945 C.ar    1  UNL1        0.1746
     22 O           7.3815   -6.5504   -1.6353 O.3     1  UNL1       -0.4842
     23 C           8.6324   -5.8888   -1.8385 C.3     1  UNL1        0.1237
     24 C           9.7320   -6.8790   -2.1711 C.3     1  UNL1        0.1237
     25 O           9.4375   -7.5741   -3.3863 O.3     1  UNL1       -0.4847
     26 S           2.5676   -3.0382    0.1239 S.2     1  UNL1       -0.0719
     27 H           0.6666    0.9255    0.2851 H       1  UNL1        0.1443
     28 H           0.6478   -0.6825    0.7928 H       1  UNL1        0.1443
     29 H           5.0139   -1.0820   -1.6491 H       1  UNL1        0.0643
     30 H           5.3878   -3.6275   -2.0505 H       1  UNL1        0.0627
     31 H           2.5740   -5.8713   -1.1577 H       1  UNL1        0.0517
     32 H           3.6705   -5.9624    0.2373 H       1  UNL1        0.0517
     33 H           5.2912   -5.5920   -2.0394 H       1  UNL1        0.1494
     34 H           4.5186   -9.3920   -3.7173 H       1  UNL1        0.0694
     35 H           8.6455   -9.3172   -5.0556 H       1  UNL1        0.0724
     36 H           8.8750   -5.3551   -0.9148 H       1  UNL1        0.0731
     37 H           8.5018   -5.1512   -2.6388 H       1  UNL1        0.0731
     38 H           9.8698   -7.6152   -1.3702 H       1  UNL1        0.0731
     39 H          10.6783   -6.3466   -2.3127 H       1  UNL1        0.0731
@<TRIPOS>UNITY_ATOM_ATTR
16 1
charge 1
18 1
charge -1
@<TRIPOS>BOND
     1     1     2    1
     2     2     3    2
     3     2     4    2
     4     2     5    1
     5     5     6   ar
     6     6     7   ar
     7     7     8   ar
     8     8     9    1
     9     9    10    1
    10    10    11   am
    11    11    12    2
    12    11    13    1
    13    13    14   ar
    14    14    15   ar
    15    15    16    1
    16    16    17    2
    17    16    18    1
    18    15    19   ar
    19    19    20   ar
    20    20    21   ar
    21    13    21   ar
    22    21    22    1
    23    22    23    1
    24    23    24    1
    25    24    25    1
    26    20    25    1
    27     8    26   ar
    28     5    26   ar
    29     1    27    1
    30     1    28    1
    31     6    29    1
    32     7    30    1
    33     9    31    1
    34     9    32    1
    35    10    33    1
    36    14    34    1
    37    19    35    1
    38    23    36    1
    39    23    37    1
    40    24    38    1
    41    24    39    1
