@<TRIPOS>MOLECULE
*****
 61 64 0 0 0
SMALL
GASTEIGER

@<TRIPOS>ATOM
      1 C           2.9886    0.3121    1.3206 C.3     1  UNL1       -0.0372
      2 C           2.4654    0.0035   -0.0746 C.3     1  UNL1        0.0719
      3 C           2.9342    1.0555   -1.1049 C.3     1  UNL1        0.0398
      4 N           2.5317    0.6525   -2.4671 N.pl3   1  UNL1       -0.3047
      5 C           1.7766    1.4469   -3.2987 C.ar    1  UNL1        0.2066
      6 N           0.5353    0.9693   -3.6394 N.ar    1  UNL1       -0.1923
      7 C          -0.2768    1.7233   -4.4029 C.ar    1  UNL1        0.2219
      8 N          -1.4976    1.2343   -4.7999 N.pl3   1  UNL1       -0.2894
      9 C          -1.8510    1.1980   -6.2204 C.3     1  UNL1        0.0552
     10 C          -2.2958   -0.2426   -6.6088 C.3     1  UNL1       -0.0153
     11 N          -3.4101   -0.7337   -5.6783 N.4     1  UNL1        0.2407
     12 C          -4.6994    0.0448   -5.8961 C.3     1  UNL1       -0.0058
     13 C          -5.8629   -0.3873   -5.0526 C.ar    1  UNL1       -0.0029
     14 C          -7.0692   -0.7783   -5.6382 C.ar    1  UNL1       -0.0535
     15 C          -8.1722   -1.0531   -4.8268 C.ar    1  UNL1       -0.0613
     16 C          -8.0464   -1.0749   -3.4369 C.ar    1  UNL1       -0.0617
     17 C          -6.8491   -0.7203   -2.8455 C.ar    1  UNL1       -0.0613
     18 C          -5.8070   -0.2989   -3.6518 C.ar    1  UNL1       -0.0535
     19 C          -2.8392   -0.7306   -4.2488 C.3     1  UNL1       -0.0153
     20 C          -2.4578    0.7116   -3.8377 C.3     1  UNL1        0.0552
     21 N           0.0599    2.9404   -4.8304 N.ar    1  UNL1       -0.1927
     22 C           1.2632    3.4379   -4.4772 C.ar    1  UNL1        0.2013
     23 N           1.4401    4.7570   -4.8367 N.pl3   1  UNL1       -0.3376
     24 C           2.1855    2.6995   -3.7459 C.ar    1  UNL1        0.3516
     25 N           3.5542    3.1938   -3.5627 N.pl3   1  UNL1        0.0868
     26 O           4.4166    2.4616   -3.0771 O.2     1  UNL1        0.0417
     27 O           3.8120    4.3516   -3.9478 O.co2   1  UNL1       -0.5759
     28 C           2.9673   -0.6934   -2.8390 C.3     1  UNL1        0.0398
     29 C           2.4378   -1.6807   -1.7820 C.3     1  UNL1        0.0719
     30 C           0.9122   -1.7337   -1.8411 C.3     1  UNL1       -0.0372
     31 O           2.8864   -1.3231   -0.4543 O.3     1  UNL1       -0.3708
     32 H           2.6335    1.2932    1.6522 H       1  UNL1        0.0255
     33 H           4.0820    0.2984    1.3559 H       1  UNL1        0.0255
     34 H           2.6338   -0.4403    2.0338 H       1  UNL1        0.0255
     35 H           1.3752    0.0115    0.0051 H       1  UNL1        0.0609
     36 H           4.0293    1.1003   -1.0650 H       1  UNL1        0.0489
     37 H           2.5375    2.0411   -0.8409 H       1  UNL1        0.0489
     38 H          -1.0238    1.4958   -6.8712 H       1  UNL1        0.0517
     39 H          -2.6739    1.8969   -6.4144 H       1  UNL1        0.0517
     40 H          -1.4693   -0.9515   -6.4786 H       1  UNL1        0.0830
     41 H          -2.6664   -0.3157   -7.6349 H       1  UNL1        0.0830
     42 H          -3.6271   -1.7108   -5.9142 H       1  UNL1        0.2038
     43 H          -4.9319   -0.0498   -6.9658 H       1  UNL1        0.0867
     44 H          -4.5149    1.1050   -5.7048 H       1  UNL1        0.0867
     45 H          -7.1896   -0.8300   -6.7197 H       1  UNL1        0.0622
     46 H          -9.1455   -1.2365   -5.2749 H       1  UNL1        0.0618
     47 H          -8.8923   -1.3351   -2.8080 H       1  UNL1        0.0618
     48 H          -6.7290   -0.7156   -1.7649 H       1  UNL1        0.0618
     49 H          -4.9587    0.1173   -3.1269 H       1  UNL1        0.0622
     50 H          -1.9548   -1.3749   -4.2638 H       1  UNL1        0.0830
     51 H          -3.5507   -1.2346   -3.5948 H       1  UNL1        0.0830
     52 H          -2.1133    0.7447   -2.7998 H       1  UNL1        0.0517
     53 H          -3.3424    1.3643   -3.8706 H       1  UNL1        0.0517
     54 H           0.7205    5.2254   -5.3654 H       1  UNL1        0.1439
     55 H           2.3507    5.2005   -4.7275 H       1  UNL1        0.1439
     56 H           4.0669   -0.7132   -2.8337 H       1  UNL1        0.0489
     57 H           2.6455   -0.9823   -3.8464 H       1  UNL1        0.0489
     58 H           2.8428   -2.6782   -1.9916 H       1  UNL1        0.0609
     59 H           0.4639   -0.7587   -1.6268 H       1  UNL1        0.0255
     60 H           0.5195   -2.4172   -1.0866 H       1  UNL1        0.0255
     61 H           0.5695   -2.0216   -2.8373 H       1  UNL1        0.0255
@<TRIPOS>UNITY_ATOM_ATTR
11 1
charge 1
25 1
charge 1
27 1
charge -1
@<TRIPOS>BOND
     1     2     3    1
     2     3     4    1
     3     4     5    1
     4     5     6   ar
     5     6     7   ar
     6     7     8    1
     7     8     9    1
     8     9    10    1
     9    10    11    1
    10    11    12    1
    11    12    13    1
    12    13    14   ar
    13    14    15   ar
    14    15    16   ar
    15    16    17   ar
    16    17    18   ar
    17    13    18   ar
    18    11    19    1
    19    19    20    1
    20     8    20    1
    21     7    21   ar
    22    21    22   ar
    23    22    23    1
    24    22    24   ar
    25     5    24   ar
    26    24    25    1
    27    25    26    2
    28    25    27    1
    29     4    28    1
    30    28    29    1
    31    29    31    1
    32     2    31    1
    33     2     1    1
    34    29    30    1
    35     1    32    1
    36     1    33    1
    37     1    34    1
    38     2    35    1
    39     3    36    1
    40     3    37    1
    41     9    38    1
    42     9    39    1
    43    10    40    1
    44    10    41    1
    45    11    42    1
    46    12    43    1
    47    12    44    1
    48    14    45    1
    49    15    46    1
    50    16    47    1
    51    17    48    1
    52    18    49    1
    53    19    50    1
    54    19    51    1
    55    20    52    1
    56    20    53    1
    57    23    54    1
    58    23    55    1
    59    28    56    1
    60    28    57    1
    61    29    58    1
    62    30    59    1
    63    30    60    1
    64    30    61    1
