@<TRIPOS>MOLECULE
*****
 29 29 0 0 0
SMALL
GASTEIGER

@<TRIPOS>ATOM
      1 C          -2.7126    1.6120   -0.0284 C.3     1  UNL1       -0.0397
      2 C          -1.6641    0.5412    0.0113 C.ar    1  UNL1       -0.0490
      3 C          -2.0135   -0.8088    0.0073 C.ar    1  UNL1       -0.0570
      4 C          -1.0241   -1.7997   -0.0057 C.ar    1  UNL1       -0.0392
      5 C           0.3433   -1.4836   -0.0108 C.ar    1  UNL1        0.0457
      6 N           1.3290   -2.4698   -0.0317 N.pl3   1  UNL1       -0.3422
      7 C           1.0114   -3.8894   -0.0654 C.3     1  UNL1        0.0175
      8 C           2.2573   -4.7701   -0.0875 C.3     1  UNL1        0.0406
      9 C           1.8370   -6.2300   -0.0976 C.2     1  UNL1        0.2278
     10 O           0.6604   -6.5974   -0.1027 O.2     1  UNL1       -0.2745
     11 N           2.8905   -7.1366   -0.0795 N.am    1  UNL1       -0.2535
     12 N           2.6062   -8.5208   -0.1906 N.3     1  UNL1       -0.2544
     13 C           0.6776   -0.1140    0.0120 C.ar    1  UNL1        0.0620
     14 CL          2.3360    0.3911    0.0073 Cl      1  UNL1       -0.0816
     15 C          -0.3083    0.8833    0.0267 C.ar    1  UNL1       -0.0387
     16 H          -3.7222    1.1874   -0.0330 H       1  UNL1        0.0278
     17 H          -2.5981    2.2091   -0.9390 H       1  UNL1        0.0278
     18 H          -2.6246    2.2648    0.8453 H       1  UNL1        0.0278
     19 H          -3.0588   -1.1116    0.0067 H       1  UNL1        0.0621
     20 H          -1.3561   -2.8340   -0.0201 H       1  UNL1        0.0636
     21 H           2.2938   -2.1531   -0.0478 H       1  UNL1        0.1461
     22 H           0.4061   -4.1045   -0.9550 H       1  UNL1        0.0466
     23 H           0.4145   -4.1418    0.8199 H       1  UNL1        0.0466
     24 H           2.8744   -4.5796    0.7978 H       1  UNL1        0.0374
     25 H           2.8596   -4.5572   -0.9781 H       1  UNL1        0.0374
     26 H           3.8545   -6.8266   -0.1843 H       1  UNL1        0.1687
     27 H           1.5788   -8.6190   -0.1839 H       1  UNL1        0.1405
     28 H           2.9088   -8.9887    0.6671 H       1  UNL1        0.1405
     29 H          -0.0182    1.9313    0.0413 H       1  UNL1        0.0635
@<TRIPOS>BOND
     1     1     2    1
     2     2     3   ar
     3     3     4   ar
     4     4     5   ar
     5     5     6    1
     6     6     7    1
     7     7     8    1
     8     8     9    1
     9     9    10    2
    10     9    11   am
    11    11    12    1
    12     5    13   ar
    13    13    14    1
    14    13    15   ar
    15     2    15   ar
    16     1    16    1
    17     1    17    1
    18     1    18    1
    19     3    19    1
    20     4    20    1
    21     6    21    1
    22     7    22    1
    23     7    23    1
    24     8    24    1
    25     8    25    1
    26    11    26    1
    27    12    27    1
    28    12    28    1
    29    15    29    1
