@<TRIPOS>MOLECULE
*****
 52 55 0 0 0
SMALL
GASTEIGER

@<TRIPOS>ATOM
      1 C           1.0764    0.0531    0.1139 C.3     1  UNL1        0.0788
      2 O           2.4994    0.0715    0.2402 O.3     1  UNL1       -0.4950
      3 C           3.1207   -1.1408    0.1073 C.ar    1  UNL1        0.1237
      4 C           4.2815   -1.3560    0.8451 C.ar    1  UNL1       -0.0180
      5 C           5.0317   -2.5360    0.6694 C.ar    1  UNL1       -0.0335
      6 C           4.5921   -3.5630   -0.1941 C.ar    1  UNL1        0.0752
      7 N           5.3784   -4.7508   -0.3299 N.pl3   1  UNL1       -0.2909
      8 C           5.0459   -5.8217   -1.1192 C.ar    1  UNL1        0.1632
      9 N           4.9732   -5.8044   -2.4462 N.ar    1  UNL1       -0.2200
     10 C           4.5539   -7.0328   -2.9868 C.ar    1  UNL1        0.1346
     11 C           4.3782   -7.2581   -4.4826 C.2     1  UNL1        0.2630
     12 O           4.0712   -8.4205   -4.8798 O.2     1  UNL1       -0.2685
     13 N           4.5750   -6.1935   -5.4109 N.am    1  UNL1       -0.3098
     14 C           4.5504   -6.2484   -7.0185 C.3     1  UNL1        0.0160
     15 C           5.0559   -4.7724   -7.9268 C.3     1  UNL1       -0.0101
     16 C           5.0525   -4.4012   -9.7042 C.ar    1  UNL1       -0.0209
     17 C           3.7180   -4.0875   -9.8941 C.ar    1  UNL1        0.0060
     18 N           3.5796   -4.7470  -11.0904 N.ar    1  UNL1       -0.3604
     19 C           4.1451   -3.8550  -11.9527 C.ar    1  UNL1        0.0467
     20 C           3.5677   -3.4343  -13.1725 C.ar    1  UNL1       -0.0378
     21 C           4.0795   -2.3870  -13.8898 C.ar    1  UNL1       -0.0598
     22 C           5.1771   -1.7721  -13.3119 C.ar    1  UNL1       -0.0611
     23 C           5.8162   -2.2607  -12.0008 C.ar    1  UNL1       -0.0523
     24 C           5.2733   -3.4335  -11.1933 C.ar    1  UNL1        0.0029
     25 C           4.3882   -8.0036   -1.9967 C.ar    1  UNL1        0.0094
     26 S           4.7235   -7.3730   -0.4232 S.2     1  UNL1       -0.0598
     27 C           3.4200   -3.3105   -0.9414 C.ar    1  UNL1        0.1446
     28 O           2.9959   -4.2911   -1.7902 O.3     1  UNL1       -0.4931
     29 C           1.9091   -4.0410   -2.6546 C.3     1  UNL1        0.0789
     30 C           2.7092   -2.1149   -0.7895 C.ar    1  UNL1        0.0236
     31 H           0.7227    1.0884    0.1149 H       1  UNL1        0.0660
     32 H           0.6392   -0.4634    0.9733 H       1  UNL1        0.0660
     33 H           0.7154   -0.3892   -0.8201 H       1  UNL1        0.0660
     34 H           4.6039   -0.6037    1.5624 H       1  UNL1        0.0655
     35 H           5.9682   -2.6292    1.2158 H       1  UNL1        0.0638
     36 H           5.9412   -4.9377    0.4929 H       1  UNL1        0.1542
     37 H           4.7051   -5.2981   -4.9457 H       1  UNL1        0.1491
     38 H           3.5121   -6.5644   -7.2401 H       1  UNL1        0.0465
     39 H           5.1897   -7.1074   -7.2580 H       1  UNL1        0.0465
     40 H           5.9476   -4.4040   -7.4421 H       1  UNL1        0.0329
     41 H           4.1844   -4.1624   -7.6108 H       1  UNL1        0.0329
     42 H           3.4465   -3.0335   -9.7352 H       1  UNL1        0.0810
     43 H           3.8544   -5.7049  -11.2296 H       1  UNL1        0.1653
     44 H           2.6240   -3.8795  -13.4691 H       1  UNL1        0.0638
     45 H           3.5796   -2.0737  -14.8153 H       1  UNL1        0.0618
     46 H           5.5089   -0.8739  -13.8655 H       1  UNL1        0.0618
     47 H           6.6630   -1.6155  -11.7437 H       1  UNL1        0.0624
     48 H           4.1138   -9.0484   -2.0933 H       1  UNL1        0.0717
     49 H           1.8149   -4.9037   -3.3183 H       1  UNL1        0.0660
     50 H           2.0822   -3.1569   -3.2768 H       1  UNL1        0.0660
     51 H           0.9896   -3.9551   -2.0708 H       1  UNL1        0.0660
     52 H           1.8349   -1.9427   -1.3970 H       1  UNL1        0.0691
@<TRIPOS>BOND
     1     1     2    1
     2     2     3    1
     3     3     4   ar
     4     4     5   ar
     5     5     6   ar
     6     6     7    1
     7     7     8    1
     8     8     9   ar
     9     9    10   ar
    10    10    11    1
    11    11    12    2
    12    11    13   am
    13    13    14    1
    14    14    15    1
    15    15    16    1
    16    16    17   ar
    17    17    18   ar
    18    18    19   ar
    19    19    20   ar
    20    20    21   ar
    21    21    22   ar
    22    22    23   ar
    23    23    24   ar
    24    16    24   ar
    25    19    24   ar
    26    10    25   ar
    27    25    26   ar
    28     8    26   ar
    29     6    27   ar
    30    27    28    1
    31    28    29    1
    32    27    30   ar
    33     3    30   ar
    34     1    31    1
    35     1    32    1
    36     1    33    1
    37     4    34    1
    38     5    35    1
    39     7    36    1
    40    13    37    1
    41    14    38    1
    42    14    39    1
    43    15    40    1
    44    15    41    1
    45    17    42    1
    46    18    43    1
    47    20    44    1
    48    21    45    1
    49    22    46    1
    50    23    47    1
    51    25    48    1
    52    29    49    1
    53    29    50    1
    54    29    51    1
    55    30    52    1
