@<TRIPOS>MOLECULE
*****
 33 35 0 0 0
SMALL
GASTEIGER

@<TRIPOS>ATOM
      1 O           0.9801    0.2199   -0.0099 O.2     1  UNL1       -0.2671
      2 C           2.2136    0.1203    0.0363 C.2     1  UNL1        0.2764
      3 N           2.9657    0.9152    0.8944 N.am    1  UNL1       -0.2291
      4 N           2.3097    1.8869    1.6961 N.am    1  UNL1       -0.2310
      5 C           3.0319    2.8052    2.4488 C.2     1  UNL1        0.2701
      6 O           4.2644    2.8215    2.4593 O.2     1  UNL1       -0.2702
      7 C           2.1787    3.7893    3.3039 C.3     1  UNL1        0.1809
      8 C           2.3938    5.2741    2.9451 C.3     1  UNL1        0.0217
      9 C           1.2609    5.4369    2.0006 C.ar    1  UNL1       -0.0017
     10 C           1.0047    6.4184    1.0618 C.ar    1  UNL1       -0.0550
     11 C          -0.1103    6.2540    0.2324 C.ar    1  UNL1       -0.0613
     12 C          -0.9566    5.1398    0.3738 C.ar    1  UNL1       -0.0583
     13 C          -0.7229    4.1955    1.3714 C.ar    1  UNL1       -0.0196
     14 C           0.3847    4.3749    2.1682 C.ar    1  UNL1        0.1249
     15 O           0.7718    3.4916    3.1442 O.3     1  UNL1       -0.4790
     16 C           2.9522   -0.8241   -0.7896 C.ar    1  UNL1        0.1032
     17 C           2.7329   -1.1756   -2.1179 C.ar    1  UNL1       -0.0319
     18 C           3.6255   -2.2205   -2.4676 C.ar    1  UNL1       -0.0437
     19 C           4.3627   -2.5070   -1.3441 C.ar    1  UNL1        0.0023
     20 N           3.9641   -1.6541   -0.3438 N.ar    1  UNL1       -0.3571
     21 H           3.9758    1.0038    0.8152 H       1  UNL1        0.1732
     22 H           1.2874    1.8996    1.6690 H       1  UNL1        0.1729
     23 H           2.4493    3.6208    4.3544 H       1  UNL1        0.0835
     24 H           3.3685    5.4810    2.4967 H       1  UNL1        0.0355
     25 H           2.2357    5.9273    3.8129 H       1  UNL1        0.0355
     26 H           1.6543    7.2804    0.9466 H       1  UNL1        0.0621
     27 H          -0.3206    6.9868   -0.5434 H       1  UNL1        0.0618
     28 H          -1.7969    5.0080   -0.3031 H       1  UNL1        0.0619
     29 H          -1.3602    3.3268    1.4900 H       1  UNL1        0.0654
     30 H           1.9884   -0.7356   -2.7709 H       1  UNL1        0.0640
     31 H           3.7005   -2.7292   -3.4226 H       1  UNL1        0.0633
     32 H           5.1230   -3.2582   -1.1685 H       1  UNL1        0.0807
     33 H           4.3007   -1.6954    0.6081 H       1  UNL1        0.1655
@<TRIPOS>BOND
     1     1     2    2
     2     2     3   am
     3     3     4    1
     4     4     5   am
     5     5     6    2
     6     5     7    1
     7     7     8    1
     8     8     9    1
     9     9    10   ar
    10    10    11   ar
    11    11    12   ar
    12    12    13   ar
    13    13    14   ar
    14     9    14   ar
    15    14    15    1
    16     7    15    1
    17     2    16    1
    18    16    17   ar
    19    17    18   ar
    20    18    19   ar
    21    19    20   ar
    22    16    20   ar
    23     3    21    1
    24     4    22    1
    25     7    23    1
    26     8    24    1
    27     8    25    1
    28    10    26    1
    29    11    27    1
    30    12    28    1
    31    13    29    1
    32    17    30    1
    33    18    31    1
    34    19    32    1
    35    20    33    1
