@<TRIPOS>MOLECULE
*****
 51 53 0 0 0
SMALL
GASTEIGER

@<TRIPOS>ATOM
      1 C           2.5112    1.1107    0.0081 C.3     1  UNL1       -0.0397
      2 C           1.2116    0.3646   -0.0002 C.ar    1  UNL1       -0.0501
      3 C           1.2397   -1.0187    0.0047 C.ar    1  UNL1       -0.0571
      4 C           0.0553   -1.7421    0.0002 C.ar    1  UNL1       -0.0400
      5 C          -1.2077   -1.1368   -0.0060 C.ar    1  UNL1        0.0364
      6 N          -2.3858   -1.9425   -0.0127 N.am    1  UNL1       -0.2840
      7 C          -2.4030   -3.3351   -0.0236 C.2     1  UNL1        0.2343
      8 O          -1.4172   -4.0759   -0.0450 O.2     1  UNL1       -0.2738
      9 C          -3.7910   -3.9870   -0.0256 C.3     1  UNL1        0.0861
     10 N          -3.6097   -5.4330    0.1152 N.pl3   1  UNL1       -0.3354
     11 C          -4.5912   -6.3751   -0.0684 C.ar    1  UNL1        0.0275
     12 C          -4.5429   -7.5633    0.6683 C.ar    1  UNL1       -0.0401
     13 C          -5.5375   -8.5434    0.5308 C.ar    1  UNL1       -0.0479
     14 C          -6.6382   -8.3291   -0.3127 C.ar    1  UNL1        0.0368
     15 C          -7.7521   -9.3311   -0.3342 C.2     1  UNL1        0.2444
     16 O          -7.6769  -10.3421    0.3696 O.2     1  UNL1       -0.2702
     17 N          -8.8567   -9.0744   -1.1256 N.am    1  UNL1       -0.3042
     18 C          -9.9827   -9.9791   -1.1228 C.3     1  UNL1        0.0700
     19 C         -11.0441   -9.5843   -2.0928 C.ar    1  UNL1        0.1218
     20 C         -11.9672  -10.3518   -2.7757 C.ar    1  UNL1       -0.0192
     21 C         -12.7340   -9.4675   -3.5656 C.ar    1  UNL1       -0.0236
     22 C         -12.2499   -8.2074   -3.3027 C.ar    1  UNL1        0.0921
     23 O         -11.2228   -8.2630   -2.4068 O.2     1  UNL1       -0.4662
     24 C          -6.6729   -7.1538   -1.0662 C.ar    1  UNL1       -0.0479
     25 C          -5.6654   -6.1905   -0.9346 C.ar    1  UNL1       -0.0401
     26 C          -1.2576    0.2744   -0.0046 C.ar    1  UNL1       -0.0290
     27 C          -2.5349    1.0752   -0.0051 C.3     1  UNL1       -0.0379
     28 C          -0.0361    1.0070   -0.0066 C.ar    1  UNL1       -0.0542
     29 H           3.3614    0.4157    0.0029 H       1  UNL1        0.0278
     30 H           2.5960    1.7205    0.9113 H       1  UNL1        0.0278
     31 H           2.6000    1.7387   -0.8821 H       1  UNL1        0.0278
     32 H           2.1765   -1.5700    0.0119 H       1  UNL1        0.0621
     33 H           0.1918   -2.8137    0.0036 H       1  UNL1        0.0636
     34 H          -3.2768   -1.4663   -0.0104 H       1  UNL1        0.1549
     35 H          -4.2970   -3.7108   -0.9548 H       1  UNL1        0.0557
     36 H          -4.3572   -3.6285    0.8386 H       1  UNL1        0.0557
     37 H          -2.6362   -5.7436    0.0321 H       1  UNL1        0.1466
     38 H          -3.7481   -7.7112    1.3991 H       1  UNL1        0.0636
     39 H          -5.4495   -9.4657    1.1031 H       1  UNL1        0.0626
     40 H          -8.9598   -8.2272   -1.6623 H       1  UNL1        0.1495
     41 H         -10.3930  -10.0388   -0.1091 H       1  UNL1        0.0543
     42 H          -9.6069  -10.9717   -1.3947 H       1  UNL1        0.0543
     43 H         -12.0599  -11.4265   -2.7074 H       1  UNL1        0.0652
     44 H         -13.5399   -9.7202   -4.2413 H       1  UNL1        0.0649
     45 H         -12.5183   -7.2227   -3.6620 H       1  UNL1        0.1029
     46 H          -7.4676   -6.9461   -1.7703 H       1  UNL1        0.0626
     47 H          -5.7283   -5.2980   -1.5478 H       1  UNL1        0.0636
     48 H          -3.4332    0.4568    0.0256 H       1  UNL1        0.0278
     49 H          -2.5988    1.6878   -0.9112 H       1  UNL1        0.0278
     50 H          -2.5745    1.7309    0.8721 H       1  UNL1        0.0278
     51 H          -0.0585    2.0971   -0.0125 H       1  UNL1        0.0623
@<TRIPOS>BOND
     1     1     2    1
     2     2     3   ar
     3     3     4   ar
     4     4     5   ar
     5     5     6    1
     6     6     7   am
     7     7     8    2
     8     7     9    1
     9     9    10    1
    10    10    11    1
    11    11    12   ar
    12    12    13   ar
    13    13    14   ar
    14    14    15    1
    15    15    16    2
    16    15    17   am
    17    17    18    1
    18    18    19    1
    19    19    20   ar
    20    20    21   ar
    21    21    22   ar
    22    22    23   ar
    23    19    23   ar
    24    14    24   ar
    25    24    25   ar
    26    11    25   ar
    27     5    26   ar
    28    26    27    1
    29    26    28   ar
    30     2    28   ar
    31     1    29    1
    32     1    30    1
    33     1    31    1
    34     3    32    1
    35     4    33    1
    36     6    34    1
    37     9    35    1
    38     9    36    1
    39    10    37    1
    40    12    38    1
    41    13    39    1
    42    17    40    1
    43    18    41    1
    44    18    42    1
    45    20    43    1
    46    21    44    1
    47    22    45    1
    48    24    46    1
    49    25    47    1
    50    27    48    1
    51    27    49    1
    52    27    50    1
    53    28    51    1
