REMARK  10 active torsions:
REMARK  status: ('A' for Active; 'I' for Inactive)
REMARK    1  A    between atoms: C_2  and  O_3 
REMARK    2  A    between atoms: O_3  and  C_4 
REMARK    3  A    between atoms: C_7  and  N_8 
REMARK       I    between atoms: N_8  and  C_9 
REMARK    4  A    between atoms: C_9  and  C_11 
REMARK    5  A    between atoms: C_16  and  N_17 
REMARK    6  A    between atoms: N_17  and  C_18 
REMARK    7  A    between atoms: C_18  and  N_20 
REMARK       I    between atoms: N_20  and  C_21 
REMARK    8  A    between atoms: C_21  and  C_23 
REMARK    9  A    between atoms: C_26  and  C_27 
REMARK   10  A    between atoms: C_27  and  O_29 
ROOT
ATOM      1  C   UNL d   1      10.710  -2.340  -0.645  0.00  0.00     0.059 A 
ATOM      2  C   UNL d   1      11.534  -3.056   0.263  0.00  0.00     0.019 A 
ATOM      3  C   UNL d   1      12.922  -2.994   0.209  0.00  0.00     0.001 A 
ATOM      4  C   UNL d   1      13.516  -2.263  -0.808  0.00  0.00     0.002 A 
ATOM      5  C   UNL d   1      12.718  -1.527  -1.710  0.00  0.00     0.030 A 
ATOM      6  C   UNL d   1      11.300  -1.517  -1.627  0.00  0.00     0.050 A 
ENDROOT
BRANCH   6   7
ATOM      7  N   UNL d   1      10.564  -0.691  -2.563  0.00  0.00    -0.332 N 
ATOM      8  H   UNL d   1      11.149  -0.248  -3.263  0.00  0.00     0.168 HD
BRANCH   7   9
ATOM      9  C   UNL d   1       9.409   0.057  -2.259  0.00  0.00     0.179 C 
ATOM     10  S   UNL d   1       9.176   0.792  -0.758  0.00  0.00    -0.040 SA
BRANCH   9  11
ATOM     11  N   UNL d   1       8.536   0.203  -3.365  0.00  0.00    -0.299 N 
ATOM     12  C   UNL d   1       7.202   0.567  -3.217  0.00  0.00     0.257 C 
ATOM     13  O   UNL d   1       6.599   0.462  -2.142  0.00  0.00    -0.267 OA
ATOM     14  H   UNL d   1       8.977   0.458  -4.237  0.00  0.00     0.171 HD
BRANCH  12  15
ATOM     15  C   UNL d   1       6.362   1.125  -4.300  0.00  0.00     0.032 C 
ATOM     16  C   UNL d   1       5.249   1.865  -3.847  0.00  0.00     0.018 C 
ATOM     17  C   UNL d   1       4.388   2.510  -4.724  0.00  0.00     0.018 C 
ATOM     18  C   UNL d   1       4.656   2.482  -6.092  0.00  0.00     0.039 C 
ATOM     19  C   UNL d   1       5.703   1.663  -6.564  0.00  0.00     0.018 C 
ATOM     20  C   UNL d   1       6.545   0.962  -5.671  0.00  0.00     0.018 C 
BRANCH  18  21
ATOM     21  C   UNL d   1       3.854   3.394  -6.957  0.00  0.00     0.292 C 
ATOM     22  O   UNL d   1       2.977   4.133  -6.512  0.00  0.00    -0.259 OA
BRANCH  21  23
ATOM     23  O   UNL d   1       4.257   3.352  -8.249  0.00  0.00    -0.323 OA
ATOM     24  C   UNL d   1       3.550   4.256  -9.109  0.00  0.00     0.213 C 
ENDBRANCH  21  23
ENDBRANCH  18  21
ENDBRANCH  12  15
ENDBRANCH   9  11
ENDBRANCH   7   9
ENDBRANCH   6   7
BRANCH   1  25
ATOM     25  C   UNL d   1       9.255  -2.449  -0.344  0.00  0.00     0.258 C 
ATOM     26  N   UNL d   1       8.336  -2.547  -1.393  0.00  0.00    -0.323 N 
ATOM     27  H   UNL d   1       8.701  -2.563  -2.337  0.00  0.00     0.169 HD
ATOM     28  O   UNL d   1       8.986  -2.442   0.856  0.00  0.00    -0.267 OA
BRANCH  26  29
ATOM     29  C   UNL d   1       6.930  -2.287  -1.255  0.00  0.00     0.035 A 
ATOM     30  C   UNL d   1       6.097  -2.219  -2.384  0.00  0.00     0.032 A 
ATOM     31  C   UNL d   1       4.777  -1.706  -2.272  0.00  0.00     0.039 A 
ATOM     32  C   UNL d   1       4.240  -1.336  -1.032  0.00  0.00     0.068 A 
ATOM     33  C   UNL d   1       5.056  -1.428   0.082  0.00  0.00     0.039 A 
ATOM     34  C   UNL d   1       6.373  -1.892  -0.035  0.00  0.00     0.032 A 
BRANCH  32  35
ATOM     35  O   UNL d   1       2.930  -0.942  -1.024  0.00  0.00    -0.352 OA
BRANCH  35  36
ATOM     36  C   UNL d   1       2.502  -0.062   0.022  0.00  0.00     0.171 C 
ATOM     37  C   UNL d   1       0.980  -0.057   0.046  0.00  0.00     0.034 C 
ENDBRANCH  35  36
ENDBRANCH  32  35
ENDBRANCH  26  29
ENDBRANCH   1  25
TORSDOF 10
