REMARK  5 active torsions:
REMARK  status: ('A' for Active; 'I' for Inactive)
REMARK    1  A    between atoms: C_2  and  N_4 
REMARK    2  A    between atoms: C_5  and  C_6 
REMARK    3  A    between atoms: C_6  and  N_7 
REMARK       I    between atoms: N_7  and  C_8 
REMARK    4  A    between atoms: C_8  and  C_10 
REMARK    5  A    between atoms: C_15  and  N_16 
ROOT
ATOM      1  N   UNL d   1       4.897  -0.388   3.825  0.00  0.00    -0.350 N 
ATOM      2  C   UNL d   1       5.674   0.533   4.488  0.00  0.00     0.254 C 
ATOM      3  O   UNL d   1       5.701   1.733   4.205  0.00  0.00    -0.268 OA
ATOM      4  H   UNL d   1       5.086  -1.379   3.921  0.00  0.00     0.163 HD
ENDROOT
BRANCH   2   5
ATOM      5  C   UNL d   1       6.482   0.047   5.633  0.00  0.00     0.067 A 
ATOM      6  C   UNL d   1       6.397   0.828   6.811  0.00  0.00     0.059 A 
ATOM      7  C   UNL d   1       7.132   0.492   7.952  0.00  0.00     0.103 A 
ATOM      8  C   UNL d   1       7.948  -0.636   7.938  0.00  0.00     0.104 A 
ATOM      9  O   UNL d   1       7.003   1.302   9.051  0.00  0.00    -0.346 OA
ATOM     10  C   UNL d   1       8.056  -1.406   6.782  0.00  0.00     0.076 A 
ATOM     11  O   UNL d   1       8.695  -1.045   9.010  0.00  0.00    -0.346 OA
ATOM     12  C   UNL d   1       7.331  -1.072   5.620  0.00  0.00     0.121 A 
ATOM     13  C   UNL d   1       8.275  -0.416  10.226  0.00  0.00     0.202 C 
ATOM     14  C   UNL d   1       8.038   1.070  10.018  0.00  0.00     0.202 C 
BRANCH  12  15
ATOM     15  N   UNL d   1       7.564  -1.919   4.436  0.00  0.00    -0.115 N 
ATOM     16  O   UNL d   1       7.055  -1.613   3.357  0.00  0.00    -0.532 OA
ATOM     17  O   UNL d   1       8.271  -2.926   4.587  0.00  0.00    -0.532 OA
ENDBRANCH  12  15
ENDBRANCH   2   5
BRANCH   1  18
ATOM     18  C   UNL d   1       4.300  -0.036   2.559  0.00  0.00     0.203 C 
BRANCH  18  19
ATOM     19  C   UNL d   1       3.658  -1.202   1.814  0.00  0.00     0.147 A 
ATOM     20  N   UNL d   1       2.947  -1.078   0.658  0.00  0.00    -0.304 N 
ATOM     21  C   UNL d   1       2.643  -2.382   0.300  0.00  0.00     0.196 A 
ATOM     22  N   UNL d   1       3.138  -3.182   1.311  0.00  0.00    -0.251 N 
ATOM     23  S   UNL d   1       1.858  -3.018  -1.018  0.00  0.00    -0.039 SA
ATOM     24  N   UNL d   1       3.789  -2.433   2.238  0.00  0.00    -0.157 NA
ATOM     25  H   UNL d   1       3.053  -4.190   1.369  0.00  0.00     0.191 HD
BRANCH  20  26
ATOM     26  C   UNL d   1       2.457   0.123  -0.061  0.00  0.00     0.086 C 
ATOM     27  C   UNL d   1       0.923   0.170  -0.051  0.00  0.00     0.032 C 
ATOM     28  C   UNL d   1       2.937   1.462   0.492  0.00  0.00     0.032 C 
ENDBRANCH  20  26
ENDBRANCH  18  19
ENDBRANCH   1  18
TORSDOF 5
