@<TRIPOS>MOLECULE
*****
 48 50 0 0 0
SMALL
GASTEIGER

@<TRIPOS>ATOM
      1 C           1.0822    0.3081   -1.1350 C.3     1  UNL1        0.0788
      2 O           2.4172    0.1287   -0.6731 O.3     1  UNL1       -0.4945
      3 C           3.0659    1.2716   -0.3227 C.ar    1  UNL1        0.1287
      4 C           4.2756    1.4257   -1.0103 C.ar    1  UNL1       -0.0193
      5 C           5.0736    2.5423   -0.8112 C.ar    1  UNL1       -0.0583
      6 C           4.6309    3.5428    0.0446 C.ar    1  UNL1       -0.0609
      7 C           3.4555    3.3585    0.7956 C.ar    1  UNL1       -0.0496
      8 C           2.6823    2.1818    0.6664 C.ar    1  UNL1        0.0362
      9 C           1.5018    2.0242    1.5801 C.2     1  UNL1        0.0563
     10 N           0.7675    0.9918    1.9228 N.2     1  UNL1       -0.1883
     11 N           1.1373   -0.2813    1.5549 N.pl3   1  UNL1       -0.2174
     12 C           0.3617   -1.3312    1.0717 C.2     1  UNL1        0.1664
     13 N           0.8457   -2.5295    0.8993 N.am    1  UNL1       -0.1568
     14 C          -0.1112   -3.4500    0.5655 C.2     1  UNL1        0.2521
     15 O           0.1284   -4.6598    0.4258 O.2     1  UNL1       -0.2724
     16 C          -1.5303   -2.9209    0.4786 C.3     1  UNL1        0.0986
     17 C          -2.3605   -3.3837    1.6868 C.3     1  UNL1        0.0450
     18 C          -1.9256   -2.6960    2.9765 C.2     1  UNL1        0.2187
     19 O          -0.9022   -2.0250    3.0518 O.2     1  UNL1       -0.2754
     20 N          -2.6720   -2.8816    4.1082 N.am    1  UNL1       -0.2854
     21 C          -2.3098   -2.1428    5.2660 C.ar    1  UNL1        0.0348
     22 C          -2.1991   -2.7749    6.4974 C.ar    1  UNL1       -0.0401
     23 C          -1.9172   -2.0175    7.6413 C.ar    1  UNL1       -0.0557
     24 C          -1.6774   -0.6342    7.5591 C.ar    1  UNL1       -0.0320
     25 C          -1.2701    0.1318    8.7845 C.3     1  UNL1       -0.0383
     26 C          -1.7753   -0.0100    6.3112 C.ar    1  UNL1        0.0456
     27 CL         -1.5921    1.6999    6.1316 Cl      1  UNL1       -0.0832
     28 C          -2.0744   -0.7598    5.1765 C.ar    1  UNL1       -0.0219
     29 S          -1.3163   -1.1105    0.4508 S.3     1  UNL1       -0.0782
     30 H           0.7419   -0.7045   -1.3717 H       1  UNL1        0.0660
     31 H           0.9649    0.9393   -2.0066 H       1  UNL1        0.0660
     32 H           0.4260    0.7431   -0.3832 H       1  UNL1        0.0660
     33 H           4.5797    0.6587   -1.7192 H       1  UNL1        0.0654
     34 H           6.0222    2.6277   -1.3355 H       1  UNL1        0.0619
     35 H           5.2138    4.4581    0.1332 H       1  UNL1        0.0618
     36 H           3.1747    4.1488    1.4906 H       1  UNL1        0.0625
     37 H           1.1774    2.9787    2.0387 H       1  UNL1        0.0852
     38 H           2.0951   -0.4062    1.2299 H       1  UNL1        0.1763
     39 H          -1.9680   -3.2756   -0.4666 H       1  UNL1        0.0517
     40 H          -3.4195   -3.1745    1.4920 H       1  UNL1        0.0374
     41 H          -2.2509   -4.4656    1.8226 H       1  UNL1        0.0374
     42 H          -3.1949   -3.7391    4.2068 H       1  UNL1        0.1548
     43 H          -2.2513   -3.8571    6.5746 H       1  UNL1        0.0636
     44 H          -1.8792   -2.5184    8.6058 H       1  UNL1        0.0621
     45 H          -1.2190   -0.5178    9.6636 H       1  UNL1        0.0278
     46 H          -1.9825    0.9340    8.9992 H       1  UNL1        0.0278
     47 H          -0.2717    0.5593    8.6381 H       1  UNL1        0.0278
     48 H          -2.1248   -0.2521    4.2147 H       1  UNL1        0.0651
@<TRIPOS>BOND
     1     1     2    1
     2     2     3    1
     3     3     4   ar
     4     4     5   ar
     5     5     6   ar
     6     6     7   ar
     7     7     8   ar
     8     3     8   ar
     9     8     9    1
    10     9    10    2
    11    10    11    1
    12    11    12    1
    13    12    13    2
    14    13    14    1
    15    14    15    2
    16    14    16    1
    17    17    18    1
    18    18    19    2
    19    18    20   am
    20    20    21    1
    21    21    22   ar
    22    22    23   ar
    23    23    24   ar
    24    24    25    1
    25    24    26   ar
    26    26    27    1
    27    26    28   ar
    28    21    28   ar
    29    16    29    1
    30    12    29    1
    31    16    17    1
    32     1    30    1
    33     1    31    1
    34     1    32    1
    35     4    33    1
    36     5    34    1
    37     6    35    1
    38     7    36    1
    39     9    37    1
    40    11    38    1
    41    16    39    1
    42    17    40    1
    43    17    41    1
    44    20    42    1
    45    22    43    1
    46    23    44    1
    47    25    45    1
    48    25    46    1
    49    25    47    1
    50    28    48    1
