@<TRIPOS>MOLECULE
*****
 36 37 0 0 0
SMALL
GASTEIGER

@<TRIPOS>ATOM
      1 C           1.0551    0.0762   -0.0293 C.3     1  UNL1        0.0788
      2 O           2.4812    0.0108   -0.1037 O.3     1  UNL1       -0.4951
      3 C           3.0558    0.8926   -0.9804 C.ar    1  UNL1        0.1201
      4 C           4.1659    0.4547   -1.7024 C.ar    1  UNL1       -0.0192
      5 C           4.8376    1.3326   -2.5812 C.ar    1  UNL1       -0.0461
      6 C           4.3772    2.6485   -2.7966 C.ar    1  UNL1        0.0384
      7 C           5.0230    3.5185   -3.8621 C.2     1  UNL1        0.2602
      8 O           5.9724    3.0799   -4.5223 O.2     1  UNL1       -0.2687
      9 N           4.4980    4.7873   -4.0939 N.am    1  UNL1       -0.2292
     10 N           5.0169    5.6396   -5.1297 N.am    1  UNL1       -0.2177
     11 C           4.4405    6.8991   -5.2798 C.2     1  UNL1        0.3202
     12 O           3.5106    7.2431   -4.5456 O.2     1  UNL1       -0.2509
     13 N           4.9589    7.6758   -6.3117 N.am    1  UNL1       -0.2683
     14 C           4.5227    9.0074   -6.5920 C.ar    1  UNL1        0.0349
     15 C           4.4316    9.4777   -7.9131 C.ar    1  UNL1       -0.0391
     16 C           4.0543   10.8101   -8.1791 C.ar    1  UNL1       -0.0416
     17 C           3.7443   11.6706   -7.1283 C.ar    1  UNL1        0.0411
     18 CL          3.1907   13.2699   -7.4475 Cl      1  UNL1       -0.0835
     19 C           3.8516   11.2250   -5.8162 C.ar    1  UNL1       -0.0416
     20 C           4.2323    9.9011   -5.5543 C.ar    1  UNL1       -0.0391
     21 C           3.2923    3.0811   -2.0248 C.ar    1  UNL1       -0.0461
     22 C           2.6497    2.2166   -1.1208 C.ar    1  UNL1       -0.0192
     23 H           0.7191   -0.5978    0.7661 H       1  UNL1        0.0660
     24 H           0.6173   -0.2647   -0.9726 H       1  UNL1        0.0660
     25 H           0.6783    1.0703    0.2287 H       1  UNL1        0.0660
     26 H           4.5023   -0.5768   -1.5996 H       1  UNL1        0.0654
     27 H           5.7245    0.9686   -3.0992 H       1  UNL1        0.0626
     28 H           3.6968    5.1777   -3.6026 H       1  UNL1        0.1732
     29 H           5.7980    5.2745   -5.6663 H       1  UNL1        0.1744
     30 H           5.5512    7.2330   -7.0001 H       1  UNL1        0.1564
     31 H           4.5774    8.8127   -8.7608 H       1  UNL1        0.0636
     32 H           3.9910   11.1713   -9.2042 H       1  UNL1        0.0633
     33 H           3.6448   11.8972   -4.9875 H       1  UNL1        0.0633
     34 H           4.3304    9.5891   -4.5185 H       1  UNL1        0.0636
     35 H           2.9122    4.0931   -2.0866 H       1  UNL1        0.0626
     36 H           1.8365    2.6157   -0.5240 H       1  UNL1        0.0654
@<TRIPOS>BOND
     1     1     2    1
     2     2     3    1
     3     3     4   ar
     4     4     5   ar
     5     5     6   ar
     6     6     7    1
     7     7     8    2
     8     7     9   am
     9     9    10    1
    10    10    11   am
    11    11    12    2
    12    11    13   am
    13    13    14    1
    14    14    15   ar
    15    15    16   ar
    16    16    17   ar
    17    17    18    1
    18    17    19   ar
    19    19    20   ar
    20    14    20   ar
    21     6    21   ar
    22    21    22   ar
    23     3    22   ar
    24     1    23    1
    25     1    24    1
    26     1    25    1
    27     4    26    1
    28     5    27    1
    29     9    28    1
    30    10    29    1
    31    13    30    1
    32    15    31    1
    33    16    32    1
    34    19    33    1
    35    20    34    1
    36    21    35    1
    37    22    36    1
