@<TRIPOS>MOLECULE
*****
 40 41 0 0 0
SMALL
GASTEIGER

@<TRIPOS>ATOM
      1 O           1.0687   -0.0467   -0.0909 O.2     1  UNL1       -0.2648
      2 C           2.2990   -0.0921   -0.0839 C.2     1  UNL1        0.3031
      3 N           3.0330   -1.0336    0.6304 N.am    1  UNL1       -0.2777
      4 C           2.3518   -1.9740    1.4449 C.ar    1  UNL1        0.0340
      5 C           1.2339   -2.6795    0.9730 C.ar    1  UNL1       -0.0370
      6 C           0.5445   -3.5709    1.8032 C.ar    1  UNL1       -0.0184
      7 C           0.9672   -3.7369    3.1158 C.ar    1  UNL1        0.1170
      8 O           0.3330   -4.5802    3.9795 O.3     1  UNL1       -0.5068
      9 C           2.0685   -3.0367    3.5979 C.ar    1  UNL1       -0.0184
     10 C           2.7800   -2.1738    2.7571 C.ar    1  UNL1       -0.0370
     11 C           3.0355    1.0154   -0.8522 C.2     1  UNL1        0.2995
     12 O           2.3066    1.7830   -1.4772 O.2     1  UNL1       -0.2652
     13 N           4.4219    1.1246   -0.8010 N.am    1  UNL1       -0.3047
     14 C           5.2208    2.1128   -1.5749 C.3     1  UNL1        0.0236
     15 C           4.4762    3.3721   -2.0621 C.3     1  UNL1       -0.0345
     16 C           4.3520    4.4725   -1.0097 C.3     1  UNL1       -0.0514
     17 C           5.4791    5.4895   -1.1613 C.3     1  UNL1       -0.0530
     18 C           6.8572    5.0005   -0.7243 C.3     1  UNL1       -0.0530
     19 C           7.2943    3.6482   -1.2940 C.3     1  UNL1       -0.0514
     20 C           6.4785    2.4700   -0.7495 C.3     1  UNL1       -0.0345
     21 H           3.9896   -0.8232    0.8659 H       1  UNL1        0.1553
     22 H           0.8907   -2.5468   -0.0514 H       1  UNL1        0.0637
     23 H          -0.3145   -4.1050    1.4086 H       1  UNL1        0.0655
     24 H          -0.4016   -5.0177    3.5186 H       1  UNL1        0.2921
     25 H           2.3602   -3.1525    4.6378 H       1  UNL1        0.0655
     26 H           3.6117   -1.6112    3.1684 H       1  UNL1        0.0637
     27 H           4.9534    0.3673   -0.3988 H       1  UNL1        0.1494
     28 H           5.5551    1.5758   -2.4743 H       1  UNL1        0.0498
     29 H           3.4907    3.1481   -2.4629 H       1  UNL1        0.0283
     30 H           4.9873    3.7649   -2.9503 H       1  UNL1        0.0283
     31 H           4.3093    4.0707    0.0099 H       1  UNL1        0.0266
     32 H           3.4028    4.9972   -1.1701 H       1  UNL1        0.0266
     33 H           5.2276    6.3854   -0.5823 H       1  UNL1        0.0265
     34 H           5.5327    5.8097   -2.2096 H       1  UNL1        0.0265
     35 H           6.8967    4.9645    0.3715 H       1  UNL1        0.0265
     36 H           7.5905    5.7573   -1.0310 H       1  UNL1        0.0265
     37 H           8.3420    3.4990   -1.0040 H       1  UNL1        0.0266
     38 H           7.2792    3.6680   -2.3896 H       1  UNL1        0.0266
     39 H           6.1923    2.6733    0.2912 H       1  UNL1        0.0283
     40 H           7.1267    1.5855   -0.7035 H       1  UNL1        0.0283
@<TRIPOS>BOND
     1     1     2    2
     2     2     3   am
     3     3     4    1
     4     4     5   ar
     5     5     6   ar
     6     6     7   ar
     7     7     8    1
     8     7     9   ar
     9     9    10   ar
    10     4    10   ar
    11     2    11    1
    12    11    12    2
    13    11    13   am
    14    13    14    1
    15    14    15    1
    16    15    16    1
    17    16    17    1
    18    17    18    1
    19    18    19    1
    20    19    20    1
    21    14    20    1
    22     3    21    1
    23     5    22    1
    24     6    23    1
    25     8    24    1
    26     9    25    1
    27    10    26    1
    28    13    27    1
    29    14    28    1
    30    15    29    1
    31    15    30    1
    32    16    31    1
    33    16    32    1
    34    17    33    1
    35    17    34    1
    36    18    35    1
    37    18    36    1
    38    19    37    1
    39    19    38    1
    40    20    39    1
    41    20    40    1
