@<TRIPOS>MOLECULE
*****
 56 57 0 0 0
SMALL
GASTEIGER

@<TRIPOS>ATOM
      1 C           1.3267   -0.1616    3.0662 C.3     1  UNL1       -0.0647
      2 C           2.5982    0.4510    2.4927 C.3     1  UNL1       -0.0493
      3 C           2.9532    0.7838    1.0184 C.3     1  UNL1       -0.0189
      4 C           2.4041   -0.1276   -0.0735 C.3     1  UNL1       -0.0584
      5 C           4.4981    0.8458    0.9755 C.ar    1  UNL1       -0.0443
      6 C           5.2754   -0.3186    0.8605 C.ar    1  UNL1       -0.0549
      7 C           6.6661   -0.2822    1.0485 C.ar    1  UNL1       -0.0197
      8 C           7.3345    0.9273    1.2642 C.ar    1  UNL1        0.1212
      9 O           8.7019    0.8457    1.3441 O.3     1  UNL1       -0.4827
     10 C           9.4723    2.0545    1.4151 C.3     1  UNL1        0.1666
     11 C          11.0090    1.7626    1.3541 C.2     1  UNL1        0.2667
     12 O          11.4798    0.6341    1.2071 O.2     1  UNL1       -0.2705
     13 N          11.8447    2.8705    1.4774 N.am    1  UNL1       -0.2323
     14 N          13.3012    2.7313    1.4467 N.am    1  UNL1       -0.2454
     15 C          14.1054    3.8784    1.5887 C.2     1  UNL1        0.1533
     16 S          13.3649    5.3848    1.7741 S.2     1  UNL1       -0.0170
     17 N          15.5062    3.6564    1.5550 N.am    1  UNL1       -0.2627
     18 C          16.5128    4.6399    1.7179 C.2     1  UNL1        0.2496
     19 O          16.3053    5.8367    1.9040 O.2     1  UNL1       -0.2698
     20 C          17.9646    4.2808    1.6563 C.ar    1  UNL1        0.0378
     21 C          18.8544    4.9851    2.4993 C.ar    1  UNL1       -0.0496
     22 C          20.2393    4.8956    2.3254 C.ar    1  UNL1       -0.0603
     23 C          20.7544    4.0569    1.3401 C.ar    1  UNL1       -0.0477
     24 C          19.8878    3.3550    0.4836 C.ar    1  UNL1        0.0597
     25 C          20.5010    2.5477   -0.6095 C.2     1  UNL1        0.3389
     26 O          21.7159    2.4297   -0.7610 O.2     1  UNL1       -0.2450
     27 O          19.5534    1.9809   -1.3926 O.3     1  UNL1       -0.4645
     28 C          20.0729    1.1889   -2.4672 C.3     1  UNL1        0.0820
     29 C          18.4892    3.4741    0.6417 C.ar    1  UNL1       -0.0356
     30 C           6.5725    2.0889    1.3725 C.ar    1  UNL1       -0.0197
     31 C           5.1705    2.0489    1.2373 C.ar    1  UNL1       -0.0549
     32 H           1.5547   -0.3625    4.1280 H       1  UNL1        0.0230
     33 H           1.0318   -1.1240    2.6412 H       1  UNL1        0.0230
     34 H           0.4790    0.5288    3.0848 H       1  UNL1        0.0230
     35 H           3.3882   -0.2033    2.8738 H       1  UNL1        0.0268
     36 H           2.6865    1.4105    3.0155 H       1  UNL1        0.0268
     37 H           2.5753    1.7919    0.7880 H       1  UNL1        0.0346
     38 H           2.7115   -1.1677    0.0568 H       1  UNL1        0.0236
     39 H           2.7770    0.2018   -1.0554 H       1  UNL1        0.0236
     40 H           1.3124   -0.0955   -0.1091 H       1  UNL1        0.0236
     41 H           4.8101   -1.2809    0.6598 H       1  UNL1        0.0622
     42 H           7.2203   -1.2189    1.0374 H       1  UNL1        0.0654
     43 H           9.2518    2.5566    2.3645 H       1  UNL1        0.0795
     44 H           9.2142    2.7128    0.5751 H       1  UNL1        0.0795
     45 H          11.5029    3.8243    1.5972 H       1  UNL1        0.1729
     46 H          13.6299    1.7725    1.3368 H       1  UNL1        0.1718
     47 H          15.8244    2.7031    1.4532 H       1  UNL1        0.1569
     48 H          18.4697    5.6488    3.2754 H       1  UNL1        0.0625
     49 H          20.9129    5.5022    2.9309 H       1  UNL1        0.0618
     50 H          21.8362    3.9712    1.2286 H       1  UNL1        0.0626
     51 H          19.2281    0.7814   -3.0301 H       1  UNL1        0.0661
     52 H          20.6613    0.3519   -2.0775 H       1  UNL1        0.0661
     53 H          20.6748    1.8013   -3.1469 H       1  UNL1        0.0661
     54 H          17.8218    2.9992   -0.0682 H       1  UNL1        0.0633
     55 H           7.0331    3.0454    1.5884 H       1  UNL1        0.0654
     56 H           4.6064    2.9710    1.3614 H       1  UNL1        0.0622
@<TRIPOS>BOND
     1     1     2    1
     2     3     5    1
     3     5     6   ar
     4     6     7   ar
     5     7     8   ar
     6     8     9    1
     7     9    10    1
     8    10    11    1
     9    11    12    2
    10    11    13   am
    11    13    14    1
    12    14    15    1
    13    15    16    2
    14    15    17    1
    15    17    18   am
    16    18    19    2
    17    18    20    1
    18    20    21   ar
    19    21    22   ar
    20    22    23   ar
    21    23    24   ar
    22    24    25    1
    23    25    26    2
    24    25    27    1
    25    27    28    1
    26    24    29   ar
    27    20    29   ar
    28     8    30   ar
    29    30    31   ar
    30     5    31   ar
    31     3     4    1
    32     3     2    1
    33     1    32    1
    34     1    33    1
    35     1    34    1
    36     2    35    1
    37     2    36    1
    38     3    37    1
    39     4    38    1
    40     4    39    1
    41     4    40    1
    42     6    41    1
    43     7    42    1
    44    10    43    1
    45    10    44    1
    46    13    45    1
    47    14    46    1
    48    17    47    1
    49    21    48    1
    50    22    49    1
    51    23    50    1
    52    28    51    1
    53    28    52    1
    54    28    53    1
    55    29    54    1
    56    30    55    1
    57    31    56    1
