@<TRIPOS>MOLECULE
*****
 72 74 0 0 0
SMALL
GASTEIGER

@<TRIPOS>ATOM
      1 C           1.0519    0.0153   -0.0809 C.3     1  UNL1       -0.0653
      2 C           2.5657    0.0141   -0.0860 C.3     1  UNL1       -0.0559
      3 C           3.0933    0.6620    1.1772 C.3     1  UNL1       -0.0533
      4 C           4.6144    0.6602    1.1691 C.3     1  UNL1       -0.0516
      5 C           5.0734    1.2896    2.4609 C.3     1  UNL1       -0.0371
      6 C           6.5793    1.3434    2.5965 C.3     1  UNL1        0.0166
      7 N           7.0553    2.0952    3.7613 N.am    1  UNL1       -0.2751
      8 C           6.1146    2.4172    4.7747 C.2     1  UNL1        0.2923
      9 O           5.2382    1.6449    5.1475 O.2     1  UNL1       -0.2604
     10 C           6.0117    3.7739    5.3183 C.1     1  UNL1       -0.0025
     11 C           5.9850    4.8666    5.8174 C.1     1  UNL1       -0.0566
     12 C           6.2172    6.1428    6.4673 C.ar    1  UNL1        0.0254
     13 C           6.2599    6.1988    7.8641 C.ar    1  UNL1       -0.0463
     14 C           6.5197    7.4061    8.5192 C.ar    1  UNL1       -0.0606
     15 C           6.7798    8.5601    7.7829 C.ar    1  UNL1       -0.0617
     16 C           6.8557    8.4924    6.3941 C.ar    1  UNL1       -0.0606
     17 C           6.5820    7.2868    5.7378 C.ar    1  UNL1       -0.0463
     18 C           8.5491    2.1752    3.9611 C.3     1  UNL1        0.1350
     19 C           9.3883    2.8737    2.8223 C.2     1  UNL1        0.2386
     20 O          10.3200    3.6429    3.0768 O.2     1  UNL1       -0.2734
     21 N           9.1740    2.4992    1.5080 N.am    1  UNL1       -0.3106
     22 C           9.7339    3.2869    0.4158 C.3     1  UNL1        0.0232
     23 C           9.3998    4.7791    0.6046 C.3     1  UNL1       -0.0345
     24 C          10.0146    5.6693   -0.4549 C.3     1  UNL1       -0.0514
     25 C          11.5161    5.4271   -0.5624 C.3     1  UNL1       -0.0529
     26 C          11.8135    3.9587   -0.8491 C.3     1  UNL1       -0.0514
     27 C          11.2369    3.0480    0.2320 C.3     1  UNL1       -0.0345
     28 C           8.9333    2.7720    5.3099 C.ar    1  UNL1        0.0648
     29 C           9.2740    2.0512    6.4606 C.ar    1  UNL1        0.1292
     30 O           9.4744    0.7003    6.4913 O.3     1  UNL1       -0.5062
     31 C           9.4129    2.6957    7.6997 C.ar    1  UNL1        0.0219
     32 C           9.2338    4.0691    7.7890 C.ar    1  UNL1        0.1238
     33 O           9.2448    4.7465    8.9715 O.3     1  UNL1       -0.5065
     34 C           9.0048    4.8142    6.6510 C.ar    1  UNL1        0.0219
     35 C           8.8438    4.1680    5.4343 C.ar    1  UNL1        0.1292
     36 O           8.4127    4.8754    4.3354 O.3     1  UNL1       -0.5062
     37 H           0.6744   -0.4513   -0.9934 H       1  UNL1        0.0230
     38 H           0.6669    1.0386   -0.0269 H       1  UNL1        0.0230
     39 H           0.6678   -0.5413    0.7801 H       1  UNL1        0.0230
     40 H           2.9365    0.5591   -0.9611 H       1  UNL1        0.0263
     41 H           2.9371   -1.0146   -0.1548 H       1  UNL1        0.0263
     42 H           2.7243    0.1221    2.0600 H       1  UNL1        0.0265
     43 H           2.7229    1.6925    1.2606 H       1  UNL1        0.0265
     44 H           4.9971    1.2197    0.3086 H       1  UNL1        0.0266
     45 H           4.9941   -0.3656    1.1032 H       1  UNL1        0.0266
     46 H           4.6515    0.6913    3.2705 H       1  UNL1        0.0280
     47 H           4.6777    2.3114    2.5294 H       1  UNL1        0.0280
     48 H           6.9133    1.8892    1.7128 H       1  UNL1        0.0465
     49 H           7.0281    0.3419    2.5681 H       1  UNL1        0.0465
     50 H           6.1540    5.2891    8.4524 H       1  UNL1        0.0630
     51 H           6.5257    7.4403    9.6055 H       1  UNL1        0.0618
     52 H           6.9375    9.5070    8.2930 H       1  UNL1        0.0618
     53 H           7.1202    9.3797    5.8226 H       1  UNL1        0.0618
     54 H           6.7018    7.2577    4.6572 H       1  UNL1        0.0630
     55 H           8.9148    1.1398    3.9179 H       1  UNL1        0.0650
     56 H           8.7689    1.6018    1.2865 H       1  UNL1        0.1490
     57 H           9.2246    2.9342   -0.4917 H       1  UNL1        0.0498
     58 H           9.7873    5.1572    1.5545 H       1  UNL1        0.0283
     59 H           8.3131    4.9138    0.6535 H       1  UNL1        0.0283
     60 H           9.8300    6.7146   -0.1825 H       1  UNL1        0.0266
     61 H           9.5278    5.4830   -1.4169 H       1  UNL1        0.0266
     62 H          12.0119    5.7247    0.3715 H       1  UNL1        0.0265
     63 H          11.9272    6.0553   -1.3586 H       1  UNL1        0.0265
     64 H          12.8955    3.8063   -0.9203 H       1  UNL1        0.0266
     65 H          11.3817    3.6883   -1.8200 H       1  UNL1        0.0266
     66 H          11.7743    3.2234    1.1707 H       1  UNL1        0.0283
     67 H          11.4204    1.9993   -0.0329 H       1  UNL1        0.0283
     68 H           9.3988    0.3149    5.6079 H       1  UNL1        0.2922
     69 H           9.6457    2.1086    8.5814 H       1  UNL1        0.0691
     70 H           9.5016    4.1423    9.6844 H       1  UNL1        0.2921
     71 H           8.8472    5.8811    6.7435 H       1  UNL1        0.0691
     72 H           8.1352    5.7572    4.6141 H       1  UNL1        0.2922
@<TRIPOS>BOND
     1     1     2    1
     2     2     3    1
     3     3     4    1
     4     4     5    1
     5     5     6    1
     6     6     7    1
     7     7     8   am
     8     8     9    2
     9     8    10    1
    10    10    11    3
    11    11    12    1
    12    12    13   ar
    13    13    14   ar
    14    14    15   ar
    15    15    16   ar
    16    16    17   ar
    17    12    17   ar
    18     7    18    1
    19    18    19    1
    20    19    20    2
    21    19    21   am
    22    21    22    1
    23    22    23    1
    24    23    24    1
    25    24    25    1
    26    25    26    1
    27    26    27    1
    28    22    27    1
    29    18    28    1
    30    28    29   ar
    31    29    30    1
    32    29    31   ar
    33    31    32   ar
    34    32    33    1
    35    32    34   ar
    36    34    35   ar
    37    28    35   ar
    38    35    36    1
    39     1    37    1
    40     1    38    1
    41     1    39    1
    42     2    40    1
    43     2    41    1
    44     3    42    1
    45     3    43    1
    46     4    44    1
    47     4    45    1
    48     5    46    1
    49     5    47    1
    50     6    48    1
    51     6    49    1
    52    13    50    1
    53    14    51    1
    54    15    52    1
    55    16    53    1
    56    17    54    1
    57    18    55    1
    58    21    56    1
    59    22    57    1
    60    23    58    1
    61    23    59    1
    62    24    60    1
    63    24    61    1
    64    25    62    1
    65    25    63    1
    66    26    64    1
    67    26    65    1
    68    27    66    1
    69    27    67    1
    70    30    68    1
    71    31    69    1
    72    33    70    1
    73    34    71    1
    74    36    72    1
