@<TRIPOS>MOLECULE
*****
 52 56 0 0 0
SMALL
GASTEIGER

@<TRIPOS>ATOM
      1 C           0.9295    0.0961    0.1580 C.3     1  UNL1       -0.0427
      2 N           2.4342   -0.0069    0.0725 N.4     1  UNL1        0.2369
      3 C           2.9673    0.2323   -1.3358 C.3     1  UNL1       -0.0277
      4 C           2.3399   -0.7672   -2.3073 C.3     1  UNL1        0.0144
      5 C           2.3851   -2.1632   -1.7697 C.ar    1  UNL1       -0.0130
      6 C           2.6706   -2.4208   -0.4337 C.ar    1  UNL1        0.0400
      7 S           2.6609   -4.0896   -0.0844 S.2     1  UNL1       -0.0724
      8 C           2.2702   -4.4711   -1.6950 C.ar    1  UNL1        0.0802
      9 C           2.1182   -3.3594   -2.4972 C.ar    1  UNL1        0.0680
     10 C           1.7939   -3.5897   -3.8996 C.2     1  UNL1        0.2198
     11 O           1.3932   -2.5454   -4.6519 O.2     1  UNL1       -0.4921
     12 N           1.8834   -4.7306   -4.4702 N.2     1  UNL1       -0.2228
     13 C           2.4171   -5.8191   -3.6477 C.3     1  UNL1        0.1433
     14 C           3.9136   -5.9731   -3.9316 C.ar    1  UNL1       -0.0053
     15 C           4.8563   -4.9633   -3.6380 C.ar    1  UNL1       -0.0515
     16 C           6.1897   -5.0445   -4.0613 C.ar    1  UNL1       -0.0188
     17 C           6.6256   -6.1897   -4.7205 C.ar    1  UNL1        0.1320
     18 O           8.0113   -6.2759   -5.0277 O.3     1  UNL1       -0.4223
     19 C           8.5503   -7.4223   -5.5928 C.2     1  UNL1        0.3444
     20 O           7.9624   -8.4396   -5.9624 O.2     1  UNL1       -0.2445
     21 C          10.0078   -7.3746   -5.7490 C.ar    1  UNL1        0.0594
     22 C          10.5476   -7.9367   -6.9169 C.ar    1  UNL1       -0.0478
     23 C          11.9167   -8.1690   -7.0120 C.ar    1  UNL1       -0.0610
     24 C          12.7543   -7.7833   -5.9677 C.ar    1  UNL1       -0.0617
     25 C          12.2186   -7.2144   -4.8080 C.ar    1  UNL1       -0.0610
     26 C          10.8404   -7.0181   -4.6877 C.ar    1  UNL1       -0.0478
     27 C           5.7013   -7.1949   -5.0091 C.ar    1  UNL1       -0.0188
     28 C           4.3656   -7.0938   -4.6230 C.ar    1  UNL1       -0.0515
     29 N           2.1600   -5.7064   -2.2163 N.pl3   1  UNL1       -0.3130
     30 C           2.9346   -1.3613    0.5970 C.3     1  UNL1        0.0005
     31 H           0.6313    1.0570   -0.2674 H       1  UNL1        0.0778
     32 H           0.6411    0.0219    1.2069 H       1  UNL1        0.0778
     33 H           0.4721   -0.7225   -0.4052 H       1  UNL1        0.0778
     34 H           2.8257    0.7257    0.6780 H       1  UNL1        0.2034
     35 H           4.0563    0.1075   -1.2924 H       1  UNL1        0.0818
     36 H           2.7379    1.2635   -1.6190 H       1  UNL1        0.0818
     37 H           2.8503   -0.7089   -3.2720 H       1  UNL1        0.0366
     38 H           1.2872   -0.5031   -2.4716 H       1  UNL1        0.0366
     39 H           1.2320   -1.7381   -4.1617 H       1  UNL1        0.2937
     40 H           1.9032   -6.7276   -3.9868 H       1  UNL1        0.0805
     41 H           4.5620   -4.0815   -3.0838 H       1  UNL1        0.0623
     42 H           6.8562   -4.2064   -3.8772 H       1  UNL1        0.0654
     43 H           9.8930   -8.2364   -7.7343 H       1  UNL1        0.0626
     44 H          12.3239   -8.6773   -7.8831 H       1  UNL1        0.0618
     45 H          13.8269   -7.9417   -6.0532 H       1  UNL1        0.0618
     46 H          12.8787   -6.9615   -3.9820 H       1  UNL1        0.0618
     47 H          10.4255   -6.6465   -3.7558 H       1  UNL1        0.0626
     48 H           5.9605   -8.0881   -5.5590 H       1  UNL1        0.0654
     49 H           3.6920   -7.9028   -4.8960 H       1  UNL1        0.0623
     50 H           2.2212   -6.5672   -1.6827 H       1  UNL1        0.1489
     51 H           4.0086   -1.2344    0.7821 H       1  UNL1        0.0872
     52 H           2.4303   -1.5384    1.5524 H       1  UNL1        0.0872
@<TRIPOS>UNITY_ATOM_ATTR
2 1
charge 1
@<TRIPOS>BOND
     1     1     2    1
     2     2     3    1
     3     3     4    1
     4     4     5    1
     5     5     6   ar
     6     6     7   ar
     7     7     8   ar
     8     8     9   ar
     9     5     9   ar
    10     9    10    1
    11    10    11    1
    12    10    12    2
    13    12    13    1
    14    14    15   ar
    15    15    16   ar
    16    16    17   ar
    17    17    18    1
    18    18    19    1
    19    19    20    2
    20    19    21    1
    21    21    22   ar
    22    22    23   ar
    23    23    24   ar
    24    24    25   ar
    25    25    26   ar
    26    21    26   ar
    27    17    27   ar
    28    27    28   ar
    29    14    28   ar
    30    13    29    1
    31     8    29    1
    32     6    30    1
    33     2    30    1
    34    13    14    1
    35     1    31    1
    36     1    32    1
    37     1    33    1
    38     2    34    1
    39     3    35    1
    40     3    36    1
    41     4    37    1
    42     4    38    1
    43    11    39    1
    44    13    40    1
    45    15    41    1
    46    16    42    1
    47    22    43    1
    48    23    44    1
    49    24    45    1
    50    25    46    1
    51    26    47    1
    52    27    48    1
    53    28    49    1
    54    29    50    1
    55    30    51    1
    56    30    52    1
