@<TRIPOS>MOLECULE
*****
 63 66 0 0 0
SMALL
GASTEIGER

@<TRIPOS>ATOM
      1 C           0.9779    0.0512    0.0565 C.3     1  UNL1       -0.0639
      2 C           2.5009    0.0494    0.0452 C.3     1  UNL1       -0.0399
      3 C           3.0884   -1.3212    0.4023 C.3     1  UNL1        0.0176
      4 N           4.5515   -1.3533    0.3349 N.pl3   1  UNL1       -0.2669
      5 C           5.3931   -2.5078    0.4990 C.2     1  UNL1        0.1771
      6 S           4.7706   -4.0848    0.1681 S.3     1  UNL1       -0.0795
      7 C           6.1747   -5.2770    0.2307 C.3     1  UNL1        0.0774
      8 C           5.6753   -6.7452   -0.1048 C.2     1  UNL1        0.2233
      9 O           4.4838   -7.0413   -0.1606 O.2     1  UNL1       -0.2749
     10 N           6.6311   -7.7533   -0.2502 N.am    1  UNL1       -0.3137
     11 C           6.3148   -9.1888   -0.2359 C.3     1  UNL1        0.0224
     12 C           7.5490  -10.1427    0.0598 C.3     1  UNL1        0.0276
     13 C           8.1583   -9.8676    1.4614 C.2     1  UNL1        0.0165
     14 C           8.4360   -8.7258    2.1201 C.ar    1  UNL1        0.0515
     15 C           8.3760   -7.3300    1.8621 C.ar    1  UNL1       -0.0481
     16 C           8.5928   -6.4287    2.8170 C.ar    1  UNL1       -0.0608
     17 C           9.0250   -6.8251    4.1248 C.ar    1  UNL1       -0.0555
     18 C           9.2222   -8.1096    4.4665 C.ar    1  UNL1        0.0098
     19 C           8.9236   -9.1285    3.4605 C.ar    1  UNL1        0.2086
     20 N           9.0086  -10.3984    3.5871 N.2     1  UNL1       -0.2369
     21 C           8.5408  -11.0037    2.3660 C.3     1  UNL1        0.1667
     22 C           7.1998  -11.6325   -0.2817 C.ar    1  UNL1       -0.0383
     23 C           7.6779  -12.7715    0.3963 C.ar    1  UNL1       -0.0545
     24 C           7.4680  -14.0807    0.0044 C.ar    1  UNL1       -0.0197
     25 C           6.6858  -14.3323   -1.0840 C.ar    1  UNL1        0.1201
     26 O           6.5979  -15.6536   -1.3783 O.3     1  UNL1       -0.4951
     27 C           5.8757  -15.9429   -2.5566 C.3     1  UNL1        0.0788
     28 C           6.1009  -13.2606   -1.7499 C.ar    1  UNL1       -0.0197
     29 C           6.4129  -11.9343   -1.4027 C.ar    1  UNL1       -0.0545
     30 N           6.6025   -2.1912    0.8548 N.2     1  UNL1       -0.1609
     31 N           6.6070   -0.8222    0.8762 N.pl3   1  UNL1       -0.2229
     32 C           5.4034   -0.1906    0.4186 C.3     1  UNL1        0.2095
     33 O           5.5732    0.2786   -0.8870 O.3     1  UNL1       -0.3579
     34 H           0.5992    1.0417   -0.2202 H       1  UNL1        0.0230
     35 H           0.5890   -0.1890    1.0513 H       1  UNL1        0.0230
     36 H           0.5772   -0.6741   -0.6577 H       1  UNL1        0.0230
     37 H           2.8421    0.8122    0.7544 H       1  UNL1        0.0278
     38 H           2.8476    0.3529   -0.9484 H       1  UNL1        0.0278
     39 H           2.6862   -2.0708   -0.2849 H       1  UNL1        0.0465
     40 H           2.7810   -1.5917    1.4204 H       1  UNL1        0.0465
     41 H           6.5362   -5.2649    1.2635 H       1  UNL1        0.0475
     42 H           6.9985   -4.9914   -0.4325 H       1  UNL1        0.0475
     43 H           7.5463   -7.5391   -0.6210 H       1  UNL1        0.1487
     44 H           5.8968   -9.3632   -1.2282 H       1  UNL1        0.0471
     45 H           5.5242   -9.3902    0.4976 H       1  UNL1        0.0471
     46 H           8.3424   -9.8868   -0.6626 H       1  UNL1        0.0412
     47 H           8.1909   -6.8978    0.9098 H       1  UNL1        0.0626
     48 H           8.4879   -5.3737    2.5758 H       1  UNL1        0.0618
     49 H           9.2316   -6.0085    4.8064 H       1  UNL1        0.0620
     50 H           9.5809   -8.3849    5.4466 H       1  UNL1        0.0683
     51 H           9.3207  -10.8902    4.4138 H       1  UNL1        0.4459
     52 H           7.6633  -11.5911    2.6528 H       1  UNL1        0.1077
     53 H           9.3971  -11.5588    1.9672 H       1  UNL1        0.1077
     54 H           8.2567  -12.8191    1.2890 H       1  UNL1        0.0622
     55 H           7.9265  -14.8892    0.5712 H       1  UNL1        0.0654
     56 H           5.9546  -17.0156   -2.7339 H       1  UNL1        0.0660
     57 H           6.3031  -15.4170   -3.4171 H       1  UNL1        0.0660
     58 H           4.8244  -15.6838   -2.4077 H       1  UNL1        0.0660
     59 H           5.3990  -13.4201   -2.5612 H       1  UNL1        0.0654
     60 H           6.0146  -11.1668   -2.0613 H       1  UNL1        0.0622
     61 H           7.3000   -0.2714    1.3762 H       1  UNL1        0.1725
     62 H           5.0159    0.5955    1.0744 H       1  UNL1        0.1049
     63 H           6.0436   -0.4368   -1.3441 H       1  UNL1        0.2134
@<TRIPOS>UNITY_ATOM_ATTR
20 1
charge 1
@<TRIPOS>BOND
     1     1     2    1
     2     2     3    1
     3     3     4    1
     4     4     5    1
     5     5     6    1
     6     6     7    1
     7     7     8    1
     8     8     9    2
     9     8    10   am
    10    10    11    1
    11    11    12    1
    12    12    13    1
    13    13    14    2
    14    14    15   ar
    15    15    16   ar
    16    16    17   ar
    17    17    18   ar
    18    18    19   ar
    19    14    19   ar
    20    19    20    2
    21    20    21    1
    22    13    21    1
    23    12    22    1
    24    22    23   ar
    25    23    24   ar
    26    24    25   ar
    27    25    26    1
    28    26    27    1
    29    25    28   ar
    30    28    29   ar
    31    22    29   ar
    32     5    30    2
    33    30    31    1
    34    31    32    1
    35     4    32    1
    36    32    33    1
    37     1    34    1
    38     1    35    1
    39     1    36    1
    40     2    37    1
    41     2    38    1
    42     3    39    1
    43     3    40    1
    44     7    41    1
    45     7    42    1
    46    10    43    1
    47    11    44    1
    48    11    45    1
    49    12    46    1
    50    15    47    1
    51    16    48    1
    52    17    49    1
    53    18    50    1
    54    20    51    1
    55    21    52    1
    56    21    53    1
    57    23    54    1
    58    24    55    1
    59    27    56    1
    60    27    57    1
    61    27    58    1
    62    28    59    1
    63    29    60    1
    64    31    61    1
    65    32    62    1
    66    33    63    1
