REMARK  5 active torsions:
REMARK  status: ('A' for Active; 'I' for Inactive)
REMARK    1  A    between atoms: C_5  and  N_6 
REMARK       I    between atoms: N_6  and  C_7 
REMARK    2  A    between atoms: C_7  and  C_9 
REMARK    3  A    between atoms: C_10  and  C_11 
REMARK    4  A    between atoms: C_15  and  C_16 
REMARK    5  A    between atoms: C_21  and  O_22 
ROOT
ATOM      1  N   UNL d   1      -2.283  -2.049  -0.054  0.00  0.00    -0.321 N 
ATOM      2  C   UNL d   1      -2.249  -3.439  -0.069  0.00  0.00     0.245 C 
ATOM      3  O   UNL d   1      -1.242  -4.147  -0.074  0.00  0.00    -0.268 OA
ATOM      4  H   UNL d   1      -3.185  -1.601  -0.080  0.00  0.00     0.169 HD
ENDROOT
BRANCH   2   5
ATOM      5  C   UNL d   1      -3.571  -4.124  -0.084  0.00  0.00     0.075 C 
ATOM      6  C   UNL d   1      -3.575  -5.473  -0.069  0.00  0.00     0.017 C 
BRANCH   6   7
ATOM      7  C   UNL d   1      -4.782  -6.302  -0.145  0.00  0.00    -0.035 A 
ATOM      8  C   UNL d   1      -4.902  -7.482   0.601  0.00  0.00     0.011 A 
ATOM      9  C   UNL d   1      -6.006  -8.323   0.424  0.00  0.00     0.002 A 
ATOM     10  C   UNL d   1      -7.021  -7.965  -0.461  0.00  0.00     0.016 A 
ATOM     11  C   UNL d   1      -6.909  -6.795  -1.224  0.00  0.00     0.048 A 
ATOM     12  C   UNL d   1      -5.783  -5.978  -1.062  0.00  0.00     0.027 A 
BRANCH  11  13
ATOM     13  C   UNL d   1      -7.957  -6.438  -2.241  0.00  0.00     0.417 C 
ATOM     14  F   UNL d   1      -8.111  -7.405  -3.186  0.00  0.00    -0.166 F 
ATOM     15  F   UNL d   1      -9.184  -6.249  -1.684  0.00  0.00    -0.166 F 
ATOM     16  F   UNL d   1      -7.676  -5.291  -2.923  0.00  0.00    -0.166 F 
ENDBRANCH  11  13
ENDBRANCH   6   7
ENDBRANCH   2   5
BRANCH   1  17
ATOM     17  C   UNL d   1      -1.116  -1.211  -0.021  0.00  0.00     0.068 A 
ATOM     18  C   UNL d   1       0.170  -1.772   0.005  0.00  0.00     0.033 A 
ATOM     19  C   UNL d   1       1.336  -1.004   0.022  0.00  0.00     0.009 A 
ATOM     20  C   UNL d   1       1.259   0.380   0.005  0.00  0.00    -0.059 A 
ATOM     21  C   UNL d   1       2.499   1.219  -0.001  0.00  0.00     0.048 C 
ATOM     22  C   UNL d   1      -0.006   0.974  -0.009  0.00  0.00     0.045 A 
ATOM     23  C   UNL d   1      -1.179   0.195  -0.017  0.00  0.00     0.092 A 
BRANCH  23  24
ATOM     24  O   UNL d   1      -2.331   0.934  -0.019  0.00  0.00    -0.358 OA
ATOM     25  H   UNL d   1      -3.102   0.358   0.033  0.00  0.00     0.217 HD
ENDBRANCH  23  24
ENDBRANCH   1  17
TORSDOF 5
