REMARK  6 active torsions:
REMARK  status: ('A' for Active; 'I' for Inactive)
REMARK    1  A    between atoms: N_1  and  C_2 
REMARK    2  A    between atoms: C_3  and  C_4 
REMARK       I    between atoms: C_4  and  N_6 
REMARK    3  A    between atoms: N_6  and  C_7 
REMARK    4  A    between atoms: N_26  and  C_27 
REMARK    5  A    between atoms: C_27  and  C_28 
REMARK    6  A    between atoms: C_28  and  C_29 
ROOT
ATOM      1  C   UNL d   1       2.292  -0.116  -0.070  0.00  0.00     0.118 A 
ATOM      2  C   UNL d   1       3.031  -1.346  -0.082  0.00  0.00     0.077 A 
ATOM      3  C   UNL d   1       4.414  -1.327  -0.065  0.00  0.00     0.042 A 
ATOM      4  C   UNL d   1       5.064  -0.099  -0.053  0.00  0.00     0.080 A 
ATOM      5  C   UNL d   1       6.529  -0.047  -0.046  0.00  0.00     0.267 A 
ATOM      6  O   UNL d   1       7.136  -1.121  -0.044  0.00  0.00    -0.267 OA
ATOM      7  N   UNL d   1       7.113   1.208  -0.043  0.00  0.00    -0.273 N 
ATOM      8  C   UNL d   1       8.505   1.287  -0.037  0.00  0.00     0.102 A 
ATOM      9  C   UNL d   1       9.149   2.458  -0.035  0.00  0.00     0.018 A 
ATOM     10  C   UNL d   1       8.396   3.683  -0.038  0.00  0.00     0.005 A 
ATOM     11  C   UNL d   1       7.056   3.663  -0.043  0.00  0.00     0.051 A 
ATOM     12  C   UNL d   1       6.322   2.358  -0.047  0.00  0.00     0.139 A 
ATOM     13  N   UNL d   1       5.018   2.341  -0.053  0.00  0.00    -0.212 NA
ATOM     14  C   UNL d   1       4.358   1.097  -0.057  0.00  0.00     0.149 A 
ATOM     15  N   UNL d   1       2.981   1.085  -0.065  0.00  0.00    -0.316 N 
ENDROOT
BRANCH   2  16
ATOM     16  C   UNL d   1       2.251  -2.633  -0.135  0.00  0.00     0.260 C 
ATOM     17  O   UNL d   1       1.022  -2.564  -0.095  0.00  0.00    -0.267 OA
ATOM     18  N   UNL d   1       2.897  -3.852  -0.173  0.00  0.00    -0.321 N 
ATOM     19  H   UNL d   1       3.846  -3.942   0.166  0.00  0.00     0.169 HD
BRANCH  18  20
ATOM     20  C   UNL d   1       2.116  -5.046  -0.143  0.00  0.00     0.056 A 
ATOM     21  C   UNL d   1       0.949  -5.152  -0.916  0.00  0.00     0.031 A 
ATOM     22  C   UNL d   1       0.085  -6.233  -0.759  0.00  0.00     0.002 A 
ATOM     23  C   UNL d   1       0.434  -7.275   0.092  0.00  0.00     0.002 A 
ATOM     24  C   UNL d   1       1.651  -7.239   0.776  0.00  0.00     0.026 A 
ATOM     25  C   UNL d   1       2.470  -6.109   0.693  0.00  0.00     0.060 A 
ATOM     26 CL   UNL d   1       3.842  -5.996   1.738  0.00  0.00    -0.082 Cl
ENDBRANCH  18  20
ENDBRANCH   2  16
BRANCH   1  27
ATOM     27  N   UNL d   1       0.909  -0.220  -0.076  0.00  0.00    -0.384 N 
ATOM     28  H   UNL d   1       0.532  -1.176  -0.050  0.00  0.00     0.157 HD
ATOM     29  H   UNL d   1       0.128   0.400  -0.064  0.00  0.00     0.157 HD
ENDBRANCH   1  27
BRANCH  15  30
ATOM     30  C   UNL d   1       2.316   2.439  -0.072  0.00  0.00     0.137 C 
BRANCH  30  31
ATOM     31  C   UNL d   1       0.802   2.399  -0.069  0.00  0.00     0.059 C 
BRANCH  31  32
ATOM     32  C   UNL d   1      -0.018   3.631  -0.105  0.00  0.00    -0.057 C 
ATOM     33  C   UNL d   1      -1.402   3.512  -0.335  0.00  0.00     0.007 C 
ATOM     34  C   UNL d   1      -2.151   4.655  -0.559  0.00  0.00     0.001 C 
ATOM     35  C   UNL d   1      -1.546   5.901  -0.416  0.00  0.00     0.000 C 
ATOM     36  C   UNL d   1      -0.210   6.006  -0.033  0.00  0.00     0.001 C 
ATOM     37  C   UNL d   1       0.569   4.873   0.073  0.00  0.00     0.007 C 
ENDBRANCH  31  32
ENDBRANCH  30  31
ENDBRANCH  15  30
TORSDOF 6
