@<TRIPOS>MOLECULE
*****
 48 49 0 0 0
SMALL
GASTEIGER

@<TRIPOS>ATOM
      1 C           1.0760    0.0672    0.0858 C.3     1  UNL1       -0.0570
      2 C           2.6019   -0.0050    0.0548 C.3     1  UNL1        0.0215
      3 C           3.0422   -1.3598   -0.4745 C.2     1  UNL1        0.2169
      4 O           2.2109   -2.2093   -0.7872 O.2     1  UNL1       -0.2755
      5 N           4.4183   -1.5670   -0.4979 N.am    1  UNL1       -0.2854
      6 C           4.9798   -2.7741   -0.9803 C.ar    1  UNL1        0.0351
      7 C           6.0748   -3.3658   -0.3706 C.ar    1  UNL1       -0.0404
      8 C           6.6091   -4.5448   -0.9137 C.ar    1  UNL1       -0.0583
      9 C           6.0472   -5.1388   -2.0643 C.ar    1  UNL1       -0.0403
     10 C           4.9637   -4.5300   -2.7059 C.ar    1  UNL1        0.0365
     11 N           4.4256   -5.0487   -3.9249 N.am    1  UNL1       -0.2694
     12 C           3.4191   -4.4202   -4.6443 C.2     1  UNL1        0.3039
     13 O           2.8372   -3.3903   -4.3454 O.2     1  UNL1       -0.2525
     14 N           3.1008   -5.0037   -5.8453 N.am    1  UNL1       -0.2977
     15 C           1.9999   -4.3838   -6.5928 C.3     1  UNL1        0.0285
     16 C           1.7508   -5.0599   -7.9303 C.3     1  UNL1        0.0249
     17 N           0.6075   -4.5061   -8.6474 N.pl3   1  UNL1       -0.3371
     18 C           0.0205   -5.1728   -9.7147 C.ar    1  UNL1        0.1054
     19 C          -0.2544   -4.4038  -10.8684 C.ar    1  UNL1       -0.0342
     20 C          -0.7916   -4.9720  -12.0320 C.ar    1  UNL1       -0.0596
     21 C          -1.0170   -6.3400  -12.0948 C.ar    1  UNL1       -0.0552
     22 C          -0.7839   -7.1231  -10.9697 C.ar    1  UNL1        0.0175
     23 C          -0.3020   -6.5440   -9.7789 C.ar    1  UNL1        0.2937
     24 N          -0.2435   -7.4412   -8.6150 N.pl3   1  UNL1        0.0815
     25 O          -0.0584   -8.6480   -8.8405 O.2     1  UNL1        0.0415
     26 O          -0.4100   -6.9730   -7.4798 O.co2   1  UNL1       -0.5760
     27 C           4.4521   -3.3662   -2.1257 C.ar    1  UNL1       -0.0192
     28 H           0.7260    1.0272    0.4737 H       1  UNL1        0.0234
     29 H           0.6628   -0.7265    0.7201 H       1  UNL1        0.0234
     30 H           0.6585   -0.0693   -0.9189 H       1  UNL1        0.0234
     31 H           2.9930    0.1306    1.0684 H       1  UNL1        0.0356
     32 H           2.9945    0.7913   -0.5860 H       1  UNL1        0.0356
     33 H           5.0292   -0.9169   -0.0240 H       1  UNL1        0.1548
     34 H           6.4703   -2.9692    0.5594 H       1  UNL1        0.0636
     35 H           7.4715   -5.0032   -0.4325 H       1  UNL1        0.0619
     36 H           6.4800   -6.0665   -2.4301 H       1  UNL1        0.0636
     37 H           4.8421   -5.8875   -4.2991 H       1  UNL1        0.1564
     38 H           3.3962   -5.9422   -6.0617 H       1  UNL1        0.1503
     39 H           2.2440   -3.3253   -6.7528 H       1  UNL1        0.0478
     40 H           1.0949   -4.4056   -5.9671 H       1  UNL1        0.0478
     41 H           1.6605   -6.1237   -7.7221 H       1  UNL1        0.0476
     42 H           2.6358   -4.9695   -8.5654 H       1  UNL1        0.0476
     43 H           0.0966   -3.7217   -8.2461 H       1  UNL1        0.1463
     44 H          -0.0068   -3.3420  -10.8886 H       1  UNL1        0.0638
     45 H          -1.0210   -4.3482  -12.8939 H       1  UNL1        0.0618
     46 H          -1.3850   -6.7989  -13.0088 H       1  UNL1        0.0620
     47 H          -1.0011   -8.1878  -11.0201 H       1  UNL1        0.0686
     48 H           3.6229   -2.8431   -2.5747 H       1  UNL1        0.0655
@<TRIPOS>UNITY_ATOM_ATTR
24 1
charge 1
26 1
charge -1
@<TRIPOS>BOND
     1     1     2    1
     2     2     3    1
     3     3     4    2
     4     3     5   am
     5     5     6    1
     6     6     7   ar
     7     7     8   ar
     8     8     9   ar
     9     9    10   ar
    10    10    11    1
    11    11    12   am
    12    12    13    2
    13    12    14   am
    14    14    15    1
    15    15    16    1
    16    16    17    1
    17    17    18    1
    18    18    19   ar
    19    19    20   ar
    20    20    21   ar
    21    21    22   ar
    22    22    23   ar
    23    18    23   ar
    24    23    24    1
    25    24    25    2
    26    24    26    1
    27    10    27   ar
    28     6    27   ar
    29     1    28    1
    30     1    29    1
    31     1    30    1
    32     2    31    1
    33     2    32    1
    34     5    33    1
    35     7    34    1
    36     8    35    1
    37     9    36    1
    38    11    37    1
    39    14    38    1
    40    15    39    1
    41    15    40    1
    42    16    41    1
    43    16    42    1
    44    17    43    1
    45    19    44    1
    46    20    45    1
    47    21    46    1
    48    22    47    1
    49    27    48    1
