@<TRIPOS>MOLECULE
*****
 34 36 0 0 0
SMALL
GASTEIGER

@<TRIPOS>ATOM
      1 O           1.0291   -0.0893    0.1858 O.2     1  UNL1       -0.2685
      2 C           2.2581   -0.1090    0.1353 C.2     1  UNL1        0.2637
      3 N           2.9912   -1.2776    0.1735 N.am    1  UNL1       -0.2300
      4 N           2.3260   -2.5165    0.1490 N.am    1  UNL1       -0.2297
      5 C           3.0765   -3.6767    0.2017 C.2     1  UNL1        0.2682
      6 O           4.3120   -3.6292    0.2410 O.2     1  UNL1       -0.2680
      7 C           2.3293   -4.9149    0.2605 C.ar    1  UNL1        0.0947
      8 S           2.8747   -6.0932    1.3681 S.2     1  UNL1       -0.0822
      9 C           1.6494   -7.2036    0.9256 C.ar    1  UNL1        0.0215
     10 C           1.4662   -8.4844    1.4772 C.ar    1  UNL1       -0.0474
     11 C           0.4283   -9.2810    1.0019 C.ar    1  UNL1       -0.0607
     12 C          -0.4067   -8.8170   -0.0041 C.ar    1  UNL1       -0.0611
     13 C          -0.2222   -7.5389   -0.5493 C.ar    1  UNL1       -0.0521
     14 C           0.8228   -6.6964   -0.0798 C.ar    1  UNL1        0.0083
     15 C           1.2314   -5.3585   -0.4497 C.ar    1  UNL1        0.0679
     16 CL          0.4338   -4.4704   -1.6873 Cl      1  UNL1       -0.0816
     17 C           3.0273    1.1667    0.0452 C.ar    1  UNL1        0.0795
     18 C           2.5724    2.2796    0.7711 C.ar    1  UNL1       -0.0460
     19 C           3.1461    3.5404    0.5709 C.ar    1  UNL1       -0.0608
     20 C           4.2372    3.6798   -0.2845 C.ar    1  UNL1       -0.0583
     21 C           4.7649    2.5584   -0.9286 C.ar    1  UNL1       -0.0194
     22 C           4.1309    1.3172   -0.8023 C.ar    1  UNL1        0.1290
     23 O           4.5763    0.2522   -1.5354 O.3     1  UNL1       -0.5060
     24 H           4.0056   -1.2938    0.0625 H       1  UNL1        0.1731
     25 H           1.3080   -2.4965    0.1672 H       1  UNL1        0.1731
     26 H           2.1277   -8.8442    2.2607 H       1  UNL1        0.0629
     27 H           0.2807  -10.2713    1.4257 H       1  UNL1        0.0618
     28 H          -1.2107   -9.4514   -0.3702 H       1  UNL1        0.0618
     29 H          -0.8914   -7.1994   -1.3380 H       1  UNL1        0.0624
     30 H           1.7616    2.1716    1.4886 H       1  UNL1        0.0626
     31 H           2.7402    4.4142    1.0774 H       1  UNL1        0.0618
     32 H           4.6767    4.6628   -0.4457 H       1  UNL1        0.0619
     33 H           5.6608    2.6765   -1.5315 H       1  UNL1        0.0654
     34 H           5.2358    0.5551   -2.1828 H       1  UNL1        0.2922
@<TRIPOS>BOND
     1     1     2    2
     2     2     3   am
     3     3     4    1
     4     4     5   am
     5     5     6    2
     6     5     7    1
     7     7     8   ar
     8     8     9   ar
     9     9    10   ar
    10    10    11   ar
    11    11    12   ar
    12    12    13   ar
    13    13    14   ar
    14     9    14   ar
    15    14    15   ar
    16     7    15   ar
    17    15    16    1
    18     2    17    1
    19    17    18   ar
    20    18    19   ar
    21    19    20   ar
    22    20    21   ar
    23    21    22   ar
    24    17    22   ar
    25    22    23    1
    26     3    24    1
    27     4    25    1
    28    10    26    1
    29    11    27    1
    30    12    28    1
    31    13    29    1
    32    18    30    1
    33    19    31    1
    34    20    32    1
    35    21    33    1
    36    23    34    1
