REMARK  9 active torsions:
REMARK  status: ('A' for Active; 'I' for Inactive)
REMARK    1  A    between atoms: O_2  and  C_3 
REMARK    2  A    between atoms: C_3  and  C_4 
REMARK    3  A    between atoms: C_4  and  O_5 
REMARK    4  A    between atoms: O_5  and  C_6 
REMARK    5  A    between atoms: C_12  and  C_13 
REMARK       I    between atoms: C_13  and  N_15 
REMARK    6  A    between atoms: N_15  and  C_16 
REMARK    7  A    between atoms: C_16  and  N_18 
REMARK    8  A    between atoms: N_18  and  C_19 
REMARK    9  A    between atoms: C_25  and  O_26 
ROOT
ATOM      1  C   UNL d   1       5.964   4.649   2.004  0.00  0.00     0.260 C 
ATOM      2  O   UNL d   1       6.635   5.459   2.658  0.00  0.00    -0.267 OA
ATOM      3  N   UNL d   1       4.569   4.476   2.154  0.00  0.00    -0.299 N 
ATOM      4  H   UNL d   1       4.135   3.829   1.508  0.00  0.00     0.171 HD
ENDROOT
BRANCH   3   5
ATOM      5  C   UNL d   1       3.764   5.105   3.134  0.00  0.00     0.179 C 
ATOM      6  S   UNL d   1       4.432   6.090   4.347  0.00  0.00    -0.040 SA
BRANCH   5   7
ATOM      7  N   UNL d   1       2.369   4.829   3.036  0.00  0.00    -0.331 N 
ATOM      8  H   UNL d   1       2.057   3.939   2.665  0.00  0.00     0.168 HD
BRANCH   7   9
ATOM      9  C   UNL d   1       1.407   5.478   3.902  0.00  0.00     0.068 C 
ATOM     10  C   UNL d   1       1.458   6.873   4.024  0.00  0.00     0.039 C 
ATOM     11  C   UNL d   1       0.738   7.573   4.996  0.00  0.00    -0.060 C 
ATOM     12  C   UNL d   1       1.004   9.036   5.198  0.00  0.00     0.048 C 
ATOM     13  C   UNL d   1      -0.171   6.877   5.790  0.00  0.00     0.009 C 
ATOM     14  C   UNL d   1      -0.321   5.495   5.626  0.00  0.00     0.039 C 
ATOM     15  C   UNL d   1       0.467   4.795   4.689  0.00  0.00     0.092 C 
BRANCH  15  16
ATOM     16  O   UNL d   1       0.356   3.431   4.614  0.00  0.00    -0.358 OA
ATOM     17  H   UNL d   1      -0.246   3.144   5.326  0.00  0.00     0.217 HD
ENDBRANCH  15  16
ENDBRANCH   7   9
ENDBRANCH   5   7
ENDBRANCH   3   5
BRANCH   1  18
ATOM     18  C   UNL d   1       6.773   3.873   1.017  0.00  0.00     0.067 A 
ATOM     19  C   UNL d   1       8.166   4.146   0.987  0.00  0.00     0.039 A 
ATOM     20  C   UNL d   1       9.017   3.476   0.115  0.00  0.00     0.012 A 
ATOM     21  C   UNL d   1       8.503   2.516  -0.742  0.00  0.00     0.022 A 
ATOM     22 BR   UNL d   1      10.865   3.878   0.083  0.00  0.00    -0.051 Br
ATOM     23  C   UNL d   1       7.131   2.236  -0.727  0.00  0.00     0.039 A 
ATOM     24  C   UNL d   1       6.262   2.903   0.153  0.00  0.00     0.084 A 
BRANCH  24  25
ATOM     25  O   UNL d   1       4.909   2.715   0.128  0.00  0.00    -0.348 OA
BRANCH  25  26
ATOM     26  C   UNL d   1       4.493   1.348   0.090  0.00  0.00     0.201 C 
BRANCH  26  27
ATOM     27  C   UNL d   1       2.971   1.355   0.103  0.00  0.00     0.193 C 
BRANCH  27  28
ATOM     28  O   UNL d   1       2.477   0.023   0.072  0.00  0.00    -0.394 OA
ATOM     29  C   UNL d   1       1.055   0.014   0.072  0.00  0.00     0.201 C 
ENDBRANCH  27  28
ENDBRANCH  26  27
ENDBRANCH  25  26
ENDBRANCH  24  25
ENDBRANCH   1  18
TORSDOF 9
