REMARK  4 active torsions:
REMARK  status: ('A' for Active; 'I' for Inactive)
REMARK    1  A    between atoms: C_4  and  N_5 
REMARK       I    between atoms: N_5  and  C_6 
REMARK       I    between atoms: C_6  and  N_8 
REMARK    2  A    between atoms: N_8  and  C_9 
REMARK    3  A    between atoms: C_9  and  C_10 
REMARK    4  A    between atoms: C_10  and  C_11 
ROOT
ATOM      1  N   UNL d   1      -2.521  -1.631   0.021  0.00  0.00    -0.291 N 
ATOM      2  C   UNL d   1      -2.448  -3.000   0.032  0.00  0.00     0.321 C 
ATOM      3  O   UNL d   1      -1.400  -3.648   0.027  0.00  0.00    -0.247 OA
ATOM      4  N   UNL d   1      -3.655  -3.662   0.049  0.00  0.00    -0.343 N 
ATOM      5  H   UNL d   1      -3.401  -1.140   0.031  0.00  0.00     0.172 HD
ATOM      6  H   UNL d   1      -4.537  -3.173   0.056  0.00  0.00     0.164 HD
ENDROOT
BRANCH   1   7
ATOM      7  C   UNL d   1      -1.381  -0.832   0.007  0.00  0.00     0.161 A 
ATOM      8  C   UNL d   1      -0.036  -1.265  -0.005  0.00  0.00     0.087 A 
ATOM      9  C   UNL d   1       0.722  -0.129  -0.002  0.00  0.00     0.078 A 
ATOM     10  C   UNL d   1       2.181   0.083   0.001  0.00  0.00     0.079 C 
ATOM     11  O   UNL d   1      -0.108   0.949   0.002  0.00  0.00    -0.216 OA
ATOM     12  N   UNL d   1      -1.435   0.508   0.007  0.00  0.00    -0.110 NA
ENDBRANCH   1   7
BRANCH   4  13
ATOM     13  C   UNL d   1      -3.609  -5.114   0.060  0.00  0.00     0.125 C 
BRANCH  13  14
ATOM     14  C   UNL d   1      -4.970  -5.810   0.079  0.00  0.00     0.028 C 
BRANCH  14  15
ATOM     15  C   UNL d   1      -4.872  -7.366   0.089  0.00  0.00    -0.050 C 
ATOM     16  C   UNL d   1      -4.149  -7.877  -1.170  0.00  0.00     0.014 C 
ATOM     17  C   UNL d   1      -4.123  -7.859   1.339  0.00  0.00     0.014 C 
ATOM     18  C   UNL d   1      -6.290  -7.967   0.108  0.00  0.00     0.014 C 
ENDBRANCH  14  15
ENDBRANCH  13  14
ENDBRANCH   4  13
TORSDOF 4
