REMARK  4 active torsions:
REMARK  status: ('A' for Active; 'I' for Inactive)
REMARK    1  A    between atoms: C_2  and  C_3 
REMARK    2  A    between atoms: C_3  and  C_4 
REMARK    3  A    between atoms: C_6  and  C_7 
REMARK       I    between atoms: C_7  and  N_9 
REMARK    4  A    between atoms: N_9  and  C_10 
ROOT
ATOM      1  C   UNL d   1       4.535  -1.010  -1.159  0.00  0.00     0.057 A 
ATOM      2  C   UNL d   1       5.296  -0.165  -1.997  0.00  0.00     0.065 A 
ATOM      3  C   UNL d   1       6.618  -0.439  -1.716  0.00  0.00     0.119 A 
ATOM      4  N   UNL d   1       6.568  -1.412  -0.744  0.00  0.00    -0.273 N 
ATOM      5  N   UNL d   1       5.317  -1.776  -0.392  0.00  0.00    -0.179 NA
ATOM      6  H   UNL d   1       7.353  -1.864  -0.282  0.00  0.00     0.189 HD
ENDROOT
BRANCH   3   7
ATOM      7  C   UNL d   1       7.857   0.092  -2.233  0.00  0.00     0.270 C 
ATOM      8  O   UNL d   1       8.944  -0.313  -1.819  0.00  0.00    -0.266 OA
ATOM      9  N   UNL d   1       7.751   1.076  -3.213  0.00  0.00    -0.351 N 
ATOM     10  H   UNL d   1       6.834   1.378  -3.512  0.00  0.00     0.163 HD
BRANCH   9  11
ATOM     11  C   UNL d   1       8.906   1.693  -3.810  0.00  0.00     0.085 A 
ATOM     12  C   UNL d   1       8.981   1.978  -5.289  0.00  0.00     0.027 A 
ATOM     13  C   UNL d   1       8.900   3.115  -4.313  0.00  0.00     0.027 A 
ENDBRANCH   9  11
ENDBRANCH   3   7
BRANCH   1  14
ATOM     14  C   UNL d   1       3.046  -1.066  -1.082  0.00  0.00     0.061 C 
BRANCH  14  15
ATOM     15  C   UNL d   1       2.494  -0.052  -0.080  0.00  0.00     0.002 C 
ATOM     16  C   UNL d   1       0.975  -0.044  -0.082  0.00  0.00     0.005 C 
ENDBRANCH  14  15
ENDBRANCH   1  14
TORSDOF 4
