REMARK  5 active torsions:
REMARK  status: ('A' for Active; 'I' for Inactive)
REMARK    1  A    between atoms: C_3  and  C_2 
REMARK    2  A    between atoms: C_3  and  C_18 
REMARK    3  A    between atoms: C_3  and  N_4 
REMARK       I    between atoms: N_4  and  C_5 
REMARK    4  A    between atoms: C_5  and  C_7 
REMARK    5  A    between atoms: C_12  and  N_13 
REMARK       I    between atoms: N_13  and  C_14 
ROOT
ATOM      1  N   UNL d   1       2.320   0.312   0.127  0.00  0.00    -0.345 N 
ATOM      2  C   UNL d   1       0.936   0.410  -0.162  0.00  0.00     0.252 C 
ATOM      3  O   UNL d   1       0.066   0.217   0.705  0.00  0.00    -0.268 OA
ATOM      4  H   UNL d   1       3.017   0.531  -0.566  0.00  0.00     0.163 HD
ENDROOT
BRANCH   1   5
ATOM      5  C   UNL d   1       2.916  -0.388   1.316  0.00  0.00     0.154 C 
BRANCH   5   6
ATOM      6  C   UNL d   1       4.456  -0.333   1.240  0.00  0.00     0.127 A 
ATOM      7  N   UNL d   1       5.230   0.710   1.498  0.00  0.00    -0.231 NA
ATOM      8  C   UNL d   1       6.530   0.270   1.369  0.00  0.00     0.084 A 
ATOM      9  C   UNL d   1       7.713   1.066   1.603  0.00  0.00    -0.006 A 
ATOM     10  C   UNL d   1       6.566  -1.065   1.049  0.00  0.00     0.122 A 
ATOM     11  C   UNL d   1       8.696   1.184   0.612  0.00  0.00     0.014 A 
ATOM     12  C   UNL d   1       7.918   1.657   2.853  0.00  0.00     0.014 A 
ATOM     13  C   UNL d   1       9.895   1.842   0.887  0.00  0.00     0.001 A 
ATOM     14  C   UNL d   1      10.088   2.442   2.131  0.00  0.00     0.000 A 
ATOM     15  C   UNL d   1       9.102   2.350   3.113  0.00  0.00     0.001 A 
ATOM     16  N   UNL d   1       5.256  -1.431   0.953  0.00  0.00    -0.350 N 
ATOM     17  H   UNL d   1       4.946  -2.372   0.759  0.00  0.00     0.166 HD
ENDBRANCH   5   6
BRANCH   5  18
ATOM     18  C   UNL d   1       2.454  -1.873   1.436  0.00  0.00     0.028 C 
ATOM     19  C   UNL d   1       1.866  -2.329   0.113  0.00  0.00     0.007 C 
ENDBRANCH   5  18
ENDBRANCH   1   5
BRANCH   2  20
ATOM     20  C   UNL d   1       0.453   0.629  -1.591  0.00  0.00     0.034 C 
ATOM     21  C   UNL d   1      -0.860   0.513  -2.031  0.00  0.00     0.017 C 
ATOM     22  C   UNL d   1      -1.192   0.865  -3.360  0.00  0.00     0.010 C 
ATOM     23  C   UNL d   1      -0.215   1.338  -4.274  0.00  0.00    -0.035 C 
ATOM     24  C   UNL d   1      -0.655   1.776  -5.647  0.00  0.00     0.050 C 
ATOM     25  C   UNL d   1       1.124   1.363  -3.858  0.00  0.00     0.041 C 
ATOM     26  C   UNL d   1       1.382   0.929  -2.566  0.00  0.00     0.047 C 
BRANCH  25  27
ATOM     27  N   UNL d   1       2.177   1.817  -4.690  0.00  0.00    -0.327 N 
ATOM     28  C   UNL d   1       3.526   1.983  -4.503  0.00  0.00     0.218 C 
ATOM     29  C   UNL d   1       4.314   1.637  -3.256  0.00  0.00     0.117 C 
ATOM     30  O   UNL d   1       4.167   2.451  -5.456  0.00  0.00    -0.274 OA
ATOM     31  H   UNL d   1       1.912   2.151  -5.612  0.00  0.00     0.169 HD
ENDBRANCH  25  27
ENDBRANCH   2  20
TORSDOF 5
