REMARK  4 active torsions:
REMARK  status: ('A' for Active; 'I' for Inactive)
REMARK    1  A    between atoms: C_4  and  N_5 
REMARK    2  A    between atoms: N_5  and  C_6 
REMARK    3  A    between atoms: C_10  and  C_11 
REMARK    4  A    between atoms: C_18  and  C_19 
ROOT
ATOM      1  O   UNL d   1       0.974   0.071  -0.110  0.00  0.00    -0.265 OA
ATOM      2  C   UNL d   1       2.202   0.051  -0.126  0.00  0.00     0.291 A 
ATOM      3  N   UNL d   1       2.962   1.182  -0.114  0.00  0.00    -0.151 N 
ATOM      4  C   UNL d   1       4.330   1.140  -0.104  0.00  0.00     0.726 A 
ATOM      5  N   UNL d   1       4.953  -0.003  -0.086  0.00  0.00     0.043 NA
ATOM      6  N   UNL d   1       4.275  -1.233  -0.086  0.00  0.00    -0.128 NA
ATOM      7  C   UNL d   1       2.978  -1.244  -0.131  0.00  0.00     0.158 A 
ATOM      8  H   UNL d   1       2.458   2.052  -0.097  0.00  0.00     0.188 HD
ENDROOT
BRANCH   4   9
ATOM      9  N   UNL d   1       4.983   2.361  -0.101  0.00  0.00    -0.188 N 
ATOM     10  H   UNL d   1       4.472   3.221   0.032  0.00  0.00     0.184 HD
BRANCH   9  11
ATOM     11  C   UNL d   1       6.388   2.487  -0.098  0.00  0.00     0.050 C 
ATOM     12  C   UNL d   1       7.148   1.924  -1.130  0.00  0.00     0.030 C 
ATOM     13  C   UNL d   1       8.542   1.916  -1.082  0.00  0.00     0.003 C 
ATOM     14  C   UNL d   1       9.192   2.357   0.064  0.00  0.00     0.016 C 
ATOM     15  C   UNL d   1       8.459   2.934   1.112  0.00  0.00     0.050 C 
ATOM     16  C   UNL d   1       7.063   3.080   0.979  0.00  0.00     0.046 C 
BRANCH  15  17
ATOM     17  C   UNL d   1       9.176   3.303   2.387  0.00  0.00     0.417 C 
ATOM     18  F   UNL d   1       9.753   2.223   2.988  0.00  0.00    -0.166 F 
ATOM     19  F   UNL d   1      10.185   4.195   2.183  0.00  0.00    -0.166 F 
ATOM     20  F   UNL d   1       8.366   3.861   3.328  0.00  0.00    -0.166 F 
ENDBRANCH  15  17
ENDBRANCH   9  11
ENDBRANCH   4   9
BRANCH   7  21
ATOM     21  C   UNL d   1       2.234  -2.529  -0.140  0.00  0.00     0.000 A 
ATOM     22  C   UNL d   1       1.302  -2.809  -1.145  0.00  0.00     0.014 A 
ATOM     23  C   UNL d   1       0.488  -3.941  -1.045  0.00  0.00     0.001 A 
ATOM     24  C   UNL d   1       0.677  -4.849  -0.004  0.00  0.00     0.000 A 
ATOM     25  C   UNL d   1       1.692  -4.634   0.929  0.00  0.00     0.001 A 
ATOM     26  C   UNL d   1       2.443  -3.454   0.889  0.00  0.00     0.014 A 
ENDBRANCH   7  21
TORSDOF 4
