@<TRIPOS>MOLECULE
*****
 35 37 0 0 0
SMALL
GASTEIGER

@<TRIPOS>ATOM
      1 O           0.9874   -0.2023   -0.0108 O.2     1  UNL1       -0.2685
      2 C           2.2203   -0.1348    0.0100 C.2     1  UNL1        0.2636
      3 N           2.9908   -0.8829    0.8939 N.am    1  UNL1       -0.2323
      4 N           2.3182   -1.7441    1.7773 N.pl3   1  UNL1       -0.2615
      5 C           3.0422   -2.5199    2.6910 C.ar    1  UNL1        0.0797
      6 C           4.1268   -1.9785    3.3945 C.ar    1  UNL1       -0.0339
      7 C           4.8874   -2.7626    4.2691 C.ar    1  UNL1       -0.0245
      8 C           4.5854   -4.1090    4.4305 C.ar    1  UNL1        0.1262
      9 F           5.3354   -4.8585    5.2495 F       1  UNL1       -0.2054
     10 C           3.5214   -4.6826    3.7524 C.ar    1  UNL1        0.0107
     11 C           2.7537   -3.8846    2.8997 C.ar    1  UNL1        0.1483
     12 F           1.7320   -4.4627    2.2483 F       1  UNL1       -0.2034
     13 C           2.9414    0.7622   -0.9502 C.ar    1  UNL1        0.0801
     14 C           3.9780    0.2814   -1.7689 C.ar    1  UNL1       -0.0383
     15 C           4.5906    1.1121   -2.7426 C.ar    1  UNL1       -0.0169
     16 C           5.6202    0.6456   -3.5836 C.ar    1  UNL1       -0.0540
     17 C           6.2224    1.4807   -4.5317 C.ar    1  UNL1       -0.0612
     18 C           5.8055    2.8004   -4.6603 C.ar    1  UNL1       -0.0612
     19 C           4.7751    3.2811   -3.8501 C.ar    1  UNL1       -0.0539
     20 C           4.1561    2.4509   -2.8919 C.ar    1  UNL1       -0.0144
     21 C           3.1134    2.9217   -2.0761 C.ar    1  UNL1       -0.0117
     22 C           2.5205    2.0881   -1.1176 C.ar    1  UNL1        0.1296
     23 O           1.5411    2.5965   -0.3088 O.3     1  UNL1       -0.5060
     24 H           4.0036   -0.9033    0.8798 H       1  UNL1        0.1730
     25 H           1.3099   -1.8603    1.6548 H       1  UNL1        0.1701
     26 H           4.3525   -0.9197    3.3012 H       1  UNL1        0.0638
     27 H           5.7123   -2.3273    4.8244 H       1  UNL1        0.0647
     28 H           3.3001   -5.7369    3.8786 H       1  UNL1        0.0675
     29 H           4.2943   -0.7556   -1.6856 H       1  UNL1        0.0632
     30 H           5.9667   -0.3828   -3.5097 H       1  UNL1        0.0624
     31 H           7.0177    1.0994   -5.1688 H       1  UNL1        0.0618
     32 H           6.2791    3.4534   -5.3908 H       1  UNL1        0.0618
     33 H           4.4615    4.3164   -3.9743 H       1  UNL1        0.0624
     34 H           2.7675    3.9462   -2.1941 H       1  UNL1        0.0660
     35 H           1.2788    3.4805   -0.6098 H       1  UNL1        0.2922
@<TRIPOS>BOND
     1     1     2    2
     2     2     3   am
     3     3     4    1
     4     4     5    1
     5     5     6   ar
     6     6     7   ar
     7     7     8   ar
     8     8     9    1
     9     8    10   ar
    10    10    11   ar
    11     5    11   ar
    12    11    12    1
    13     2    13    1
    14    13    14   ar
    15    14    15   ar
    16    15    16   ar
    17    16    17   ar
    18    17    18   ar
    19    18    19   ar
    20    19    20   ar
    21    15    20   ar
    22    20    21   ar
    23    21    22   ar
    24    13    22   ar
    25    22    23    1
    26     3    24    1
    27     4    25    1
    28     6    26    1
    29     7    27    1
    30    10    28    1
    31    14    29    1
    32    16    30    1
    33    17    31    1
    34    18    32    1
    35    19    33    1
    36    21    34    1
    37    23    35    1
