REMARK  16 active torsions:
REMARK  status: ('A' for Active; 'I' for Inactive)
REMARK    1  A    between atoms: C_2  and  C_3 
REMARK    2  A    between atoms: C_3  and  C_4 
REMARK    3  A    between atoms: C_4  and  C_5 
REMARK    4  A    between atoms: C_5  and  C_6 
REMARK    5  A    between atoms: C_6  and  N_7 
REMARK       I    between atoms: N_7  and  C_8 
REMARK    6  A    between atoms: N_7  and  C_18 
REMARK    7  A    between atoms: C_8  and  C_10 
REMARK    8  A    between atoms: C_11  and  C_12 
REMARK    9  A    between atoms: C_18  and  C_19 
REMARK   10  A    between atoms: C_18  and  C_26 
REMARK       I    between atoms: C_19  and  N_21 
REMARK   11  A    between atoms: N_21  and  C_22 
REMARK   12  A    between atoms: C_22  and  C_23 
REMARK   13  A    between atoms: C_23  and  C_24 
REMARK   14  A    between atoms: C_27  and  O_28 
REMARK   15  A    between atoms: C_30  and  O_31 
REMARK   16  A    between atoms: C_33  and  O_34 
ROOT
ATOM      1  C   UNL d   1       8.574  -0.158   4.488  0.00  0.00     0.219 C 
ENDROOT
BRANCH   1   2
ATOM      2  N   UNL d   1       7.093  -0.226   4.255  0.00  0.00    -0.324 N 
ATOM      3  C   UNL d   1       6.164  -0.378   5.300  0.00  0.00     0.299 C 
ATOM      4  O   UNL d   1       5.228  -1.168   5.269  0.00  0.00    -0.258 OA
BRANCH   2   5
ATOM      5  C   UNL d   1       6.591  -0.249   2.878  0.00  0.00     0.128 C 
BRANCH   5   6
ATOM      6  C   UNL d   1       5.081  -0.223   2.754  0.00  0.00     0.020 C 
BRANCH   6   7
ATOM      7  C   UNL d   1       4.612  -0.108   1.325  0.00  0.00     0.002 C 
BRANCH   7   8
ATOM      8  C   UNL d   1       3.091  -0.109   1.333  0.00  0.00    -0.000 C 
BRANCH   8   9
ATOM      9  C   UNL d   1       2.565  -0.024  -0.086  0.00  0.00    -0.005 C 
ATOM     10  C   UNL d   1       1.052  -0.025  -0.083  0.00  0.00     0.005 C 
ENDBRANCH   8   9
ENDBRANCH   7   8
ENDBRANCH   6   7
ENDBRANCH   5   6
ENDBRANCH   2   5
BRANCH   3  11
ATOM     11  C   UNL d   1       6.207   0.492   6.452  0.00  0.00     0.000 C 
ATOM     12  C   UNL d   1       6.262   1.159   7.444  0.00  0.00    -0.057 C 
BRANCH  12  13
ATOM     13  C   UNL d   1       6.484   1.904   8.648  0.00  0.00     0.018 A 
ATOM     14  C   UNL d   1       6.442   1.246   9.878  0.00  0.00     0.020 A 
ATOM     15  C   UNL d   1       6.615   1.965  11.058  0.00  0.00     0.001 A 
ATOM     16  C   UNL d   1       6.850   3.339  11.008  0.00  0.00     0.000 A 
ATOM     17  C   UNL d   1       6.960   3.986   9.776  0.00  0.00     0.001 A 
ATOM     18  C   UNL d   1       6.794   3.265   8.594  0.00  0.00     0.020 A 
ENDBRANCH  12  13
ENDBRANCH   3  11
ENDBRANCH   1   2
BRANCH   1  19
ATOM     19  C   UNL d   1       9.349   1.056   3.827  0.00  0.00     0.245 C 
ATOM     20  O   UNL d   1      10.251   1.697   4.374  0.00  0.00    -0.271 OA
ATOM     21  N   UNL d   1       9.137   1.313   2.488  0.00  0.00    -0.359 N 
ATOM     22  H   UNL d   1       8.745   0.620   1.867  0.00  0.00     0.162 HD
BRANCH  21  23
ATOM     23  C   UNL d   1       9.726   2.509   1.938  0.00  0.00     0.122 C 
BRANCH  23  24
ATOM     24  C   UNL d   1       9.486   2.618   0.451  0.00  0.00     0.019 C 
BRANCH  24  25
ATOM     25  C   UNL d   1      10.112   3.896  -0.090  0.00  0.00    -0.003 C 
ATOM     26  C   UNL d   1       9.883   3.998  -1.584  0.00  0.00     0.005 C 
ENDBRANCH  24  25
ENDBRANCH  23  24
ENDBRANCH  21  23
ENDBRANCH   1  19
BRANCH   1  27
ATOM     27  C   UNL d   1       8.946  -0.362   5.959  0.00  0.00     0.040 A 
ATOM     28  C   UNL d   1       8.936  -1.614   6.603  0.00  0.00     0.080 A 
ATOM     29  C   UNL d   1       9.156  -1.718   7.985  0.00  0.00     0.073 A 
ATOM     30  C   UNL d   1       9.417  -0.574   8.733  0.00  0.00     0.071 A 
ATOM     31  C   UNL d   1       9.434   0.670   8.135  0.00  0.00     0.073 A 
ATOM     32  C   UNL d   1       9.146   0.768   6.782  0.00  0.00     0.080 A 
BRANCH  28  33
ATOM     33  O   UNL d   1       8.649  -2.799   5.977  0.00  0.00    -0.360 OA
ATOM     34  H   UNL d   1       8.362  -2.662   5.061  0.00  0.00     0.217 HD
ENDBRANCH  28  33
BRANCH  30  35
ATOM     35  O   UNL d   1       9.604  -0.598  10.083  0.00  0.00    -0.361 OA
ATOM     36  H   UNL d   1       9.588  -1.518  10.390  0.00  0.00     0.217 HD
ENDBRANCH  30  35
BRANCH  32  37
ATOM     37  O   UNL d   1       8.808   2.011   6.300  0.00  0.00    -0.360 OA
ATOM     38  H   UNL d   1       9.189   2.694   6.874  0.00  0.00     0.217 HD
ENDBRANCH  32  37
ENDBRANCH   1  27
TORSDOF 16
