REMARK  12 active torsions:
REMARK  status: ('A' for Active; 'I' for Inactive)
REMARK    1  A    between atoms: C_2  and  C_3 
REMARK    2  A    between atoms: C_3  and  C_4 
REMARK       I    between atoms: C_4  and  N_6 
REMARK    3  A    between atoms: N_6  and  C_7 
REMARK    4  A    between atoms: C_12  and  N_13 
REMARK       I    between atoms: N_13  and  C_14 
REMARK    5  A    between atoms: C_14  and  C_16 
REMARK    6  A    between atoms: C_16  and  N_17 
REMARK    7  A    between atoms: N_17  and  C_18 
REMARK    8  A    between atoms: C_22  and  O_23 
REMARK    9  A    between atoms: O_23  and  C_24 
REMARK   10  A    between atoms: C_24  and  C_25 
REMARK   11  A    between atoms: C_25  and  C_26 
REMARK   12  A    between atoms: C_26  and  C_27 
ROOT
ATOM      1  C   UNL d   1      11.752  -3.524  -4.980  0.00  0.00     0.223 C 
ENDROOT
BRANCH   1   2
ATOM      2  C   UNL d   1      11.114  -3.108  -3.654  0.00  0.00     0.239 C 
ATOM      3  N   UNL d   1       9.736  -3.061  -3.513  0.00  0.00    -0.324 N 
ATOM      4  H   UNL d   1       9.181  -3.316  -4.325  0.00  0.00     0.169 HD
ATOM      5  O   UNL d   1      11.939  -2.836  -2.779  0.00  0.00    -0.271 OA
BRANCH   3   6
ATOM      6  C   UNL d   1       9.004  -2.710  -2.303  0.00  0.00     0.058 A 
ATOM      7  C   UNL d   1       9.571  -2.308  -1.060  0.00  0.00     0.060 A 
ATOM      8  C   UNL d   1       8.759  -2.024   0.034  0.00  0.00     0.028 A 
ATOM      9 CL   UNL d   1      11.204  -2.031  -0.564  0.00  0.00    -0.082 Cl
ATOM     10  C   UNL d   1       7.389  -2.059  -0.050  0.00  0.00     0.031 A 
ATOM     11  C   UNL d   1       6.761  -2.387  -1.243  0.00  0.00     0.036 A 
ATOM     12  C   UNL d   1       7.561  -2.762  -2.358  0.00  0.00     0.060 A 
BRANCH  11  13
ATOM     13  N   UNL d   1       5.336  -2.318  -1.260  0.00  0.00    -0.327 N 
ATOM     14  C   UNL d   1       4.664  -1.272  -0.610  0.00  0.00     0.222 C 
ATOM     15  O   UNL d   1       5.238  -0.324  -0.073  0.00  0.00    -0.273 OA
ATOM     16  H   UNL d   1       4.818  -2.942  -1.863  0.00  0.00     0.169 HD
BRANCH  14  17
ATOM     17  C   UNL d   1       3.140  -1.325  -0.633  0.00  0.00     0.103 C 
BRANCH  17  18
ATOM     18  C   UNL d   1       2.557  -0.080   0.064  0.00  0.00     0.005 C 
ATOM     19  C   UNL d   1       1.039  -0.058   0.074  0.00  0.00     0.005 C 
ENDBRANCH  17  18
ENDBRANCH  14  17
ENDBRANCH  11  13
ENDBRANCH   3   6
ENDBRANCH   1   2
BRANCH   1  20
ATOM     20  N   UNL d   1      13.204  -3.619  -4.722  0.00  0.00    -0.381 N 
ATOM     21  H   UNL d   1      13.486  -3.214  -3.819  0.00  0.00     0.160 HD
BRANCH  20  22
ATOM     22  C   UNL d   1      14.180  -3.732  -5.675  0.00  0.00     0.030 A 
ATOM     23  C   UNL d   1      15.361  -4.421  -5.391  0.00  0.00     0.029 A 
ATOM     24  C   UNL d   1      16.341  -4.594  -6.372  0.00  0.00     0.005 A 
ATOM     25  C   UNL d   1      16.130  -4.097  -7.657  0.00  0.00     0.037 A 
ATOM     26  C   UNL d   1      14.971  -3.380  -7.939  0.00  0.00     0.070 A 
ATOM     27  C   UNL d   1      14.013  -3.207  -6.944  0.00  0.00     0.065 A 
BRANCH  26  28
ATOM     28  O   UNL d   1      14.849  -2.870  -9.201  0.00  0.00    -0.351 OA
BRANCH  28  29
ATOM     29  C   UNL d   1      13.683  -2.068  -9.405  0.00  0.00     0.176 C 
BRANCH  29  30
ATOM     30  C   UNL d   1      13.721  -1.566 -10.822  0.00  0.00     0.031 C 
BRANCH  30  31
ATOM     31  C   UNL d   1      12.486  -0.739 -11.161  0.00  0.00     0.041 C 
BRANCH  31  32
ATOM     32  C   UNL d   1      12.515  -0.197 -12.568  0.00  0.00    -0.058 A 
ATOM     33  C   UNL d   1      13.477  -0.599 -13.508  0.00  0.00     0.007 A 
ATOM     34  C   UNL d   1      13.568   0.022 -14.747  0.00  0.00     0.001 A 
ATOM     35  C   UNL d   1      12.633   0.985 -15.104  0.00  0.00     0.000 A 
ATOM     36  C   UNL d   1      11.634   1.356 -14.205  0.00  0.00     0.001 A 
ATOM     37  C   UNL d   1      11.578   0.774 -12.939  0.00  0.00     0.007 A 
ENDBRANCH  31  32
ENDBRANCH  30  31
ENDBRANCH  29  30
ENDBRANCH  28  29
ENDBRANCH  26  28
ENDBRANCH  20  22
ENDBRANCH   1  20
TORSDOF 12
