REMARK  5 active torsions:
REMARK  status: ('A' for Active; 'I' for Inactive)
REMARK    1  A    between atoms: C_5  and  C_6 
REMARK    2  A    between atoms: C_9  and  N_10 
REMARK    3  A    between atoms: N_10  and  N_11 
REMARK       I    between atoms: N_10  and  C_21 
REMARK       I    between atoms: N_11  and  C_12 
REMARK       I    between atoms: C_12  and  N_14 
REMARK    4  A    between atoms: N_14  and  C_15 
REMARK       I    between atoms: C_21  and  N_23 
REMARK    5  A    between atoms: N_23  and  C_24 
ROOT
ATOM      1  N   UNL d   1      -6.316   1.026  -1.777  0.00  0.00    -0.176 N 
ATOM      2  C   UNL d   1      -5.851   1.700  -2.975  0.00  0.00     0.348 C 
ATOM      3  O   UNL d   1      -4.660   1.861  -3.256  0.00  0.00    -0.245 OA
ATOM      4  N   UNL d   1      -6.823   2.234  -3.852  0.00  0.00    -0.307 N 
ATOM      5  H   UNL d   1      -7.752   2.412  -3.521  0.00  0.00     0.170 HD
ENDROOT
BRANCH   1   6
ATOM      6  C   UNL d   1      -5.237   0.573  -0.894  0.00  0.00     0.197 C 
ATOM      7  S   UNL d   1      -5.486  -0.032   0.709  0.00  0.00    -0.060 SA
ATOM      8  C   UNL d   1      -3.895  -0.520   0.905  0.00  0.00     0.086 C 
ATOM      9  C   UNL d   1      -3.189   0.033  -0.128  0.00  0.00     0.076 C 
ATOM     10  N   UNL d   1      -3.935   0.633  -1.137  0.00  0.00    -0.222 NA
BRANCH   9  11
ATOM     11  C   UNL d   1      -1.755   0.017  -0.099  0.00  0.00    -0.007 A 
ATOM     12  C   UNL d   1      -1.076  -1.203  -0.039  0.00  0.00     0.014 A 
ATOM     13  C   UNL d   1       0.311  -1.212   0.002  0.00  0.00     0.007 A 
ATOM     14  C   UNL d   1       1.015  -0.002   0.004  0.00  0.00    -0.062 A 
ATOM     15  C   UNL d   1       2.510   0.003  -0.009  0.00  0.00     0.048 C 
ATOM     16  C   UNL d   1       0.320   1.216  -0.004  0.00  0.00     0.007 A 
ATOM     17  C   UNL d   1      -1.067   1.227  -0.052  0.00  0.00     0.014 A 
ENDBRANCH   9  11
ENDBRANCH   1   6
BRANCH   1  18
ATOM     18  N   UNL d   1      -7.807   1.029  -1.408  0.00  0.00    -0.239 N 
ATOM     19  C   UNL d   1      -8.340   0.109  -0.537  0.00  0.00     0.335 C 
ATOM     20  O   UNL d   1      -7.703  -0.817  -0.049  0.00  0.00    -0.246 OA
ATOM     21  N   UNL d   1      -9.631   0.244  -0.095  0.00  0.00    -0.337 N 
ATOM     22  H   UNL d   1     -10.358   0.507  -0.748  0.00  0.00     0.164 HD
ATOM     23  H   UNL d   1      -8.417   1.304  -2.163  0.00  0.00     0.192 HD
BRANCH  21  24
ATOM     24  C   UNL d   1     -10.016  -0.567   1.116  0.00  0.00     0.086 C 
ATOM     25  C   UNL d   1      -9.859  -2.111   0.942  0.00  0.00     0.025 C 
ATOM     26  C   UNL d   1     -10.047  -2.901   2.239  0.00  0.00     0.002 C 
ATOM     27  C   UNL d   1      -9.161  -2.380   3.364  0.00  0.00     0.000 C 
ATOM     28  C   UNL d   1      -9.441  -0.904   3.619  0.00  0.00     0.002 C 
ATOM     29  C   UNL d   1      -9.228  -0.070   2.362  0.00  0.00     0.025 C 
ENDBRANCH  21  24
ENDBRANCH   1  18
BRANCH   4  30
ATOM     30  C   UNL d   1      -6.467   2.930  -5.074  0.00  0.00     0.036 A 
ATOM     31  C   UNL d   1      -5.420   2.498  -5.906  0.00  0.00     0.031 A 
ATOM     32  C   UNL d   1      -5.125   3.145  -7.121  0.00  0.00     0.026 A 
ATOM     33  C   UNL d   1      -5.856   4.259  -7.513  0.00  0.00     0.034 A 
ATOM     34 CL   UNL d   1      -5.486   5.057  -8.995  0.00  0.00    -0.084 Cl
ATOM     35  C   UNL d   1      -6.890   4.721  -6.703  0.00  0.00     0.026 A 
ATOM     36  C   UNL d   1      -7.204   4.051  -5.499  0.00  0.00     0.031 A 
ENDBRANCH   4  30
TORSDOF 5
