REMARK  4 active torsions:
REMARK  status: ('A' for Active; 'I' for Inactive)
REMARK    1  A    between atoms: C_2  and  C_3 
REMARK    2  A    between atoms: C_3  and  C_4 
REMARK    3  A    between atoms: C_6  and  C_7 
REMARK       I    between atoms: C_7  and  N_9 
REMARK    4  A    between atoms: N_9  and  N_10 
ROOT
ATOM      1  C   UNL d   1       4.666  -1.431  -0.321  0.00  0.00    -0.017 A 
ATOM      2  C   UNL d   1       5.418  -2.589  -0.272  0.00  0.00     0.032 A 
ATOM      3  C   UNL d   1       6.837  -2.358  -0.279  0.00  0.00     0.040 A 
ATOM      4  C   UNL d   1       7.089  -0.998  -0.330  0.00  0.00     0.067 A 
ATOM      5  S   UNL d   1       5.675  -0.053  -0.402  0.00  0.00    -0.105 SA
ENDROOT
BRANCH   3   6
ATOM      6  C   UNL d   1       7.919  -3.346  -0.246  0.00  0.00     0.266 C 
ATOM      7  O   UNL d   1       9.108  -3.025  -0.254  0.00  0.00    -0.266 OA
ATOM      8  N   UNL d   1       7.514  -4.680  -0.223  0.00  0.00    -0.290 N 
ATOM      9  H   UNL d   1       6.533  -4.924  -0.143  0.00  0.00     0.183 HD
BRANCH   8  10
ATOM     10  N   UNL d   1       8.474  -5.715  -0.113  0.00  0.00    -0.247 NA
ATOM     11  H   UNL d   1       9.402  -5.268  -0.140  0.00  0.00     0.143 HD
ATOM     12  H   UNL d   1       8.435  -6.283  -0.963  0.00  0.00     0.143 HD
ENDBRANCH   8  10
ENDBRANCH   3   6
BRANCH   1  13
ATOM     13  C   UNL d   1       3.162  -1.355  -0.328  0.00  0.00     0.046 C 
BRANCH  13  14
ATOM     14  C   UNL d   1       2.587   0.025  -0.023  0.00  0.00     0.001 C 
ATOM     15  C   UNL d   1       1.070   0.008  -0.022  0.00  0.00     0.005 C 
ENDBRANCH  13  14
ENDBRANCH   1  13
TORSDOF 4
