REMARK  3 active torsions:
REMARK  status: ('A' for Active; 'I' for Inactive)
REMARK    1  A    between atoms: C_5  and  N_6 
REMARK       I    between atoms: N_6  and  C_7 
REMARK       I    between atoms: C_7  and  N_9 
REMARK    2  A    between atoms: N_9  and  N_10 
REMARK       I    between atoms: N_10  and  C_11 
REMARK    3  A    between atoms: C_11  and  C_13 
ROOT
ATOM      1  N   UNL d   1      -3.331   0.183  -0.035  0.00  0.00    -0.308 N 
ATOM      2  C   UNL d   1      -4.064   1.372  -0.060  0.00  0.00     0.339 C 
ATOM      3  O   UNL d   1      -3.596   2.512  -0.057  0.00  0.00    -0.245 OA
ATOM      4  N   UNL d   1      -5.448   1.249  -0.095  0.00  0.00    -0.248 N 
ATOM      5  H   UNL d   1      -3.831  -0.696  -0.052  0.00  0.00     0.170 HD
ATOM      6  H   UNL d   1      -5.979   0.384  -0.101  0.00  0.00     0.192 HD
ENDROOT
BRANCH   4   7
ATOM      7  N   UNL d   1      -6.207   2.482  -0.160  0.00  0.00    -0.262 N 
ATOM      8  C   UNL d   1      -7.593   2.476  -0.123  0.00  0.00     0.270 C 
ATOM      9  O   UNL d   1      -8.251   1.434  -0.069  0.00  0.00    -0.266 OA
ATOM     10  H   UNL d   1      -5.642   3.330  -0.085  0.00  0.00     0.190 HD
BRANCH   8  11
ATOM     11  C   UNL d   1      -8.304   3.801  -0.133  0.00  0.00     0.036 A 
ATOM     12  C   UNL d   1      -7.920   4.845  -0.979  0.00  0.00     0.036 A 
ATOM     13  C   UNL d   1      -8.674   6.014  -0.973  0.00  0.00     0.117 A 
ATOM     14  N   UNL d   1      -9.752   6.215  -0.185  0.00  0.00    -0.273 NA
ATOM     15  C   UNL d   1     -10.113   5.194   0.619  0.00  0.00     0.117 A 
ATOM     16  C   UNL d   1      -9.440   3.979   0.668  0.00  0.00     0.036 A 
ENDBRANCH   8  11
ENDBRANCH   4   7
BRANCH   1  17
ATOM     17  C   UNL d   1      -1.891   0.102  -0.011  0.00  0.00     0.036 A 
ATOM     18  C   UNL d   1      -1.217  -1.135  -0.004  0.00  0.00     0.030 A 
ATOM     19  C   UNL d   1       0.202  -1.195   0.003  0.00  0.00     0.009 A 
ATOM     20  C   UNL d   1       0.972  -0.027   0.002  0.00  0.00    -0.062 A 
ATOM     21  C   UNL d   1       2.473  -0.029  -0.013  0.00  0.00     0.048 C 
ATOM     22  C   UNL d   1       0.306   1.192   0.006  0.00  0.00     0.009 A 
ATOM     23  C   UNL d   1      -1.090   1.247   0.003  0.00  0.00     0.030 A 
ENDBRANCH   1  17
TORSDOF 3
