REMARK  5 active torsions:
REMARK  status: ('A' for Active; 'I' for Inactive)
REMARK       I    between atoms: C_2  and  N_3 
REMARK    1  A    between atoms: C_2  and  C_14 
REMARK    2  A    between atoms: N_3  and  N_4 
REMARK    3  A    between atoms: C_5  and  C_6 
REMARK    4  A    between atoms: C_17  and  O_18 
REMARK    5  A    between atoms: C_20  and  O_21 
ROOT
ATOM      1  O   UNL d   1       1.014   0.111   0.111  0.00  0.00    -0.266 OA
ATOM      2  C   UNL d   1       2.243  -0.007   0.157  0.00  0.00     0.274 C 
ATOM      3  N   UNL d   1       2.946  -0.584   1.217  0.00  0.00    -0.243 N 
ATOM      4  H   UNL d   1       3.959  -0.639   1.194  0.00  0.00     0.192 HD
ENDROOT
BRANCH   2   5
ATOM      5  C   UNL d   1       3.025   0.549  -0.990  0.00  0.00     0.067 A 
ATOM      6  C   UNL d   1       2.611   1.777  -1.548  0.00  0.00     0.022 A 
ATOM      7  C   UNL d   1       3.245   2.311  -2.681  0.00  0.00     0.037 A 
ATOM      8  C   UNL d   1       4.282   1.603  -3.275  0.00  0.00     0.068 A 
ATOM      9  C   UNL d   1       4.691   0.376  -2.754  0.00  0.00     0.074 A 
ATOM     10  C   UNL d   1       4.072  -0.143  -1.607  0.00  0.00     0.084 A 
BRANCH   8  11
ATOM     11  O   UNL d   1       4.934   2.071  -4.378  0.00  0.00    -0.361 OA
ATOM     12  H   UNL d   1       4.570   2.937  -4.629  0.00  0.00     0.217 HD
ENDBRANCH   8  11
BRANCH  10  13
ATOM     13  O   UNL d   1       4.487  -1.344  -1.103  0.00  0.00    -0.360 OA
ATOM     14  H   UNL d   1       5.110  -1.749  -1.732  0.00  0.00     0.217 HD
ENDBRANCH  10  13
ENDBRANCH   2   5
BRANCH   3  15
ATOM     15  N   UNL d   1       2.240  -1.117   2.276  0.00  0.00    -0.183 NA
ATOM     16  C   UNL d   1       2.901  -1.599   3.281  0.00  0.00     0.155 C 
BRANCH  16  17
ATOM     17  C   UNL d   1       2.189  -2.145   4.467  0.00  0.00     0.043 A 
ATOM     18  C   UNL d   1       1.097  -3.001   4.301  0.00  0.00     0.129 A 
ATOM     19  F   UNL d   1       0.757  -3.457   3.088  0.00  0.00    -0.205 F 
ATOM     20  C   UNL d   1       0.352  -3.450   5.397  0.00  0.00     0.043 A 
ATOM     21  C   UNL d   1       0.693  -3.050   6.686  0.00  0.00     0.005 A 
ATOM     22  C   UNL d   1       1.806  -2.229   6.873  0.00  0.00     0.025 A 
ATOM     23  C   UNL d   1       2.558  -1.786   5.770  0.00  0.00     0.048 A 
ATOM     24 CL   UNL d   1       3.912  -0.764   6.098  0.00  0.00    -0.083 Cl
ENDBRANCH  16  17
ENDBRANCH   3  15
TORSDOF 5
