@<TRIPOS>MOLECULE
*****
 68 69 0 0 0
SMALL
GASTEIGER

@<TRIPOS>ATOM
      1 C           1.0844    0.0064    0.0228 C.3     1  UNL1       -0.0653
      2 C           2.6022    0.0005    0.0131 C.3     1  UNL1       -0.0559
      3 C           3.1308   -0.7302   -1.2178 C.3     1  UNL1       -0.0532
      4 C           4.6552   -0.7364   -1.2340 C.3     1  UNL1       -0.0500
      5 C           5.1901   -1.4561   -2.4694 C.3     1  UNL1       -0.0186
      6 C           6.7174   -1.4525   -2.4774 C.3     1  UNL1        0.0896
      7 O           7.1743   -2.0662   -3.6838 O.3     1  UNL1       -0.4920
      8 C           8.5269   -2.2523   -3.7832 C.ar    1  UNL1        0.1205
      9 C           9.0686   -2.1264   -5.0573 C.ar    1  UNL1       -0.0192
     10 C          10.4238   -2.4130   -5.2760 C.ar    1  UNL1       -0.0462
     11 C          11.2910   -2.7680   -4.2190 C.ar    1  UNL1        0.0373
     12 C          12.7547   -2.9364   -4.5575 C.2     1  UNL1        0.2495
     13 O          13.0507   -2.7930   -5.7408 O.2     1  UNL1       -0.2698
     14 N          13.6988   -3.1977   -3.5379 N.am    1  UNL1       -0.2636
     15 C          15.1077   -3.3377   -3.6414 C.2     1  UNL1        0.1401
     16 S          15.9651   -3.2060   -5.0848 S.2     1  UNL1       -0.0183
     17 N          15.7719   -3.4987   -2.3939 N.am    1  UNL1       -0.2988
     18 C          17.1262   -2.9140   -2.2202 C.3     1  UNL1        0.0301
     19 C          17.1673   -2.2681   -0.8447 C.3     1  UNL1        0.0274
     20 N          16.9575   -3.2581    0.1768 N.am    1  UNL1       -0.3123
     21 C          16.0961   -4.3078    0.0262 C.2     1  UNL1        0.2341
     22 O          15.8679   -4.9729    1.0337 O.2     1  UNL1       -0.2738
     23 C          15.5478   -4.6405   -1.4214 C.3     1  UNL1        0.1113
     24 C          14.0938   -5.0711   -1.3309 C.3     1  UNL1        0.0720
     25 C          13.8559   -6.2530   -0.4462 C.2     1  UNL1        0.3096
     26 O          14.7102   -7.0625   -0.1054 O.2     1  UNL1       -0.2508
     27 O          12.5266   -6.3286   -0.1349 O.3     1  UNL1       -0.4616
     28 C          12.2273   -7.3607    0.8223 C.3     1  UNL1        0.1000
     29 C          12.6882   -6.8783    2.1975 C.3     1  UNL1       -0.0277
     30 C          10.7185   -7.6382    0.8103 C.3     1  UNL1       -0.0188
     31 C          10.3335   -8.7153    1.8172 C.3     1  UNL1       -0.0619
     32 C          10.7308   -2.9116   -2.9470 C.ar    1  UNL1       -0.0462
     33 C           9.3578   -2.6589   -2.7365 C.ar    1  UNL1       -0.0192
     34 H           0.7113    0.5316    0.9066 H       1  UNL1        0.0230
     35 H           0.6928   -1.0157    0.0394 H       1  UNL1        0.0230
     36 H           0.6928    0.5096   -0.8670 H       1  UNL1        0.0230
     37 H           2.9714   -0.4849    0.9242 H       1  UNL1        0.0263
     38 H           2.9711    1.0330    0.0225 H       1  UNL1        0.0263
     39 H           2.7544   -0.2433   -2.1257 H       1  UNL1        0.0265
     40 H           2.7566   -1.7613   -1.2242 H       1  UNL1        0.0265
     41 H           5.0301   -1.2263   -0.3266 H       1  UNL1        0.0266
     42 H           5.0266    0.2955   -1.2203 H       1  UNL1        0.0266
     43 H           4.8092   -0.9831   -3.3826 H       1  UNL1        0.0298
     44 H           4.8247   -2.4912   -2.4899 H       1  UNL1        0.0298
     45 H           7.0570   -1.9930   -1.5892 H       1  UNL1        0.0696
     46 H           7.0865   -0.4211   -2.4429 H       1  UNL1        0.0696
     47 H           8.4446   -1.7989   -5.8872 H       1  UNL1        0.0654
     48 H          10.7988   -2.3570   -6.2986 H       1  UNL1        0.0626
     49 H          13.3455   -3.1331   -2.6021 H       1  UNL1        0.1568
     50 H          17.3534   -2.1552   -2.9712 H       1  UNL1        0.0480
     51 H          17.8745   -3.7169   -2.2988 H       1  UNL1        0.0480
     52 H          16.3599   -1.5319   -0.7541 H       1  UNL1        0.0477
     53 H          18.1223   -1.7779   -0.6448 H       1  UNL1        0.0477
     54 H          17.2386   -3.0838    1.1353 H       1  UNL1        0.1488
     55 H          16.1606   -5.4786   -1.7903 H       1  UNL1        0.0602
     56 H          13.7305   -5.3733   -2.3178 H       1  UNL1        0.0401
     57 H          13.5113   -4.2267   -0.9474 H       1  UNL1        0.0401
     58 H          12.7438   -8.2845    0.5321 H       1  UNL1        0.0731
     59 H          12.1675   -5.9524    2.4656 H       1  UNL1        0.0265
     60 H          13.7573   -6.6515    2.2119 H       1  UNL1        0.0265
     61 H          12.5138   -7.6274    2.9709 H       1  UNL1        0.0265
     62 H          10.4077   -7.9510   -0.1950 H       1  UNL1        0.0298
     63 H          10.1639   -6.7152    1.0188 H       1  UNL1        0.0298
     64 H          10.8665   -9.6487    1.6075 H       1  UNL1        0.0231
     65 H           9.2594   -8.9119    1.7863 H       1  UNL1        0.0231
     66 H          10.5706   -8.4135    2.8417 H       1  UNL1        0.0231
     67 H          11.3116   -3.2391   -2.0938 H       1  UNL1        0.0626
     68 H           8.9556   -2.8164   -1.7411 H       1  UNL1        0.0654
@<TRIPOS>BOND
     1     1     2    1
     2     2     3    1
     3     3     4    1
     4     4     5    1
     5     5     6    1
     6     6     7    1
     7     7     8    1
     8     8     9   ar
     9     9    10   ar
    10    10    11   ar
    11    11    12    1
    12    12    13    2
    13    12    14   am
    14    14    15    1
    15    15    16    2
    16    15    17    1
    17    17    18    1
    18    18    19    1
    19    19    20    1
    20    20    21   am
    21    21    22    2
    22    21    23    1
    23    17    23    1
    24    23    24    1
    25    24    25    1
    26    25    26    2
    27    25    27    1
    28    27    28    1
    29    28    29    1
    30    28    30    1
    31    30    31    1
    32    11    32   ar
    33    32    33   ar
    34     8    33   ar
    35     1    34    1
    36     1    35    1
    37     1    36    1
    38     2    37    1
    39     2    38    1
    40     3    39    1
    41     3    40    1
    42     4    41    1
    43     4    42    1
    44     5    43    1
    45     5    44    1
    46     6    45    1
    47     6    46    1
    48     9    47    1
    49    10    48    1
    50    14    49    1
    51    18    50    1
    52    18    51    1
    53    19    52    1
    54    19    53    1
    55    20    54    1
    56    23    55    1
    57    24    56    1
    58    24    57    1
    59    28    58    1
    60    29    59    1
    61    29    60    1
    62    29    61    1
    63    30    62    1
    64    30    63    1
    65    31    64    1
    66    31    65    1
    67    31    66    1
    68    32    67    1
    69    33    68    1
