@<TRIPOS>MOLECULE
*****
 52 55 0 0 0
SMALL
GASTEIGER

@<TRIPOS>ATOM
      1 C           0.9896   -0.0014   -0.3963 C.3     1  UNL1        0.0820
      2 O           2.4084    0.1226   -0.5825 O.3     1  UNL1       -0.4644
      3 C           3.0103   -1.0584   -0.8834 C.2     1  UNL1        0.3407
      4 O           2.4556   -2.0528   -1.3286 O.2     1  UNL1       -0.2449
      5 C           4.4754   -1.0282   -0.6276 C.ar    1  UNL1        0.0801
      6 C           5.2562   -1.4818   -1.7134 C.ar    1  UNL1       -0.0460
      7 C           6.6326   -1.6646   -1.5922 C.ar    1  UNL1       -0.0609
      8 C           7.2599   -1.3333   -0.3982 C.ar    1  UNL1       -0.0600
      9 C           6.5006   -0.8621    0.6904 C.ar    1  UNL1       -0.0397
     10 C           5.0924   -0.7117    0.6083 C.ar    1  UNL1        0.0474
     11 N           4.4043   -0.2281    1.7809 N.am    1  UNL1       -0.2841
     12 C           3.0850   -0.5519    2.0848 C.2     1  UNL1        0.2275
     13 O           2.5605   -1.5633    1.6206 O.2     1  UNL1       -0.2746
     14 C           2.3288    0.3084    3.1206 C.3     1  UNL1        0.0779
     15 S           0.5416    0.3429    2.7177 S.3     1  UNL1       -0.0783
     16 C          -0.3012    0.9944    4.0944 C.ar    1  UNL1        0.1724
     17 N          -0.9486    0.1190    4.8062 N.ar    1  UNL1       -0.2209
     18 C          -1.6666    0.6543    5.8709 C.ar    1  UNL1        0.1043
     19 C          -2.4709   -0.0109    6.8240 C.ar    1  UNL1        0.0257
     20 C          -2.7913   -1.4132    7.0196 C.ar    1  UNL1       -0.0144
     21 C          -4.1218   -1.8383    7.1453 C.ar    1  UNL1       -0.0539
     22 C          -4.4111   -3.1722    7.4491 C.ar    1  UNL1       -0.0612
     23 C          -3.3787   -4.1027    7.5538 C.ar    1  UNL1       -0.0617
     24 C          -2.0545   -3.6904    7.4126 C.ar    1  UNL1       -0.0612
     25 C          -1.7616   -2.3491    7.1546 C.ar    1  UNL1       -0.0539
     26 C          -2.8556    0.9673    7.7309 C.ar    1  UNL1        0.0121
     27 N          -2.3644    2.1795    7.3021 N.ar    1  UNL1       -0.3546
     28 C          -1.6503    1.9864    6.1512 C.ar    1  UNL1        0.1310
     29 C          -0.9646    2.9550    5.3574 C.ar    1  UNL1        0.2785
     30 O          -0.9641    4.1443    5.6250 O.2     1  UNL1       -0.2653
     31 N          -0.2963    2.3814    4.2697 N.ar    1  UNL1       -0.2892
     32 C           0.3545    3.3001    3.3425 C.3     1  UNL1        0.0172
     33 H           0.6578    0.8992    0.1277 H       1  UNL1        0.0661
     34 H           0.7306   -0.8790    0.2110 H       1  UNL1        0.0661
     35 H           0.4435   -0.0535   -1.3362 H       1  UNL1        0.0661
     36 H           4.7750   -1.7116   -2.6631 H       1  UNL1        0.0626
     37 H           7.2032   -2.0801   -2.4214 H       1  UNL1        0.0618
     38 H           8.3416   -1.4480   -0.3194 H       1  UNL1        0.0618
     39 H           7.0417   -0.6679    1.6150 H       1  UNL1        0.0636
     40 H           4.9905    0.0349    2.5648 H       1  UNL1        0.1548
     41 H           2.7330    1.3236    3.1641 H       1  UNL1        0.0475
     42 H           2.4613   -0.1988    4.0733 H       1  UNL1        0.0475
     43 H          -4.9406   -1.1372    7.0030 H       1  UNL1        0.0624
     44 H          -5.4399   -3.4852    7.6078 H       1  UNL1        0.0618
     45 H          -3.6058   -5.1494    7.7388 H       1  UNL1        0.0618
     46 H          -1.2466   -4.4097    7.5136 H       1  UNL1        0.0618
     47 H          -0.7253   -2.0338    7.0679 H       1  UNL1        0.0624
     48 H          -3.4163    0.8976    8.6547 H       1  UNL1        0.0814
     49 H          -2.4822    3.0688    7.7717 H       1  UNL1        0.1656
     50 H           0.2890    4.3413    3.6667 H       1  UNL1        0.0457
     51 H          -0.1043    3.2149    2.3510 H       1  UNL1        0.0457
     52 H           1.4127    3.0459    3.2649 H       1  UNL1        0.0457
@<TRIPOS>BOND
     1     1     2    1
     2     2     3    1
     3     3     4    2
     4     3     5    1
     5     5     6   ar
     6     6     7   ar
     7     7     8   ar
     8     8     9   ar
     9     9    10   ar
    10     5    10   ar
    11    10    11    1
    12    11    12   am
    13    12    13    2
    14    12    14    1
    15    14    15    1
    16    15    16    1
    17    16    17   ar
    18    17    18   ar
    19    18    19   ar
    20    19    20    1
    21    20    21   ar
    22    21    22   ar
    23    22    23   ar
    24    23    24   ar
    25    24    25   ar
    26    20    25   ar
    27    19    26   ar
    28    26    27   ar
    29    27    28   ar
    30    18    28   ar
    31    28    29   ar
    32    29    30    2
    33    29    31   ar
    34    16    31   ar
    35    31    32    1
    36     1    33    1
    37     1    34    1
    38     1    35    1
    39     6    36    1
    40     7    37    1
    41     8    38    1
    42     9    39    1
    43    11    40    1
    44    14    41    1
    45    14    42    1
    46    21    43    1
    47    22    44    1
    48    23    45    1
    49    24    46    1
    50    25    47    1
    51    26    48    1
    52    27    49    1
    53    32    50    1
    54    32    51    1
    55    32    52    1
