REMARK  5 active torsions:
REMARK  status: ('A' for Active; 'I' for Inactive)
REMARK    1  A    between atoms: C_8  and  O_9 
REMARK    2  A    between atoms: O_9  and  C_10 
REMARK    3  A    between atoms: C_13  and  N_14 
REMARK       I    between atoms: N_14  and  C_15 
REMARK    4  A    between atoms: C_15  and  C_17 
REMARK    5  A    between atoms: C_21  and  N_22 
REMARK       I    between atoms: N_22  and  C_23 
REMARK       I    between atoms: C_23  and  N_24 
ROOT
ATOM      1  N   UNL d   1      -3.072   0.474   0.315  0.00  0.00    -0.191 NA
ATOM      2  C   UNL d   1      -1.924   0.285   0.181  0.00  0.00     0.102 C 
ATOM      3  C   UNL d   1      -0.519   0.083   0.020  0.00  0.00     0.078 A 
ATOM      4  C   UNL d   1       0.250   1.254  -0.028  0.00  0.00     0.025 A 
ATOM      5  C   UNL d   1       1.638   1.202   0.002  0.00  0.00     0.002 A 
ATOM      6  C   UNL d   1       2.279  -0.032   0.048  0.00  0.00     0.003 A 
ATOM      7  C   UNL d   1       1.525  -1.214   0.013  0.00  0.00     0.039 A 
ATOM      8  C   UNL d   1       0.115  -1.174  -0.013  0.00  0.00     0.096 A 
ENDROOT
BRANCH   8   9
ATOM      9  O   UNL d   1      -0.500  -2.420   0.008  0.00  0.00    -0.309 OA
BRANCH   9  10
ATOM     10  C   UNL d   1      -1.850  -2.529  -0.246  0.00  0.00     0.076 A 
ATOM     11  C   UNL d   1      -2.669  -3.150   0.700  0.00  0.00     0.039 A 
ATOM     12  C   UNL d   1      -4.066  -3.248   0.486  0.00  0.00     0.032 A 
ATOM     13  C   UNL d   1      -4.667  -2.613  -0.614  0.00  0.00     0.035 A 
ATOM     14  C   UNL d   1      -3.817  -2.013  -1.543  0.00  0.00     0.032 A 
ATOM     15  C   UNL d   1      -2.427  -2.018  -1.401  0.00  0.00     0.039 A 
BRANCH  13  16
ATOM     16  N   UNL d   1      -6.090  -2.570  -0.770  0.00  0.00    -0.323 N 
ATOM     17  C   UNL d   1      -6.749  -1.919  -1.832  0.00  0.00     0.256 C 
ATOM     18  O   UNL d   1      -6.234  -1.231  -2.708  0.00  0.00    -0.267 OA
ATOM     19  H   UNL d   1      -6.630  -3.043  -0.054  0.00  0.00     0.169 HD
BRANCH  17  20
ATOM     20  C   UNL d   1      -8.230  -1.963  -1.913  0.00  0.00     0.034 A 
ATOM     21  C   UNL d   1      -8.917  -1.994  -3.115  0.00  0.00     0.017 A 
ATOM     22  C   UNL d   1     -10.299  -1.752  -3.123  0.00  0.00     0.003 A 
ATOM     23  C   UNL d   1     -11.003  -1.519  -1.922  0.00  0.00     0.029 A 
ATOM     24  C   UNL d   1     -10.302  -1.468  -0.711  0.00  0.00     0.037 A 
ATOM     25  C   UNL d   1      -8.942  -1.735  -0.759  0.00  0.00     0.046 A 
BRANCH  24  26
ATOM     26  N   UNL d   1     -10.932  -1.134   0.510  0.00  0.00    -0.309 N 
ATOM     27  C   UNL d   1     -10.439  -0.953   1.776  0.00  0.00     0.318 C 
ATOM     28  N   UNL d   1      -9.130  -1.159   2.063  0.00  0.00    -0.352 N 
ATOM     29  O   UNL d   1     -11.193  -0.651   2.699  0.00  0.00    -0.247 OA
ATOM     30  H   UNL d   1      -8.377  -0.912   1.449  0.00  0.00     0.160 HD
ATOM     31  H   UNL d   1      -8.848  -0.946   3.010  0.00  0.00     0.160 HD
ATOM     32  H   UNL d   1     -11.934  -0.966   0.476  0.00  0.00     0.170 HD
ENDBRANCH  24  26
ENDBRANCH  17  20
ENDBRANCH  13  16
ENDBRANCH   9  10
ENDBRANCH   8   9
TORSDOF 5
