@<TRIPOS>MOLECULE
*****
 51 52 0 0 0
SMALL
GASTEIGER

@<TRIPOS>ATOM
      1 C           0.9646    0.0373   -0.0605 C.3     1  UNL1        0.0004
      2 N           2.4163    0.0533    0.0340 N.pl3   1  UNL1       -0.3360
      3 C           3.1380    1.2467   -0.3915 C.3     1  UNL1        0.0004
      4 C           3.1366   -1.1046    0.2878 C.ar    1  UNL1        0.0292
      5 C           4.3132   -1.0813    1.0480 C.ar    1  UNL1       -0.0401
      6 C           5.1038   -2.2351    1.2464 C.ar    1  UNL1       -0.0528
      7 C           4.7056   -3.4861    0.7482 C.ar    1  UNL1       -0.0248
      8 C           5.4815   -4.7236    1.0619 C.2     1  UNL1       -0.0496
      9 C           5.1577   -5.9861    0.6956 C.2     1  UNL1        0.0022
     10 C           5.9605   -7.1982    1.0928 C.2     1  UNL1        0.2530
     11 O           6.9701   -7.1135    1.7936 O.2     1  UNL1       -0.2693
     12 N           5.4815   -8.4150    0.6159 N.am    1  UNL1       -0.2297
     13 N           6.1799   -9.6359    0.9268 N.am    1  UNL1       -0.2180
     14 C           5.7080  -10.8477    0.4443 C.2     1  UNL1        0.3160
     15 O           4.6976  -10.9421   -0.2530 O.2     1  UNL1       -0.2513
     16 N           6.4603  -11.9572    0.8036 N.am    1  UNL1       -0.2982
     17 C           6.0790  -13.3075    0.3687 C.3     1  UNL1        0.0147
     18 C           7.0262  -14.4108    0.8589 C.3     1  UNL1       -0.0191
     19 C           6.6104  -15.8120    0.3883 C.3     1  UNL1        0.0296
     20 N           7.5053  -16.8906    0.8762 N.ar    1  UNL1       -0.2957
     21 C           7.2352  -18.2581    0.7818 C.ar    1  UNL1        0.0732
     22 C           8.2895  -18.9168    1.3519 C.ar    1  UNL1        0.1870
     23 N           9.1694  -17.9473    1.7633 N.ar    1  UNL1       -0.2011
     24 C           8.7014  -16.7312    1.4687 C.ar    1  UNL1        0.2463
     25 C           3.5286   -3.5082   -0.0067 C.ar    1  UNL1       -0.0528
     26 C           2.7577   -2.3497   -0.2186 C.ar    1  UNL1       -0.0401
     27 H           0.5663    1.0192   -0.3409 H       1  UNL1        0.0428
     28 H           0.5397   -0.2112    0.9179 H       1  UNL1        0.0428
     29 H           0.5918   -0.6764   -0.8012 H       1  UNL1        0.0428
     30 H           2.4556    2.0606   -0.6613 H       1  UNL1        0.0428
     31 H           3.7564    1.0397   -1.2732 H       1  UNL1        0.0428
     32 H           3.7792    1.6260    0.4097 H       1  UNL1        0.0428
     33 H           4.6095   -0.1562    1.5398 H       1  UNL1        0.0636
     34 H           6.0308   -2.1184    1.8047 H       1  UNL1        0.0624
     35 H           6.3651   -4.5594    1.6802 H       1  UNL1        0.0625
     36 H           4.2766   -6.1805    0.0999 H       1  UNL1        0.0670
     37 H           4.6492   -8.5145    0.0370 H       1  UNL1        0.1731
     38 H           7.0091   -9.5244    1.5032 H       1  UNL1        0.1744
     39 H           7.2769  -11.8184    1.3817 H       1  UNL1        0.1503
     40 H           6.0455  -13.3122   -0.7273 H       1  UNL1        0.0463
     41 H           5.0622  -13.5059    0.7276 H       1  UNL1        0.0463
     42 H           7.0695  -14.4044    1.9546 H       1  UNL1        0.0297
     43 H           8.0405  -14.2006    0.5002 H       1  UNL1        0.0297
     44 H           6.6049  -15.8708   -0.7068 H       1  UNL1        0.0494
     45 H           5.6004  -16.0496    0.7448 H       1  UNL1        0.0494
     46 H           6.3185  -18.5901    0.3233 H       1  UNL1        0.0871
     47 H           8.5345  -19.9509    1.5224 H       1  UNL1        0.1392
     48 H          10.0583  -18.1164    2.2296 H       1  UNL1        0.4538
     49 H           9.2061  -15.7983    1.6853 H       1  UNL1        0.1600
     50 H           3.1740   -4.4229   -0.4670 H       1  UNL1        0.0624
     51 H           1.8657   -2.4470   -0.8299 H       1  UNL1        0.0636
@<TRIPOS>UNITY_ATOM_ATTR
23 1
charge 1
@<TRIPOS>BOND
     1     1     2    1
     2     2     3    1
     3     2     4    1
     4     4     5   ar
     5     5     6   ar
     6     6     7   ar
     7     7     8    1
     8     8     9    2
     9     9    10    1
    10    10    11    2
    11    10    12   am
    12    12    13    1
    13    13    14   am
    14    14    15    2
    15    14    16   am
    16    16    17    1
    17    17    18    1
    18    18    19    1
    19    19    20    1
    20    20    21   ar
    21    21    22   ar
    22    22    23   ar
    23    23    24   ar
    24    20    24   ar
    25     7    25   ar
    26    25    26   ar
    27     4    26   ar
    28     1    27    1
    29     1    28    1
    30     1    29    1
    31     3    30    1
    32     3    31    1
    33     3    32    1
    34     5    33    1
    35     6    34    1
    36     8    35    1
    37     9    36    1
    38    12    37    1
    39    13    38    1
    40    16    39    1
    41    17    40    1
    42    17    41    1
    43    18    42    1
    44    18    43    1
    45    19    44    1
    46    19    45    1
    47    21    46    1
    48    22    47    1
    49    23    48    1
    50    24    49    1
    51    25    50    1
    52    26    51    1
