@<TRIPOS>MOLECULE
*****
 54 56 0 0 0
SMALL
GASTEIGER

@<TRIPOS>ATOM
      1 C           1.0054   -0.0586    0.0819 C.3     1  UNL1       -0.0652
      2 C           2.5211   -0.0304    0.0632 C.3     1  UNL1       -0.0528
      3 C           3.0407    0.6496   -1.2061 C.3     1  UNL1       -0.0189
      4 C           4.5641    0.6723   -1.2007 C.3     1  UNL1        0.0896
      5 O           5.0654    1.2071   -2.4284 O.3     1  UNL1       -0.4909
      6 C           6.4341    1.2033   -2.5577 C.ar    1  UNL1        0.1344
      7 C           6.9859    2.3952   -3.0493 C.ar    1  UNL1       -0.0181
      8 C           8.3725    2.5038   -3.2694 C.ar    1  UNL1       -0.0461
      9 C           9.2477    1.4222   -3.0233 C.ar    1  UNL1        0.0383
     10 C          10.7160    1.5916   -3.2937 C.2     1  UNL1        0.2496
     11 O          11.0319    2.7106   -3.7106 O.2     1  UNL1       -0.2698
     12 N          11.6453    0.5416   -3.0827 N.am    1  UNL1       -0.2627
     13 C          13.0400    0.6003   -3.3020 C.2     1  UNL1        0.1533
     14 S          13.8863    1.9462   -3.8667 S.2     1  UNL1       -0.0170
     15 N          13.7453   -0.5778   -3.0184 N.am    1  UNL1       -0.2455
     16 N          15.1803   -0.6248   -3.2628 N.am    1  UNL1       -0.2337
     17 C          15.9053   -1.7197   -2.8199 C.2     1  UNL1        0.2488
     18 O          15.3110   -2.6128   -2.2147 O.2     1  UNL1       -0.2723
     19 C          17.4158   -1.7296   -3.1496 C.3     1  UNL1        0.1009
     20 N          18.0893   -3.0138   -2.8826 N.ar    1  UNL1       -0.3378
     21 C          19.3136   -3.1474   -2.2604 C.ar    1  UNL1        0.0062
     22 C          19.5690   -4.4926   -2.0976 C.ar    1  UNL1       -0.0364
     23 C          18.4904   -5.2113   -2.6747 C.ar    1  UNL1       -0.0001
     24 C          18.1844   -6.5835   -2.7871 C.ar    1  UNL1       -0.0526
     25 C          16.9959   -6.9797   -3.4089 C.ar    1  UNL1       -0.0611
     26 C          16.1335   -6.0327   -3.9443 C.ar    1  UNL1       -0.0598
     27 C          16.4397   -4.6729   -3.8846 C.ar    1  UNL1       -0.0376
     28 C          17.6064   -4.2709   -3.2121 C.ar    1  UNL1        0.0495
     29 C           8.6901    0.2389   -2.5608 C.ar    1  UNL1       -0.0321
     30 C           7.3020    0.1168   -2.3480 C.ar    1  UNL1        0.0602
     31 BR          6.7876   -1.6634   -1.9000 Br      1  UNL1       -0.0465
     32 H           0.6427   -0.5302    1.0001 H       1  UNL1        0.0230
     33 H           0.6182   -0.6255   -0.7706 H       1  UNL1        0.0230
     34 H           0.6029    0.9574    0.0339 H       1  UNL1        0.0230
     35 H           2.9001   -1.0592    0.1258 H       1  UNL1        0.0264
     36 H           2.8903    0.4987    0.9496 H       1  UNL1        0.0264
     37 H           2.6471    1.6672   -1.2963 H       1  UNL1        0.0298
     38 H           2.6892    0.0995   -2.0889 H       1  UNL1        0.0298
     39 H           4.8419   -0.3652   -1.0769 H       1  UNL1        0.0696
     40 H           4.9463    1.2458   -0.3490 H       1  UNL1        0.0696
     41 H           6.3460    3.2512   -3.2724 H       1  UNL1        0.0655
     42 H           8.7648    3.4519   -3.6457 H       1  UNL1        0.0626
     43 H          11.2875   -0.3404   -2.7466 H       1  UNL1        0.1569
     44 H          13.3580   -1.4495   -2.6531 H       1  UNL1        0.1718
     45 H          15.6001    0.2507   -3.5776 H       1  UNL1        0.1728
     46 H          17.9185   -0.9683   -2.5402 H       1  UNL1        0.0588
     47 H          17.6045   -1.5039   -4.2072 H       1  UNL1        0.0588
     48 H          19.9001   -2.2908   -1.9529 H       1  UNL1        0.0809
     49 H          20.4321   -4.9262   -1.6074 H       1  UNL1        0.0639
     50 H          18.8553   -7.3310   -2.3750 H       1  UNL1        0.0624
     51 H          16.7434   -8.0344   -3.4715 H       1  UNL1        0.0618
     52 H          15.1987   -6.3439   -4.4029 H       1  UNL1        0.0618
     53 H          15.7400   -3.9546   -4.2959 H       1  UNL1        0.0638
     54 H           9.3069   -0.6298   -2.3781 H       1  UNL1        0.0637
@<TRIPOS>BOND
     1     1     2    1
     2     2     3    1
     3     3     4    1
     4     4     5    1
     5     5     6    1
     6     6     7   ar
     7     7     8   ar
     8     8     9   ar
     9     9    10    1
    10    10    11    2
    11    10    12   am
    12    12    13    1
    13    13    14    2
    14    13    15    1
    15    15    16    1
    16    16    17   am
    17    17    18    2
    18    17    19    1
    19    19    20    1
    20    20    21   ar
    21    21    22   ar
    22    22    23   ar
    23    23    24   ar
    24    24    25   ar
    25    25    26   ar
    26    26    27   ar
    27    27    28   ar
    28    23    28   ar
    29    20    28   ar
    30     9    29   ar
    31    29    30   ar
    32     6    30   ar
    33    30    31    1
    34     1    32    1
    35     1    33    1
    36     1    34    1
    37     2    35    1
    38     2    36    1
    39     3    37    1
    40     3    38    1
    41     4    39    1
    42     4    40    1
    43     7    41    1
    44     8    42    1
    45    12    43    1
    46    15    44    1
    47    16    45    1
    48    19    46    1
    49    19    47    1
    50    21    48    1
    51    22    49    1
    52    24    50    1
    53    25    51    1
    54    26    52    1
    55    27    53    1
    56    29    54    1
