@<TRIPOS>MOLECULE
*****
 57 59 0 0 0
SMALL
GASTEIGER

@<TRIPOS>ATOM
      1 O           1.1445   -0.1443   -0.2620 O.2     1  UNL1       -0.2716
      2 C           2.3694   -0.0625   -0.1247 C.2     1  UNL1        0.2581
      3 C           3.0177    0.6279    1.1107 C.3     1  UNL1        0.1688
      4 O           2.0793    1.1518    2.0849 O.3     1  UNL1       -0.4517
      5 C           2.6410    1.8095    3.1409 C.2     1  UNL1        0.3397
      6 O           3.8403    1.9719    3.3296 O.2     1  UNL1       -0.2449
      7 C           1.6127    2.3650    4.0763 C.ar    1  UNL1        0.0609
      8 C           0.5330    1.5755    4.4695 C.ar    1  UNL1       -0.0463
      9 C          -0.4217    2.0883    5.3530 C.ar    1  UNL1       -0.0407
     10 C          -0.3284    3.3914    5.8663 C.ar    1  UNL1        0.0673
     11 CL         -1.6420    3.8241    6.8947 Cl      1  UNL1       -0.0815
     12 C           0.7672    4.1862    5.5207 C.ar    1  UNL1        0.1242
     13 S           1.0467    5.8446    6.1322 S.O2    1  UNL1        0.0601
     14 O           2.2140    5.7822    6.9795 O.2     1  UNL1       -0.1530
     15 O           0.9799    6.7375    4.9939 O.2     1  UNL1       -0.1530
     16 N          -0.2294    6.2375    7.1508 N.3     1  UNL1       -0.1856
     17 C          -0.2252    7.5949    7.7277 C.3     1  UNL1        0.0425
     18 C          -1.4134    7.8729    8.6384 C.ar    1  UNL1       -0.0319
     19 C          -1.7179    9.1981    8.9910 C.ar    1  UNL1       -0.0573
     20 C          -2.6798    9.4746    9.9690 C.ar    1  UNL1       -0.0615
     21 C          -3.4104    8.4397   10.5483 C.ar    1  UNL1       -0.0617
     22 C          -3.1498    7.1250   10.1838 C.ar    1  UNL1       -0.0615
     23 C          -2.1529    6.8462    9.2485 C.ar    1  UNL1       -0.0573
     24 C           1.7470    3.6587    4.6318 C.ar    1  UNL1       -0.0199
     25 N           3.1924   -0.6154   -1.1117 N.am    1  UNL1       -0.2374
     26 C           4.5715   -0.6207   -1.1402 C.2     1  UNL1        0.3062
     27 O           5.2486   -0.1006   -0.2609 O.2     1  UNL1       -0.2524
     28 N           5.1624   -1.2731   -2.2088 N.am    1  UNL1       -0.2962
     29 C           6.6310   -1.2922   -2.3245 C.3     1  UNL1        0.0246
     30 C           7.2091   -2.4547   -3.1345 C.3     1  UNL1       -0.0345
     31 C           8.6498   -2.0297   -3.4306 C.3     1  UNL1       -0.0513
     32 C           8.6235   -0.5044   -3.4981 C.3     1  UNL1       -0.0513
     33 C           7.2172   -0.0803   -3.0591 C.3     1  UNL1       -0.0345
     34 H           3.6231    1.4602    0.7352 H       1  UNL1        0.0796
     35 H           3.6365   -0.1230    1.6133 H       1  UNL1        0.0796
     36 H           0.4263    0.5548    4.1108 H       1  UNL1        0.0626
     37 H          -1.2611    1.4574    5.6447 H       1  UNL1        0.0633
     38 H          -0.2969    5.5322    7.8828 H       1  UNL1        0.1484
     39 H          -0.2094    8.3350    6.9207 H       1  UNL1        0.0490
     40 H           0.6737    7.7116    8.3452 H       1  UNL1        0.0490
     41 H          -1.1975   10.0291    8.5181 H       1  UNL1        0.0621
     42 H          -2.8496   10.4984   10.2925 H       1  UNL1        0.0618
     43 H          -4.1819    8.6556   11.2819 H       1  UNL1        0.0618
     44 H          -3.7031    6.3076   10.6390 H       1  UNL1        0.0618
     45 H          -1.9728    5.8036    9.0170 H       1  UNL1        0.0621
     46 H           2.6162    4.2626    4.3655 H       1  UNL1        0.0646
     47 H           2.6770   -1.0425   -1.8671 H       1  UNL1        0.1592
     48 H           4.6135   -1.6163   -2.9855 H       1  UNL1        0.1505
     49 H           7.0506   -1.3298   -1.3108 H       1  UNL1        0.0499
     50 H           6.6678   -2.5844   -4.0783 H       1  UNL1        0.0283
     51 H           7.1759   -3.4045   -2.5924 H       1  UNL1        0.0283
     52 H           9.0227   -2.4699   -4.3621 H       1  UNL1        0.0266
     53 H           9.3271   -2.3547   -2.6303 H       1  UNL1        0.0266
     54 H           8.8402   -0.1504   -4.5127 H       1  UNL1        0.0266
     55 H           9.3943   -0.0794   -2.8434 H       1  UNL1        0.0266
     56 H           6.6219    0.1560   -3.9490 H       1  UNL1        0.0283
     57 H           7.2461    0.8169   -2.4333 H       1  UNL1        0.0283
@<TRIPOS>BOND
     1     1     2    2
     2     2     3    1
     3     3     4    1
     4     4     5    1
     5     5     6    2
     6     5     7    1
     7     7     8   ar
     8     8     9   ar
     9     9    10   ar
    10    10    11    1
    11    10    12   ar
    12    12    13    1
    13    13    14    2
    14    13    15    2
    15    13    16    1
    16    16    17    1
    17    17    18    1
    18    18    19   ar
    19    19    20   ar
    20    20    21   ar
    21    21    22   ar
    22    22    23   ar
    23    18    23   ar
    24    12    24   ar
    25     7    24   ar
    26     2    25   am
    27    25    26   am
    28    26    27    2
    29    26    28   am
    30    28    29    1
    31    29    30    1
    32    30    31    1
    33    31    32    1
    34    32    33    1
    35    29    33    1
    36     3    34    1
    37     3    35    1
    38     8    36    1
    39     9    37    1
    40    16    38    1
    41    17    39    1
    42    17    40    1
    43    19    41    1
    44    20    42    1
    45    21    43    1
    46    22    44    1
    47    23    45    1
    48    24    46    1
    49    25    47    1
    50    28    48    1
    51    29    49    1
    52    30    50    1
    53    30    51    1
    54    31    52    1
    55    31    53    1
    56    32    54    1
    57    32    55    1
    58    33    56    1
    59    33    57    1
