REMARK  8 active torsions:
REMARK  status: ('A' for Active; 'I' for Inactive)
REMARK    1  A    between atoms: O_2  and  C_3 
REMARK    2  A    between atoms: C_8  and  C_9 
REMARK       I    between atoms: C_9  and  N_11 
REMARK    3  A    between atoms: N_11  and  C_12 
REMARK    4  A    between atoms: C_12  and  C_13 
REMARK    5  A    between atoms: N_20  and  N_21 
REMARK       I    between atoms: N_21  and  C_22 
REMARK    6  A    between atoms: C_22  and  C_24 
REMARK    7  A    between atoms: C_29  and  N_30 
REMARK    8  A    between atoms: N_30  and  C_31 
ROOT
ATOM      1  C   UNL d   1       2.979   0.767  -1.049  0.00  0.00     0.070 C 
ATOM      2  C   UNL d   1       2.649   2.112  -1.220  0.00  0.00     0.038 C 
ATOM      3  C   UNL d   1       3.439   2.930  -2.032  0.00  0.00     0.017 C 
ATOM      4  C   UNL d   1       4.386   2.355  -2.874  0.00  0.00    -0.001 C 
ATOM      5  C   UNL d   1       5.039   3.118  -3.932  0.00  0.00     0.035 C 
ATOM      6  C   UNL d   1       5.825   2.522  -4.852  0.00  0.00     0.085 C 
ATOM      7  C   UNL d   1       6.006   1.061  -4.709  0.00  0.00     0.178 C 
ATOM      8  N   UNL d   1       6.603   0.313  -5.553  0.00  0.00    -0.276 N 
ATOM      9  O   UNL d   1       5.536   0.355  -3.626  0.00  0.00    -0.291 OA
ATOM     10  C   UNL d   1       4.655   0.997  -2.743  0.00  0.00     0.090 C 
ATOM     11  C   UNL d   1       4.032   0.216  -1.774  0.00  0.00     0.074 C 
ATOM     12  H   UNL d   1       6.936   0.738  -6.417  0.00  0.00     0.189 HD
ENDROOT
BRANCH   6  13
ATOM     13  C   UNL d   1       6.363   3.423  -5.961  0.00  0.00     0.256 C 
ATOM     14  O   UNL d   1       6.093   4.620  -5.969  0.00  0.00    -0.268 OA
ATOM     15  N   UNL d   1       7.152   2.864  -6.947  0.00  0.00    -0.352 N 
ATOM     16  H   UNL d   1       7.766   2.101  -6.783  0.00  0.00     0.163 HD
BRANCH  15  17
ATOM     17  C   UNL d   1       7.725   3.629  -8.072  0.00  0.00     0.161 C 
BRANCH  17  18
ATOM     18  C   UNL d   1       8.460   2.721  -9.064  0.00  0.00    -0.041 C 
ATOM     19  C   UNL d   1       9.461   3.201  -9.916  0.00  0.00     0.009 C 
ATOM     20  C   UNL d   1      10.085   2.349 -10.853  0.00  0.00     0.001 C 
ATOM     21  C   UNL d   1       9.854   0.975 -10.847  0.00  0.00     0.000 C 
ATOM     22  C   UNL d   1       8.973   0.462  -9.918  0.00  0.00     0.001 C 
ATOM     23  C   UNL d   1       8.223   1.341  -9.123  0.00  0.00     0.009 C 
ENDBRANCH  17  18
ENDBRANCH  15  17
ENDBRANCH   6  13
BRANCH   8  24
ATOM     24  N   UNL d   1       6.917  -1.036  -5.448  0.00  0.00    -0.264 N 
ATOM     25  C   UNL d   1       7.652  -1.555  -6.497  0.00  0.00     0.272 C 
ATOM     26  O   UNL d   1       7.834  -0.923  -7.541  0.00  0.00    -0.266 OA
ATOM     27  H   UNL d   1       6.685  -1.550  -4.601  0.00  0.00     0.190 HD
BRANCH  25  28
ATOM     28  C   UNL d   1       8.181  -2.890  -6.353  0.00  0.00     0.060 C 
ATOM     29  C   UNL d   1       7.159  -3.814  -6.137  0.00  0.00     0.019 C 
ATOM     30  C   UNL d   1       7.486  -5.087  -5.740  0.00  0.00     0.001 C 
ATOM     31  C   UNL d   1       8.821  -5.474  -5.749  0.00  0.00     0.002 C 
ATOM     32  C   UNL d   1       9.832  -4.592  -6.167  0.00  0.00     0.030 C 
ATOM     33  C   UNL d   1       9.550  -3.243  -6.414  0.00  0.00     0.048 C 
BRANCH  33  34
ATOM     34  N   UNL d   1      10.627  -2.361  -6.662  0.00  0.00    -0.355 N 
ATOM     35  H   UNL d   1      11.549  -2.779  -6.779  0.00  0.00     0.166 HD
BRANCH  34  36
ATOM     36  C   UNL d   1      10.667  -0.956  -6.636  0.00  0.00     0.032 C 
ATOM     37  C   UNL d   1      10.030  -0.252  -5.606  0.00  0.00     0.029 C 
ATOM     38  C   UNL d   1       9.770   1.107  -5.720  0.00  0.00     0.002 C 
ATOM     39  C   UNL d   1      10.335   1.814  -6.764  0.00  0.00     0.000 C 
ATOM     40  C   UNL d   1      11.110   1.156  -7.716  0.00  0.00     0.002 C 
ATOM     41  C   UNL d   1      11.222  -0.235  -7.694  0.00  0.00     0.029 C 
ENDBRANCH  34  36
ENDBRANCH  33  34
ENDBRANCH  25  28
ENDBRANCH   8  24
BRANCH   1  42
ATOM     42  O   UNL d   1       2.386  -0.048  -0.128  0.00  0.00    -0.356 OA
ATOM     43  C   UNL d   1       0.963   0.033  -0.093  0.00  0.00     0.210 C 
ENDBRANCH   1  42
TORSDOF 8
