@<TRIPOS>MOLECULE
*****
 56 59 0 0 0
SMALL
GASTEIGER

@<TRIPOS>ATOM
      1 C           1.1273   -0.0890    0.0474 C.3     1  UNL1        0.0788
      2 O           2.5482   -0.0165    0.1810 O.3     1  UNL1       -0.4949
      3 C           3.2055   -1.1856    0.4713 C.ar    1  UNL1        0.1253
      4 C           4.4351   -1.0674    1.1490 C.ar    1  UNL1        0.0015
      5 C           5.2624   -2.1885    1.3670 C.ar    1  UNL1        0.0397
      6 N           6.6121   -2.0322    1.7940 N.pl3   1  UNL1       -0.2941
      7 C           7.5011   -3.0471    2.0725 C.2     1  UNL1        0.1543
      8 N           8.1558   -3.1571    3.1806 N.2     1  UNL1       -0.2561
      9 C           9.0015   -4.3858    3.2447 C.3     1  UNL1        0.0944
     10 C           8.4942   -5.3470    4.3652 C.3     1  UNL1        0.1043
     11 O           7.0690   -5.3250    4.4829 O.3     1  UNL1       -0.3871
     12 C           8.9148   -6.8152    4.2070 C.3     1  UNL1        0.0838
     13 O          10.2704   -6.9720    4.6010 O.3     1  UNL1       -0.3891
     14 C           8.5845   -7.2884    2.7898 C.3     1  UNL1       -0.0121
     15 C           9.3082   -6.4894    1.6971 C.3     1  UNL1        0.0525
     16 C          10.7735   -6.9299    1.5995 C.2     1  UNL1        0.2215
     17 O          11.0849   -7.8868    0.9072 O.2     1  UNL1       -0.2751
     18 N          11.6385   -6.2936    2.4903 N.am    1  UNL1       -0.2852
     19 C          13.0122   -6.5569    2.5703 C.ar    1  UNL1        0.0334
     20 C          13.6514   -6.5677    3.8170 C.ar    1  UNL1       -0.0405
     21 C          15.0399   -6.6920    3.8728 C.ar    1  UNL1       -0.0600
     22 C          15.7723   -6.8083    2.6908 C.ar    1  UNL1       -0.0616
     23 C          15.1246   -6.7903    1.4561 C.ar    1  UNL1       -0.0600
     24 C          13.7437   -6.6752    1.3972 C.ar    1  UNL1       -0.0405
     25 C           9.2145   -4.9638    1.8357 C.3     1  UNL1        0.0485
     26 S           7.9010   -4.2318    0.8389 S.3     1  UNL1       -0.0843
     27 C           4.7504   -3.4334    0.9909 C.ar    1  UNL1        0.0015
     28 C           3.5537   -3.5624    0.2889 C.ar    1  UNL1        0.1253
     29 O           3.2760   -4.8365   -0.1277 O.3     1  UNL1       -0.4949
     30 C           2.1341   -4.9831   -0.9610 C.3     1  UNL1        0.0788
     31 C           2.7872   -2.4344    0.0207 C.ar    1  UNL1        0.0219
     32 H           0.7731    0.8794   -0.3216 H       1  UNL1        0.0660
     33 H           0.6737   -0.2665    1.0267 H       1  UNL1        0.0660
     34 H           0.7813   -0.8337   -0.6766 H       1  UNL1        0.0660
     35 H           4.7335   -0.0791    1.4926 H       1  UNL1        0.0673
     36 H           6.7464   -1.2041    2.3620 H       1  UNL1        0.1540
     37 H           9.9925   -4.0448    3.5726 H       1  UNL1        0.0583
     38 H           8.8983   -4.9790    5.3172 H       1  UNL1        0.0641
     39 H           6.6874   -5.4750    3.6040 H       1  UNL1        0.2100
     40 H           8.3432   -7.4369    4.9069 H       1  UNL1        0.0620
     41 H          10.8379   -7.1878    3.8442 H       1  UNL1        0.2099
     42 H           7.5008   -7.1854    2.6323 H       1  UNL1        0.0298
     43 H           8.7931   -8.3613    2.6878 H       1  UNL1        0.0298
     44 H           8.8764   -6.7966    0.7314 H       1  UNL1        0.0407
     45 H          11.3385   -5.5450    3.1041 H       1  UNL1        0.1548
     46 H          13.0898   -6.5370    4.7500 H       1  UNL1        0.0636
     47 H          15.5544   -6.6936    4.8314 H       1  UNL1        0.0618
     48 H          16.8525   -6.9145    2.7268 H       1  UNL1        0.0618
     49 H          15.6875   -6.8468    0.5305 H       1  UNL1        0.0618
     50 H          13.2455   -6.6161    0.4341 H       1  UNL1        0.0636
     51 H          10.1273   -4.5181    1.4203 H       1  UNL1        0.0445
     52 H           5.2925   -4.3464    1.2030 H       1  UNL1        0.0673
     53 H           2.0653   -6.0311   -1.2626 H       1  UNL1        0.0660
     54 H           2.2238   -4.3796   -1.8717 H       1  UNL1        0.0660
     55 H           1.2260   -4.7290   -0.4056 H       1  UNL1        0.0660
     56 H           1.8883   -2.5265   -0.5701 H       1  UNL1        0.0691
@<TRIPOS>BOND
     1     1     2    1
     2     2     3    1
     3     3     4   ar
     4     4     5   ar
     5     5     6    1
     6     6     7    1
     7     7     8    2
     8     8     9    1
     9     9    10    1
    10    10    12    1
    11    12    13    1
    12    12    14    1
    13    14    15    1
    14    16    17    2
    15    16    18   am
    16    18    19    1
    17    19    20   ar
    18    20    21   ar
    19    21    22   ar
    20    22    23   ar
    21    23    24   ar
    22    19    24   ar
    23    15    25    1
    24     9    25    1
    25    25    26    1
    26     7    26    1
    27     5    27   ar
    28    27    28   ar
    29    28    29    1
    30    29    30    1
    31    28    31   ar
    32     3    31   ar
    33    15    16    1
    34    10    11    1
    35     1    32    1
    36     1    33    1
    37     1    34    1
    38     4    35    1
    39     6    36    1
    40     9    37    1
    41    10    38    1
    42    11    39    1
    43    12    40    1
    44    13    41    1
    45    14    42    1
    46    14    43    1
    47    15    44    1
    48    18    45    1
    49    20    46    1
    50    21    47    1
    51    22    48    1
    52    23    49    1
    53    24    50    1
    54    25    51    1
    55    27    52    1
    56    30    53    1
    57    30    54    1
    58    30    55    1
    59    31    56    1
