REMARK  10 active torsions:
REMARK  status: ('A' for Active; 'I' for Inactive)
REMARK    1  A    between atoms: C_2  and  O_3 
REMARK    2  A    between atoms: O_3  and  C_4 
REMARK    3  A    between atoms: C_4  and  C_6 
REMARK    4  A    between atoms: C_9  and  N_10 
REMARK    5  A    between atoms: N_10  and  C_11 
REMARK    6  A    between atoms: C_11  and  N_13 
REMARK    7  A    between atoms: N_13  and  N_14 
REMARK       I    between atoms: N_14  and  C_15 
REMARK    8  A    between atoms: C_15  and  C_17 
REMARK    9  A    between atoms: N_20  and  C_21 
REMARK   10  A    between atoms: C_21  and  C_22 
ROOT
ATOM      1  N   UNL d   1       5.973  10.463  -0.995  0.00  0.00    -0.268 N 
ATOM      2  C   UNL d   1       6.002  11.785  -1.482  0.00  0.00     0.240 C 
ATOM      3  O   UNL d   1       6.709  12.082  -2.443  0.00  0.00    -0.271 OA
ATOM      4  H   UNL d   1       5.313  10.190  -0.294  0.00  0.00     0.190 HD
ENDROOT
BRANCH   1   5
ATOM      5  N   UNL d   1       6.264   9.244  -1.794  0.00  0.00    -0.274 N 
ATOM      6  H   UNL d   1       6.879   9.409  -2.591  0.00  0.00     0.189 HD
BRANCH   5   7
ATOM      7  C   UNL d   1       6.088   7.970  -1.180  0.00  0.00     0.191 C 
ATOM      8  S   UNL d   1       5.817   7.800   0.457  0.00  0.00    -0.039 SA
BRANCH   7   9
ATOM      9  N   UNL d   1       6.216   6.829  -1.955  0.00  0.00    -0.332 N 
ATOM     10  H   UNL d   1       6.975   6.861  -2.629  0.00  0.00     0.168 HD
BRANCH   9  11
ATOM     11  C   UNL d   1       5.763   5.473  -1.579  0.00  0.00     0.034 A 
ATOM     12  C   UNL d   1       6.418   4.362  -2.114  0.00  0.00     0.030 A 
ATOM     13  C   UNL d   1       5.943   3.042  -1.867  0.00  0.00     0.020 A 
ATOM     14  C   UNL d   1       4.853   2.799  -1.013  0.00  0.00     0.039 A 
ATOM     15  C   UNL d   1       4.238   3.877  -0.413  0.00  0.00     0.020 A 
ATOM     16  C   UNL d   1       4.673   5.178  -0.713  0.00  0.00     0.030 A 
BRANCH  14  17
ATOM     17  C   UNL d   1       4.425   1.424  -0.613  0.00  0.00     0.293 C 
ATOM     18  O   UNL d   1       5.201   0.541  -0.380  0.00  0.00    -0.259 OA
BRANCH  17  19
ATOM     19  O   UNL d   1       3.055   1.365  -0.512  0.00  0.00    -0.318 OA
BRANCH  19  20
ATOM     20  C   UNL d   1       2.557   0.078  -0.103  0.00  0.00     0.174 C 
ATOM     21  C   UNL d   1       1.034   0.079  -0.094  0.00  0.00     0.034 C 
ENDBRANCH  19  20
ENDBRANCH  17  19
ENDBRANCH  14  17
ENDBRANCH   9  11
ENDBRANCH   7   9
ENDBRANCH   5   7
ENDBRANCH   1   5
BRANCH   2  22
ATOM     22  C   UNL d   1       4.995  12.918  -0.851  0.00  0.00     0.082 C 
ATOM     23  C   UNL d   1       4.942  13.160   0.666  0.00  0.00     0.042 C 
ATOM     24  C   UNL d   1       4.811  11.846   1.371  0.00  0.00     0.236 C 
ATOM     25  N   UNL d   1       3.523  11.143   0.822  0.00  0.00    -0.067 N 
ATOM     26  C   UNL d   1       3.184  11.305  -0.666  0.00  0.00     0.236 C 
ATOM     27  H   UNL d   1       2.738  11.586   1.307  0.00  0.00     0.280 HD
ATOM     28  C   UNL d   1       3.547  12.634  -1.246  0.00  0.00     0.042 C 
BRANCH  25  29
ATOM     29  C   UNL d   1       3.469   9.725   1.344  0.00  0.00     0.275 C 
BRANCH  29  30
ATOM     30  C   UNL d   1       2.449   8.730   0.802  0.00  0.00    -0.011 C 
ATOM     31  C   UNL d   1       1.799   7.960   1.799  0.00  0.00     0.013 C 
ATOM     32  C   UNL d   1       0.842   6.990   1.471  0.00  0.00     0.043 C 
ATOM     33  C   UNL d   1       0.430   6.839   0.162  0.00  0.00     0.118 C 
ATOM     34  F   UNL d   1      -0.533   5.974  -0.162  0.00  0.00    -0.206 F 
ATOM     35  C   UNL d   1       1.049   7.534  -0.840  0.00  0.00     0.066 C 
ATOM     36  C   UNL d   1       2.110   8.386  -0.543  0.00  0.00     0.044 C 
ATOM     37 CL   UNL d   1       2.922   8.726  -2.035  0.00  0.00    -0.084 Cl
ENDBRANCH  29  30
ENDBRANCH  25  29
ENDBRANCH   2  22
TORSDOF 10
