@<TRIPOS>MOLECULE
*****
 62 64 0 0 0
SMALL
GASTEIGER

@<TRIPOS>ATOM
      1 C           0.9420    0.0676    0.0363 C.3     1  UNL1       -0.0416
      2 C           2.4574    0.0615    0.0509 C.3     1  UNL1        0.0450
      3 O           2.9465    0.5489   -1.1988 O.3     1  UNL1       -0.3767
      4 C           4.3770    0.5397   -1.2235 C.3     1  UNL1        0.0817
      5 C           4.8798    1.0540   -2.5709 C.3     1  UNL1        0.1128
      6 O           6.3104    0.9755   -2.6011 O.3     1  UNL1       -0.4897
      7 C           6.9059    1.5170   -3.7090 C.ar    1  UNL1        0.1207
      8 C           8.0280    0.8598   -4.2010 C.ar    1  UNL1       -0.0192
      9 C           8.7395    1.4071   -5.2814 C.ar    1  UNL1       -0.0462
     10 C           8.3132    2.5888   -5.9390 C.ar    1  UNL1        0.0373
     11 C           9.0589    3.0101   -7.1818 C.2     1  UNL1        0.2495
     12 O          10.0075    2.2835   -7.4782 O.2     1  UNL1       -0.2698
     13 N           8.6641    4.1362   -7.9549 N.am    1  UNL1       -0.2627
     14 C           9.2626    4.5837   -9.1605 C.2     1  UNL1        0.1533
     15 S          10.5793    3.8495   -9.9239 S.2     1  UNL1       -0.0170
     16 N           8.6894    5.7380   -9.7331 N.am    1  UNL1       -0.2453
     17 N           9.2500    6.2531  -10.9716 N.am    1  UNL1       -0.2311
     18 C           8.8124    7.4285  -11.5667 C.2     1  UNL1        0.2601
     19 O           7.8984    8.1163  -11.1070 O.2     1  UNL1       -0.2687
     20 C           9.4979    7.8361  -12.8486 C.ar    1  UNL1        0.0383
     21 C           9.7893    9.1789  -13.1534 C.ar    1  UNL1       -0.0478
     22 C          10.3427    9.5477  -14.4116 C.ar    1  UNL1       -0.0398
     23 C          10.6610    8.5721  -15.3675 C.ar    1  UNL1        0.0337
     24 N          11.3257    8.9248  -16.5845 N.am    1  UNL1       -0.2815
     25 C          11.7234    8.0178  -17.5659 C.2     1  UNL1        0.2483
     26 O          11.5267    6.8008  -17.5626 O.2     1  UNL1       -0.2699
     27 C          12.4707    8.5207  -18.7435 C.ar    1  UNL1        0.0370
     28 C          12.1783    7.9597  -19.9997 C.ar    1  UNL1       -0.0496
     29 C          12.9826    8.2396  -21.1050 C.ar    1  UNL1       -0.0610
     30 C          14.0509    9.1231  -20.9729 C.ar    1  UNL1       -0.0617
     31 C          14.3481    9.6803  -19.7261 C.ar    1  UNL1       -0.0610
     32 C          13.5691    9.3710  -18.6049 C.ar    1  UNL1       -0.0496
     33 C          10.3260    7.2503  -15.0572 C.ar    1  UNL1       -0.0398
     34 C           9.7613    6.8807  -13.8259 C.ar    1  UNL1       -0.0478
     35 C           7.2088    3.2532   -5.4106 C.ar    1  UNL1       -0.0462
     36 C           6.5207    2.7231   -4.2994 C.ar    1  UNL1       -0.0192
     37 H           0.5477   -0.3032    0.9872 H       1  UNL1        0.0252
     38 H           0.5589   -0.5621   -0.7732 H       1  UNL1        0.0252
     39 H           0.5589    1.0789   -0.1335 H       1  UNL1        0.0252
     40 H           2.8190   -0.9598    0.2120 H       1  UNL1        0.0557
     41 H           2.8204    0.7037    0.8606 H       1  UNL1        0.0557
     42 H           4.7468   -0.4769   -1.0486 H       1  UNL1        0.0594
     43 H           4.7596    1.1802   -0.4192 H       1  UNL1        0.0594
     44 H           4.5140    2.0784   -2.6917 H       1  UNL1        0.0720
     45 H           4.4638    0.4425   -3.3802 H       1  UNL1        0.0720
     46 H           8.3486   -0.0846   -3.7625 H       1  UNL1        0.0654
     47 H           9.6409    0.8872   -5.6116 H       1  UNL1        0.0626
     48 H           7.8641    4.6569   -7.6327 H       1  UNL1        0.1569
     49 H           7.8926    6.2620   -9.3761 H       1  UNL1        0.1718
     50 H          10.0623    5.7403  -11.3194 H       1  UNL1        0.1731
     51 H           9.5958    9.9527  -12.4115 H       1  UNL1        0.0626
     52 H          10.5038   10.6051  -14.6191 H       1  UNL1        0.0636
     53 H          11.5478    9.9039  -16.7269 H       1  UNL1        0.1551
     54 H          11.3397    7.2733  -20.1097 H       1  UNL1        0.0625
     55 H          12.7920    7.7504  -22.0579 H       1  UNL1        0.0618
     56 H          14.6627    9.3637  -21.8397 H       1  UNL1        0.0618
     57 H          15.2143   10.3298  -19.6240 H       1  UNL1        0.0618
     58 H          13.8634    9.7460  -17.6301 H       1  UNL1        0.0625
     59 H          10.4765    6.4464  -15.7675 H       1  UNL1        0.0636
     60 H           9.5100    5.8346  -13.6798 H       1  UNL1        0.0626
     61 H           6.8554    4.1898   -5.8205 H       1  UNL1        0.0626
     62 H           5.6875    3.2902   -3.8985 H       1  UNL1        0.0654
@<TRIPOS>BOND
     1     1     2    1
     2     2     3    1
     3     3     4    1
     4     4     5    1
     5     5     6    1
     6     6     7    1
     7     7     8   ar
     8     8     9   ar
     9     9    10   ar
    10    10    11    1
    11    11    12    2
    12    11    13   am
    13    13    14    1
    14    14    15    2
    15    14    16    1
    16    16    17    1
    17    17    18   am
    18    18    19    2
    19    18    20    1
    20    20    21   ar
    21    21    22   ar
    22    22    23   ar
    23    23    24    1
    24    24    25   am
    25    25    26    2
    26    25    27    1
    27    27    28   ar
    28    28    29   ar
    29    29    30   ar
    30    30    31   ar
    31    31    32   ar
    32    27    32   ar
    33    23    33   ar
    34    33    34   ar
    35    20    34   ar
    36    10    35   ar
    37    35    36   ar
    38     7    36   ar
    39     1    37    1
    40     1    38    1
    41     1    39    1
    42     2    40    1
    43     2    41    1
    44     4    42    1
    45     4    43    1
    46     5    44    1
    47     5    45    1
    48     8    46    1
    49     9    47    1
    50    13    48    1
    51    16    49    1
    52    17    50    1
    53    21    51    1
    54    22    52    1
    55    24    53    1
    56    28    54    1
    57    29    55    1
    58    30    56    1
    59    31    57    1
    60    32    58    1
    61    33    59    1
    62    34    60    1
    63    35    61    1
    64    36    62    1
