REMARK  6 active torsions:
REMARK  status: ('A' for Active; 'I' for Inactive)
REMARK    1  A    between atoms: C_2  and  C_3 
REMARK       I    between atoms: C_2  and  N_14 
REMARK    2  A    between atoms: C_4  and  C_5 
REMARK    3  A    between atoms: C_8  and  N_9 
REMARK    4  A    between atoms: N_14  and  N_15 
REMARK       I    between atoms: N_15  and  C_16 
REMARK       I    between atoms: C_16  and  N_18 
REMARK    5  A    between atoms: N_18  and  C_19 
REMARK    6  A    between atoms: C_19  and  C_20 
ROOT
ATOM      1  O   UNL d   1       1.160  -0.019   0.017  0.00  0.00    -0.267 OA
ATOM      2  C   UNL d   1       2.390  -0.056  -0.006  0.00  0.00     0.259 C 
ATOM      3  N   UNL d   1       3.137   0.954   0.562  0.00  0.00    -0.263 N 
ATOM      4  H   UNL d   1       2.623   1.727   0.990  0.00  0.00     0.190 HD
ENDROOT
BRANCH   2   5
ATOM      5  C   UNL d   1       3.107  -1.195  -0.650  0.00  0.00     0.076 C 
ATOM      6  C   UNL d   1       2.451  -2.213  -1.237  0.00  0.00     0.017 C 
BRANCH   6   7
ATOM      7  C   UNL d   1       3.140  -3.349  -1.878  0.00  0.00    -0.036 A 
ATOM      8  C   UNL d   1       2.681  -3.836  -3.111  0.00  0.00     0.014 A 
ATOM      9  C   UNL d   1       3.270  -4.960  -3.706  0.00  0.00     0.037 A 
ATOM     10  C   UNL d   1       4.377  -5.564  -3.099  0.00  0.00     0.102 A 
ATOM     11  C   UNL d   1       4.840  -5.101  -1.862  0.00  0.00     0.037 A 
ATOM     12  C   UNL d   1       4.212  -4.006  -1.254  0.00  0.00     0.014 A 
BRANCH  10  13
ATOM     13  N   UNL d   1       5.096  -6.642  -3.793  0.00  0.00    -0.116 N 
ATOM     14  O   UNL d   1       4.668  -7.001  -4.900  0.00  0.00    -0.532 OA
ATOM     15  O   UNL d   1       6.105  -7.108  -3.245  0.00  0.00    -0.532 OA
ENDBRANCH  10  13
ENDBRANCH   6   7
ENDBRANCH   2   5
BRANCH   3  16
ATOM     16  N   UNL d   1       4.542   1.053   0.618  0.00  0.00    -0.249 N 
ATOM     17  C   UNL d   1       5.123   2.158   1.219  0.00  0.00     0.334 C 
ATOM     18  O   UNL d   1       4.474   3.068   1.731  0.00  0.00    -0.246 OA
ATOM     19  N   UNL d   1       6.497   2.129   1.177  0.00  0.00    -0.341 N 
ATOM     20  H   UNL d   1       6.952   1.322   0.792  0.00  0.00     0.164 HD
ATOM     21  H   UNL d   1       5.113   0.337   0.200  0.00  0.00     0.192 HD
BRANCH  19  22
ATOM     22  C   UNL d   1       7.312   3.176   1.767  0.00  0.00     0.129 C 
BRANCH  22  23
ATOM     23  C   UNL d   1       8.796   2.939   1.653  0.00  0.00     0.003 A 
ATOM     24  C   UNL d   1       9.437   1.786   0.906  0.00  0.00     0.007 A 
ATOM     25  C   UNL d   1       9.507   3.174   0.337  0.00  0.00     0.007 A 
ENDBRANCH  22  23
ENDBRANCH  19  22
ENDBRANCH   3  16
TORSDOF 6
