@<TRIPOS>MOLECULE
*****
 55 59 0 0 0
SMALL
GASTEIGER

@<TRIPOS>ATOM
      1 C           1.0943   -0.0335   -0.2076 C.3     1  UNL1       -0.0306
      2 C           2.6195   -0.0262   -0.2943 C.3     1  UNL1        0.0900
      3 O           3.0669    0.0077   -1.6796 O.3     1  UNL1       -0.4614
      4 C           4.4192   -0.1129   -1.8606 C.2     1  UNL1        0.3392
      5 O           5.2267   -0.2741   -0.9520 O.2     1  UNL1       -0.2450
      6 C           4.8452   -0.0623   -3.3159 C.ar    1  UNL1        0.0591
      7 C           5.9150   -0.8495   -3.7722 C.ar    1  UNL1       -0.0458
      8 C           6.3440   -0.8072   -5.1376 C.ar    1  UNL1       -0.0370
      9 C           5.7563    0.0697   -6.0830 C.ar    1  UNL1        0.0498
     10 N           6.1884    0.0885   -7.4884 N.ar    1  UNL1       -0.2802
     11 C           6.5816   -1.0374   -8.2812 C.ar    1  UNL1        0.1168
     12 N           6.2861   -2.3107   -7.9401 N.pl3   1  UNL1       -0.3435
     13 C           7.2209   -0.5817   -9.4397 C.ar    1  UNL1        0.1036
     14 C           7.5630   -1.2469  -10.7035 C.2     1  UNL1        0.2499
     15 O           7.3457   -2.4579  -10.8955 O.2     1  UNL1       -0.2700
     16 N           8.0383   -0.4154  -11.7036 N.am    1  UNL1       -0.3041
     17 C           8.3572   -0.8246  -13.0692 C.3     1  UNL1        0.0700
     18 C           8.7386    0.3585  -13.9149 C.ar    1  UNL1        0.1218
     19 C           8.4801    1.7172  -13.8560 C.ar    1  UNL1       -0.0192
     20 C           9.1070    2.3120  -14.9797 C.ar    1  UNL1       -0.0236
     21 C           9.7054    1.2848  -15.6681 C.ar    1  UNL1        0.0921
     22 O           9.4902    0.0996  -15.0343 O.2     1  UNL1       -0.4662
     23 C           7.4903    0.7424   -9.1103 C.ar    1  UNL1        0.1226
     24 N           8.4158    1.6247   -9.5592 N.ar    1  UNL1       -0.2412
     25 C           8.1162    2.8503   -9.1085 C.ar    1  UNL1        0.0900
     26 C           8.5378    3.4181   -7.8934 C.ar    1  UNL1       -0.0342
     27 C           8.0118    4.6657   -7.5132 C.ar    1  UNL1       -0.0596
     28 C           7.3769    5.3761   -8.5152 C.ar    1  UNL1       -0.0596
     29 C           6.8828    4.6046   -9.5541 C.ar    1  UNL1       -0.0342
     30 C           6.8470    3.2406   -9.2751 C.ar    1  UNL1        0.0916
     31 N           5.9585    2.4858   -8.4816 N.ar    1  UNL1       -0.2255
     32 C           6.3939    1.1825   -8.3601 C.ar    1  UNL1        0.1665
     33 C           4.7514    0.9162   -5.5952 C.ar    1  UNL1       -0.0370
     34 C           4.2770    0.8211   -4.2443 C.ar    1  UNL1       -0.0458
     35 H           0.7564   -0.0162    0.8370 H       1  UNL1        0.0262
     36 H           0.6755   -0.9276   -0.6806 H       1  UNL1        0.0262
     37 H           0.6654    0.8350   -0.7166 H       1  UNL1        0.0262
     38 H           3.0007   -0.9206    0.2151 H       1  UNL1        0.0695
     39 H           2.9923    0.8649    0.2246 H       1  UNL1        0.0695
     40 H           6.4309   -1.5054   -3.0668 H       1  UNL1        0.0626
     41 H           7.1887   -1.4408   -5.4136 H       1  UNL1        0.0638
     42 H           5.7070   -2.5610   -7.1440 H       1  UNL1        0.1437
     43 H           6.3822   -3.0484   -8.6419 H       1  UNL1        0.1437
     44 H           8.2713    0.5368  -11.4392 H       1  UNL1        0.1495
     45 H           7.4861   -1.3238  -13.5098 H       1  UNL1        0.0543
     46 H           9.1789   -1.5476  -13.0309 H       1  UNL1        0.0543
     47 H           7.9027    2.2223  -13.0960 H       1  UNL1        0.0652
     48 H           9.1150    3.3575  -15.2587 H       1  UNL1        0.0649
     49 H          10.2868    1.2391  -16.5804 H       1  UNL1        0.1029
     50 H           9.0651    2.7962   -7.1775 H       1  UNL1        0.0639
     51 H           8.0801    5.0477   -6.5035 H       1  UNL1        0.0618
     52 H           7.4960    6.4532   -8.5897 H       1  UNL1        0.0618
     53 H           7.2394    4.9440  -10.5429 H       1  UNL1        0.0639
     54 H           4.2713    1.6329   -6.2570 H       1  UNL1        0.0638
     55 H           3.4624    1.4674   -3.9229 H       1  UNL1        0.0626
@<TRIPOS>BOND
     1     1     2    1
     2     2     3    1
     3     3     4    1
     4     4     5    2
     5     4     6    1
     6     6     7   ar
     7     7     8   ar
     8     8     9   ar
     9     9    10    1
    10    10    11   ar
    11    11    12    1
    12    11    13   ar
    13    13    14    1
    14    14    15    2
    15    14    16   am
    16    16    17    1
    17    17    18    1
    18    18    19   ar
    19    19    20   ar
    20    20    21   ar
    21    21    22   ar
    22    18    22   ar
    23    13    23   ar
    24    23    24   ar
    25    24    25   ar
    26    25    26   ar
    27    26    27   ar
    28    27    28   ar
    29    28    29   ar
    30    29    30   ar
    31    25    30   ar
    32    30    31   ar
    33    31    32   ar
    34    23    32   ar
    35    10    32   ar
    36     9    33   ar
    37    33    34   ar
    38     6    34   ar
    39     1    35    1
    40     1    36    1
    41     1    37    1
    42     2    38    1
    43     2    39    1
    44     7    40    1
    45     8    41    1
    46    12    42    1
    47    12    43    1
    48    16    44    1
    49    17    45    1
    50    17    46    1
    51    19    47    1
    52    20    48    1
    53    21    49    1
    54    26    50    1
    55    27    51    1
    56    28    52    1
    57    29    53    1
    58    33    54    1
    59    34    55    1
