@<TRIPOS>MOLECULE
*****
 48 50 0 0 0
SMALL
GASTEIGER

@<TRIPOS>ATOM
      1 O           0.9339   -0.0354   -0.0773 O.2     1  UNL1       -0.2685
      2 C           2.1617   -0.0622    0.0193 C.2     1  UNL1        0.2633
      3 N           2.8784    0.2136    1.1780 N.am    1  UNL1       -0.2024
      4 N           2.2321    0.5573    2.3514 N.2     1  UNL1       -0.1780
      5 C           2.9351    0.8877    3.4041 C.2     1  UNL1        0.1085
      6 C           4.4714    0.8920    3.4351 C.2     1  UNL1        0.0731
      7 N           5.1430    0.5853    2.3703 N.2     1  UNL1       -0.1858
      8 N           6.5141    0.5578    2.4075 N.am    1  UNL1       -0.2029
      9 C           7.1905    0.2708    1.2208 C.2     1  UNL1        0.2633
     10 O           6.6291    0.0283    0.1515 O.2     1  UNL1       -0.2685
     11 C           8.6803    0.2854    1.2481 C.ar    1  UNL1        0.0386
     12 C           9.4085   -0.3214    2.2794 C.ar    1  UNL1       -0.0461
     13 C          10.8130   -0.3409    2.2354 C.ar    1  UNL1       -0.0195
     14 C          11.4810    0.2455    1.1624 C.ar    1  UNL1        0.1169
     15 O          12.8415    0.2533    1.0684 O.3     1  UNL1       -0.5068
     16 C          10.7687    0.8432    0.1300 C.ar    1  UNL1       -0.0195
     17 C           9.3701    0.8520    0.1639 C.ar    1  UNL1       -0.0461
     18 C           2.2178    1.2128    4.6930 C.ar    1  UNL1        0.0034
     19 C           2.6558    2.2330    5.5502 C.ar    1  UNL1       -0.0525
     20 C           2.0629    2.4076    6.8114 C.ar    1  UNL1       -0.0611
     21 C           0.9804    1.6186    7.1975 C.ar    1  UNL1       -0.0617
     22 C           0.4993    0.6409    6.3294 C.ar    1  UNL1       -0.0611
     23 C           1.1127    0.4391    5.0831 C.ar    1  UNL1       -0.0525
     24 C           2.9657   -0.3803   -1.2035 C.ar    1  UNL1        0.0386
     25 C           2.5627    0.1414   -2.4454 C.ar    1  UNL1       -0.0461
     26 C           3.2918   -0.1345   -3.6140 C.ar    1  UNL1       -0.0195
     27 C           4.4138   -0.9533   -3.5407 C.ar    1  UNL1        0.1169
     28 O           5.1731   -1.2473   -4.6359 O.3     1  UNL1       -0.5068
     29 C           4.7997   -1.5086   -2.3257 C.ar    1  UNL1       -0.0195
     30 C           4.0788   -1.2256   -1.1566 C.ar    1  UNL1       -0.0461
     31 H           3.9028    0.2525    1.1556 H       1  UNL1        0.1776
     32 H           4.9358    1.1384    4.4036 H       1  UNL1        0.0868
     33 H           7.0102    0.8316    3.2480 H       1  UNL1        0.1776
     34 H           8.8971   -0.8235    3.0951 H       1  UNL1        0.0626
     35 H          11.3650   -0.8272    3.0345 H       1  UNL1        0.0654
     36 H          13.2285   -0.2285    1.8172 H       1  UNL1        0.2921
     37 H          11.3027    1.2906   -0.7052 H       1  UNL1        0.0654
     38 H           8.8227    1.2972   -0.6653 H       1  UNL1        0.0626
     39 H           3.4417    2.9203    5.2514 H       1  UNL1        0.0624
     40 H           2.4454    3.1585    7.5006 H       1  UNL1        0.0618
     41 H           0.5054    1.7731    8.1655 H       1  UNL1        0.0618
     42 H          -0.3462    0.0241    6.6299 H       1  UNL1        0.0618
     43 H           0.7260   -0.3385    4.4268 H       1  UNL1        0.0624
     44 H           1.6781    0.7729   -2.5019 H       1  UNL1        0.0626
     45 H           2.9684    0.2933   -4.5583 H       1  UNL1        0.0654
     46 H           4.8298   -0.7664   -5.4060 H       1  UNL1        0.2921
     47 H           5.6724   -2.1548   -2.2835 H       1  UNL1        0.0654
     48 H           4.4013   -1.6767   -0.2230 H       1  UNL1        0.0626
@<TRIPOS>BOND
     1     1     2    2
     2     2     3   am
     3     3     4    1
     4     4     5    2
     5     5     6    1
     6     6     7    2
     7     7     8    1
     8     8     9   am
     9     9    10    2
    10     9    11    1
    11    11    12   ar
    12    12    13   ar
    13    13    14   ar
    14    14    15    1
    15    14    16   ar
    16    16    17   ar
    17    11    17   ar
    18     5    18    1
    19    18    19   ar
    20    19    20   ar
    21    20    21   ar
    22    21    22   ar
    23    22    23   ar
    24    18    23   ar
    25     2    24    1
    26    24    25   ar
    27    25    26   ar
    28    26    27   ar
    29    27    28    1
    30    27    29   ar
    31    29    30   ar
    32    24    30   ar
    33     3    31    1
    34     6    32    1
    35     8    33    1
    36    12    34    1
    37    13    35    1
    38    15    36    1
    39    16    37    1
    40    17    38    1
    41    19    39    1
    42    20    40    1
    43    21    41    1
    44    22    42    1
    45    23    43    1
    46    25    44    1
    47    26    45    1
    48    28    46    1
    49    29    47    1
    50    30    48    1
