REMARK  3 active torsions:
REMARK  status: ('A' for Active; 'I' for Inactive)
REMARK       I    between atoms: C_2  and  N_3 
REMARK    1  A    between atoms: C_2  and  C_12 
REMARK    2  A    between atoms: N_3  and  C_4 
REMARK    3  A    between atoms: C_10  and  O_11 
ROOT
ATOM      1  O   UNL d   1       1.070  -0.036   0.223  0.00  0.00    -0.267 OA
ATOM      2  C   UNL d   1       2.294  -0.057   0.065  0.00  0.00     0.256 C 
ATOM      3  N   UNL d   1       2.986  -0.964  -0.740  0.00  0.00    -0.320 N 
ATOM      4  H   UNL d   1       3.957  -1.153  -0.532  0.00  0.00     0.169 HD
ENDROOT
BRANCH   3   5
ATOM      5  C   UNL d   1       2.267  -1.896  -1.539  0.00  0.00     0.070 A 
ATOM      6  C   UNL d   1       2.593  -3.258  -1.532  0.00  0.00     0.056 A 
ATOM      7  C   UNL d   1       1.781  -4.163  -2.234  0.00  0.00     0.036 A 
ATOM      8 CL   UNL d   1       2.119  -5.854  -2.186  0.00  0.00    -0.084 Cl
ATOM      9  C   UNL d   1       0.673  -3.723  -2.963  0.00  0.00     0.026 A 
ATOM     10  C   UNL d   1       0.382  -2.364  -3.019  0.00  0.00     0.040 A 
ATOM     11  C   UNL d   1       1.192  -1.462  -2.333  0.00  0.00     0.092 A 
BRANCH  11  12
ATOM     12  O   UNL d   1       1.005  -0.118  -2.520  0.00  0.00    -0.358 OA
ATOM     13  H   UNL d   1       0.104   0.032  -2.844  0.00  0.00     0.217 HD
ENDBRANCH  11  12
ENDBRANCH   3   5
BRANCH   2  14
ATOM     14  C   UNL d   1       3.091   0.853   0.926  0.00  0.00     0.032 A 
ATOM     15  C   UNL d   1       2.612   1.084   2.227  0.00  0.00     0.018 A 
ATOM     16  C   UNL d   1       3.317   1.897   3.114  0.00  0.00     0.020 A 
ATOM     17  C   UNL d   1       4.494   2.506   2.692  0.00  0.00     0.011 A 
ATOM     18 BR   UNL d   1       5.479   3.567   3.908  0.00  0.00    -0.051 Br
ATOM     19  C   UNL d   1       4.952   2.332   1.383  0.00  0.00     0.020 A 
ATOM     20  C   UNL d   1       4.249   1.506   0.492  0.00  0.00     0.018 A 
ENDBRANCH   2  14
TORSDOF 3
