@<TRIPOS>MOLECULE
*****
 49 52 0 0 0
SMALL
GASTEIGER

@<TRIPOS>ATOM
      1 C           1.0039   -0.0629    0.0872 C.3     1  UNL1       -0.0639
      2 C           2.5326   -0.0771    0.0991 C.3     1  UNL1       -0.0402
      3 C           3.0907   -1.1827    1.0055 C.3     1  UNL1        0.0128
      4 N           4.5547   -1.2402    1.0551 N.am    1  UNL1       -0.2982
      5 C           5.2091   -2.1845    1.8218 C.2     1  UNL1        0.3160
      6 O           4.6206   -3.0195    2.5075 O.2     1  UNL1       -0.2513
      7 N           6.5929   -2.1283    1.7671 N.am    1  UNL1       -0.2180
      8 N           7.3493   -3.0710    2.5253 N.am    1  UNL1       -0.2292
      9 C           8.7338   -3.0806    2.4638 C.2     1  UNL1        0.2610
     10 O           9.3854   -2.3251    1.7388 O.2     1  UNL1       -0.2686
     11 C           9.4263   -4.0762    3.3266 C.ar    1  UNL1        0.0543
     12 C           9.0288   -5.4307    3.2825 C.ar    1  UNL1       -0.0271
     13 C           9.6435   -6.3779    4.1052 C.ar    1  UNL1        0.0490
     14 C           9.2807   -7.8524    4.1958 C.3     1  UNL1        0.0015
     15 C           7.8817   -8.4154    4.1252 C.3     1  UNL1       -0.0442
     16 C           8.9104   -8.8149    3.1015 C.3     1  UNL1       -0.0442
     17 N          10.6412   -6.0273    4.9587 N.ar    1  UNL1       -0.2147
     18 C          11.0283   -4.7434    4.9459 C.ar    1  UNL1        0.2598
     19 O          12.0264   -4.2484    5.7326 O.2     1  UNL1       -0.3339
     20 N          12.1920   -2.8925    5.4838 N.ar    1  UNL1       -0.0751
     21 C          11.2653   -2.5836    4.5630 C.ar    1  UNL1        0.1234
     22 C          11.0684   -1.2284    4.0863 C.ar    1  UNL1        0.0043
     23 C          12.0356   -0.5754    3.3179 C.ar    1  UNL1       -0.0524
     24 C          11.6672    0.5546    2.5853 C.ar    1  UNL1       -0.0611
     25 C          10.4254    1.1556    2.8004 C.ar    1  UNL1       -0.0617
     26 C           9.5043    0.5691    3.6629 C.ar    1  UNL1       -0.0611
     27 C           9.8033   -0.6519    4.2536 C.ar    1  UNL1       -0.0524
     28 C          10.4988   -3.7269    4.1764 C.ar    1  UNL1        0.0806
     29 H           0.6286    0.7338   -0.5657 H       1  UNL1        0.0230
     30 H           0.6004    0.1124    1.0900 H       1  UNL1        0.0230
     31 H           0.6005   -1.0118   -0.2820 H       1  UNL1        0.0230
     32 H           2.8913    0.9031    0.4343 H       1  UNL1        0.0278
     33 H           2.8915   -0.2134   -0.9278 H       1  UNL1        0.0278
     34 H           2.7267   -2.1587    0.6632 H       1  UNL1        0.0462
     35 H           2.7252   -1.0398    2.0292 H       1  UNL1        0.0462
     36 H           5.0885   -0.5821    0.5072 H       1  UNL1        0.1503
     37 H           7.1240   -1.4552    1.2224 H       1  UNL1        0.1744
     38 H           6.8022   -3.6968    3.1164 H       1  UNL1        0.1732
     39 H           8.2515   -5.7329    2.5884 H       1  UNL1        0.0643
     40 H           9.9203   -8.3323    4.9392 H       1  UNL1        0.0364
     41 H           7.0248   -7.8870    3.7245 H       1  UNL1        0.0272
     42 H           7.6128   -9.1148    4.9127 H       1  UNL1        0.0272
     43 H           8.6968   -8.5329    2.0793 H       1  UNL1        0.0272
     44 H           9.3557   -9.8056    3.1801 H       1  UNL1        0.0272
     45 H          13.0466   -0.9663    3.2316 H       1  UNL1        0.0624
     46 H          12.3358    0.9520    1.8256 H       1  UNL1        0.0618
     47 H          10.1721    2.0788    2.2879 H       1  UNL1        0.0618
     48 H           8.5349    1.0245    3.8347 H       1  UNL1        0.0618
     49 H           9.0248   -1.1863    4.7922 H       1  UNL1        0.0624
@<TRIPOS>BOND
     1     1     2    1
     2     2     3    1
     3     3     4    1
     4     4     5   am
     5     5     6    2
     6     5     7   am
     7     7     8    1
     8     8     9   am
     9     9    10    2
    10     9    11    1
    11    11    12   ar
    12    12    13   ar
    13    13    14    1
    14    14    15    1
    15    15    16    1
    16    14    16    1
    17    13    17   ar
    18    17    18   ar
    19    18    19   ar
    20    19    20   ar
    21    20    21   ar
    22    21    22    1
    23    22    23   ar
    24    23    24   ar
    25    24    25   ar
    26    25    26   ar
    27    26    27   ar
    28    22    27   ar
    29    21    28   ar
    30    11    28   ar
    31    18    28   ar
    32     1    29    1
    33     1    30    1
    34     1    31    1
    35     2    32    1
    36     2    33    1
    37     3    34    1
    38     3    35    1
    39     4    36    1
    40     7    37    1
    41     8    38    1
    42    12    39    1
    43    14    40    1
    44    15    41    1
    45    15    42    1
    46    16    43    1
    47    16    44    1
    48    23    45    1
    49    24    46    1
    50    25    47    1
    51    26    48    1
    52    27    49    1
