REMARK  10 active torsions:
REMARK  status: ('A' for Active; 'I' for Inactive)
REMARK    1  A    between atoms: C_6  and  N_7 
REMARK       I    between atoms: N_7  and  C_8 
REMARK    2  A    between atoms: C_19  and  N_7 
REMARK    3  A    between atoms: C_8  and  C_10 
REMARK    4  A    between atoms: C_13  and  C_14 
REMARK       I    between atoms: C_14  and  N_15 
REMARK    5  A    between atoms: C_17  and  N_18 
REMARK    6  A    between atoms: C_19  and  C_28 
REMARK    7  A    between atoms: C_19  and  C_20 
REMARK       I    between atoms: C_20  and  N_22 
REMARK    8  A    between atoms: N_22  and  C_23 
REMARK    9  A    between atoms: C_23  and  C_24 
REMARK   10  A    between atoms: C_24  and  C_25 
ROOT
ATOM      1  N   UNL d   1      -2.645  -3.195  -1.403  0.00  0.00    -0.295 N 
ATOM      2  C   UNL d   1      -2.884  -1.655  -1.533  0.00  0.00     0.269 C 
ATOM      3  O   UNL d   1      -2.308  -0.914  -0.706  0.00  0.00    -0.266 OA
ENDROOT
BRANCH   1   4
ATOM      4  C   UNL d   1      -3.207  -4.314  -2.280  0.00  0.00     0.045 C 
ATOM      5  C   UNL d   1      -3.093  -5.670  -2.034  0.00  0.00     0.030 C 
ATOM      6  C   UNL d   1      -3.867  -6.728  -2.570  0.00  0.00     0.003 C 
ATOM      7  C   UNL d   1      -4.655  -6.493  -3.659  0.00  0.00     0.007 C 
ATOM      8  C   UNL d   1      -4.568  -5.233  -4.194  0.00  0.00    -0.054 C 
ATOM      9  C   UNL d   1      -5.298  -4.881  -5.461  0.00  0.00     0.049 C 
ATOM     10  C   UNL d   1      -3.804  -4.216  -3.526  0.00  0.00    -0.029 C 
ATOM     11  C   UNL d   1      -3.587  -3.039  -4.347  0.00  0.00     0.051 C 
ENDBRANCH   1   4
BRANCH   1  12
ATOM     12  C   UNL d   1      -1.856  -3.559  -0.084  0.00  0.00     0.218 C 
BRANCH  12  13
ATOM     13  C   UNL d   1      -1.541  -5.072   0.269  0.00  0.00    -0.026 C 
ATOM     14  C   UNL d   1      -0.244  -5.615   0.016  0.00  0.00     0.013 C 
ATOM     15  C   UNL d   1       0.018  -6.984   0.025  0.00  0.00     0.043 C 
ATOM     16  C   UNL d   1      -1.036  -7.859   0.184  0.00  0.00     0.116 C 
ATOM     17  F   UNL d   1      -0.844  -9.163  -0.058  0.00  0.00    -0.206 F 
ATOM     18  C   UNL d   1      -2.312  -7.380   0.484  0.00  0.00     0.043 C 
ATOM     19  C   UNL d   1      -2.551  -5.990   0.635  0.00  0.00     0.013 C 
ENDBRANCH  12  13
BRANCH  12  20
ATOM     20  C   UNL d   1      -0.465  -2.804  -0.038  0.00  0.00     0.245 C 
ATOM     21  O   UNL d   1       0.035  -2.224  -1.002  0.00  0.00    -0.271 OA
ATOM     22  N   UNL d   1       0.265  -3.009   1.143  0.00  0.00    -0.359 N 
ATOM     23  H   UNL d   1      -0.062  -3.715   1.795  0.00  0.00     0.162 HD
BRANCH  22  24
ATOM     24  C   UNL d   1       1.686  -2.759   1.103  0.00  0.00     0.123 C 
BRANCH  24  25
ATOM     25  C   UNL d   1       2.426  -3.377   2.284  0.00  0.00     0.023 C 
BRANCH  25  26
ATOM     26  C   UNL d   1       3.904  -2.955   2.311  0.00  0.00    -0.021 C 
ATOM     27  C   UNL d   1       4.040  -1.433   2.375  0.00  0.00     0.009 C 
ATOM     28  C   UNL d   1       4.610  -3.582   3.512  0.00  0.00     0.009 C 
ENDBRANCH  25  26
ENDBRANCH  24  25
ENDBRANCH  22  24
ENDBRANCH  12  20
ENDBRANCH   1  12
BRANCH   2  29
ATOM     29  C   UNL d   1      -3.792  -0.973  -2.527  0.00  0.00     0.115 C 
ATOM     30  S   UNL d   1      -3.184   0.112  -3.764  0.00  0.00     0.019 SA
ATOM     31  N   UNL d   1      -4.480  -0.073  -4.849  0.00  0.00    -0.203 NA
ATOM     32  C   UNL d   1      -5.465  -0.755  -4.236  0.00  0.00     0.155 C 
ATOM     33  C   UNL d   1      -5.118  -1.207  -2.857  0.00  0.00     0.065 C 
BRANCH  32  34
ATOM     34  C   UNL d   1      -6.620  -1.358  -4.997  0.00  0.00     0.270 C 
ATOM     35  N   UNL d   1      -6.816  -1.081  -6.327  0.00  0.00    -0.365 N 
ATOM     36  H   UNL d   1      -6.232  -0.458  -6.865  0.00  0.00     0.159 HD
ATOM     37  H   UNL d   1      -7.625  -1.506  -6.768  0.00  0.00     0.159 HD
ATOM     38  O   UNL d   1      -7.369  -2.202  -4.489  0.00  0.00    -0.266 OA
ENDBRANCH  32  34
BRANCH  33  39
ATOM     39  N   UNL d   1      -5.840  -2.136  -2.173  0.00  0.00    -0.299 NA
ATOM     40  H   UNL d   1      -6.484  -2.683  -2.759  0.00  0.00     0.124 HD
ATOM     41  H   UNL d   1      -5.304  -2.797  -1.612  0.00  0.00     0.124 HD
ENDBRANCH  33  39
ENDBRANCH   2  29
TORSDOF 10
