REMARK  13 active torsions:
REMARK  status: ('A' for Active; 'I' for Inactive)
REMARK    1  A    between atoms: C_4  and  O_5 
REMARK    2  A    between atoms: O_5  and  C_6 
REMARK    3  A    between atoms: C_6  and  C_7 
REMARK       I    between atoms: C_7  and  N_9 
REMARK    4  A    between atoms: N_9  and  N_10 
REMARK       I    between atoms: N_10  and  C_11 
REMARK    5  A    between atoms: C_11  and  C_13 
REMARK    6  A    between atoms: C_13  and  C_14 
REMARK    7  A    between atoms: C_14  and  C_15 
REMARK    8  A    between atoms: C_15  and  C_16 
REMARK    9  A    between atoms: C_16  and  O_18 
REMARK   10  A    between atoms: O_18  and  C_19 
REMARK   11  A    between atoms: C_19  and  C_20 
REMARK   12  A    between atoms: C_20  and  C_21 
REMARK   13  A    between atoms: C_21  and  C_22 
ROOT
ATOM      1  N   UNL d   1       8.439   1.825  -0.082  0.00  0.00    -0.267 N 
ATOM      2  C   UNL d   1       9.279   2.929  -0.085  0.00  0.00     0.236 C 
ATOM      3  O   UNL d   1       8.826   4.074  -0.069  0.00  0.00    -0.272 OA
ATOM      4  H   UNL d   1       8.756   0.857  -0.095  0.00  0.00     0.190 HD
ENDROOT
BRANCH   1   5
ATOM      5  N   UNL d   1       7.021   2.024  -0.059  0.00  0.00    -0.266 N 
ATOM      6  C   UNL d   1       6.184   0.909  -0.054  0.00  0.00     0.260 C 
ATOM      7  O   UNL d   1       6.654  -0.230  -0.072  0.00  0.00    -0.269 OA
ATOM      8  H   UNL d   1       6.707   2.993  -0.045  0.00  0.00     0.190 HD
BRANCH   6   9
ATOM      9  C   UNL d   1       4.660   1.197  -0.027  0.00  0.00     0.280 C 
BRANCH   9  10
ATOM     10  O   UNL d   1       3.898  -0.021  -0.017  0.00  0.00    -0.342 OA
BRANCH  10  11
ATOM     11  C   UNL d   1       2.528   0.058  -0.005  0.00  0.00     0.070 A 
ATOM     12  C   UNL d   1       1.797   1.242   0.007  0.00  0.00     0.045 A 
ATOM     13  C   UNL d   1       0.389   1.231   0.004  0.00  0.00    -0.037 A 
ATOM     14  C   UNL d   1      -0.341   2.546  -0.004  0.00  0.00     0.050 C 
ATOM     15  C   UNL d   1      -0.295   0.003   0.001  0.00  0.00     0.046 A 
ATOM     16  C   UNL d   1       0.419  -1.207   0.000  0.00  0.00    -0.037 A 
ATOM     17 CL   UNL d   1      -2.032  -0.012  -0.004  0.00  0.00    -0.083 Cl
ATOM     18  C   UNL d   1       1.831  -1.161  -0.006  0.00  0.00     0.045 A 
ATOM     19  C   UNL d   1      -0.295  -2.533   0.008  0.00  0.00     0.050 C 
ENDBRANCH  10  11
ENDBRANCH   9  10
ENDBRANCH   6   9
ENDBRANCH   1   5
BRANCH   2  20
ATOM     20  C   UNL d   1      10.790   2.627  -0.111  0.00  0.00     0.105 C 
BRANCH  20  21
ATOM     21  C   UNL d   1      11.630   3.919  -0.112  0.00  0.00     0.019 C 
BRANCH  21  22
ATOM     22  C   UNL d   1      13.158   3.716  -0.137  0.00  0.00     0.111 C 
BRANCH  22  23
ATOM     23  C   UNL d   1      13.871   5.062  -0.136  0.00  0.00     0.258 C 
ATOM     24  O   UNL d   1      13.300   6.150  -0.119  0.00  0.00    -0.265 OA
BRANCH  23  25
ATOM     25  O   UNL d   1      15.228   4.923  -0.158  0.00  0.00    -0.321 OA
BRANCH  25  26
ATOM     26  C   UNL d   1      15.931   6.186  -0.161  0.00  0.00     0.179 C 
BRANCH  26  27
ATOM     27  C   UNL d   1      17.424   5.918  -0.199  0.00  0.00     0.031 C 
BRANCH  27  28
ATOM     28  C   UNL d   1      18.267   7.199  -0.220  0.00  0.00     0.041 C 
BRANCH  28  29
ATOM     29  C   UNL d   1      19.759   6.942  -0.221  0.00  0.00    -0.058 A 
ATOM     30  C   UNL d   1      20.295   5.645  -0.216  0.00  0.00     0.007 A 
ATOM     31  C   UNL d   1      21.659   5.431  -0.055  0.00  0.00     0.001 A 
ATOM     32  C   UNL d   1      22.526   6.514   0.001  0.00  0.00     0.000 A 
ATOM     33  C   UNL d   1      22.021   7.812  -0.060  0.00  0.00     0.001 A 
ATOM     34  C   UNL d   1      20.644   8.028  -0.160  0.00  0.00     0.007 A 
ENDBRANCH  28  29
ENDBRANCH  27  28
ENDBRANCH  26  27
ENDBRANCH  25  26
ENDBRANCH  23  25
ENDBRANCH  22  23
ENDBRANCH  21  22
ENDBRANCH  20  21
ENDBRANCH   2  20
TORSDOF 13
