@<TRIPOS>MOLECULE
*****
 46 47 0 0 0
SMALL
GASTEIGER

@<TRIPOS>ATOM
      1 C           1.8056   -0.3492    0.4490 C.3     1  UNL1       -0.0612
      2 C           3.2033   -0.0579    0.2171 C.3     1  UNL1       -0.0287
      3 C           3.3193    1.4373   -0.0123 C.ar    1  UNL1       -0.0206
      4 C           4.6419    1.7985   -0.3152 C.ar    1  UNL1       -0.0503
      5 C           5.0429    3.1269   -0.3785 C.ar    1  UNL1        0.0160
      6 C           4.0916    4.1390   -0.3181 C.ar    1  UNL1        0.2750
      7 N           4.4964    5.5319   -0.5399 N.pl3   1  UNL1        0.0797
      8 O           5.7058    5.7566   -0.6858 O.2     1  UNL1        0.0414
      9 O           3.6093    6.3952   -0.5871 O.co2   1  UNL1       -0.5760
     10 C           2.7549    3.8204   -0.0964 C.ar    1  UNL1        0.0424
     11 C           2.3413    2.4662    0.0896 C.ar    1  UNL1        0.1180
     12 S           0.4895    2.3738    0.2708 S.O2    1  UNL1        0.0729
     13 O           0.1752    2.6507    1.6280 O.2     1  UNL1       -0.1500
     14 O           0.1965    3.3882   -0.7578 O.2     1  UNL1       -0.1500
     15 N          -0.1832    0.7953   -0.1596 N.pl3   1  UNL1       -0.2126
     16 C          -1.4866    0.2221    0.0012 C.ar    1  UNL1        0.0913
     17 C          -1.6385   -0.9978    0.7682 C.ar    1  UNL1       -0.0145
     18 C          -2.8379   -1.7186    0.6858 C.ar    1  UNL1        0.0354
     19 N          -3.0630   -3.0290    1.1959 N.am    1  UNL1       -0.2857
     20 C          -4.1425   -3.8765    0.9904 C.2     1  UNL1        0.2141
     21 C          -5.3453   -3.5167    0.1278 C.3     1  UNL1        0.0125
     22 O          -4.1418   -4.9814    1.5477 O.2     1  UNL1       -0.2758
     23 C          -3.8563   -1.0619    0.0310 C.ar    1  UNL1       -0.0369
     24 C          -3.6336   -0.1380   -0.9589 C.ar    1  UNL1       -0.0163
     25 C          -2.4132    0.4549   -1.0323 C.ar    1  UNL1        0.1424
     26 O          -2.2800    1.1323   -2.2252 O.3     1  UNL1       -0.4932
     27 C          -1.2512    2.0668   -2.1953 C.3     1  UNL1        0.0789
     28 H           1.4060   -1.3469    0.5396 H       1  UNL1        0.0233
     29 H           1.5642   -0.0397   -0.5634 H       1  UNL1        0.0233
     30 H           1.4351    0.2636    1.2854 H       1  UNL1        0.0233
     31 H           3.4731   -0.6099   -0.6958 H       1  UNL1        0.0311
     32 H           3.7450   -0.4059    1.0887 H       1  UNL1        0.0311
     33 H           5.3768    1.0101   -0.4778 H       1  UNL1        0.0623
     34 H           6.1025    3.3449   -0.4581 H       1  UNL1        0.0685
     35 H           2.0207    4.6325   -0.0798 H       1  UNL1        0.0705
     36 H           0.1240    0.3300   -1.0170 H       1  UNL1        0.1738
     37 H          -0.8266   -1.3913    1.3854 H       1  UNL1        0.0656
     38 H          -2.3234   -3.4961    1.7174 H       1  UNL1        0.1548
     39 H          -5.1989   -2.7538   -0.6268 H       1  UNL1        0.0323
     40 H          -6.1799   -3.2306    0.7778 H       1  UNL1        0.0323
     41 H          -5.6203   -4.3606   -0.5044 H       1  UNL1        0.0323
     42 H          -4.8849   -1.2379    0.2760 H       1  UNL1        0.0637
     43 H          -4.4094    0.1513   -1.6548 H       1  UNL1        0.0655
     44 H          -1.2427    2.8600   -2.9355 H       1  UNL1        0.0660
     45 H          -0.2816    1.5569   -2.3145 H       1  UNL1        0.0660
     46 H          -1.4710    2.5773   -1.2622 H       1  UNL1        0.0660
@<TRIPOS>UNITY_ATOM_ATTR
7 1
charge 1
9 1
charge -1
@<TRIPOS>BOND
     1     1     2    1
     2     2     3    1
     3     3     4   ar
     4     4     5   ar
     5     5     6   ar
     6     6     7    1
     7     7     8    2
     8     7     9    1
     9     6    10   ar
    10    10    11   ar
    11     3    11   ar
    12    11    12    1
    13    12    13    2
    14    12    14    2
    15    12    15    1
    16    15    16    1
    17    16    17   ar
    18    17    18   ar
    19    18    19    1
    20    19    20   am
    21    20    21    1
    22    20    22    2
    23    18    23   ar
    24    23    24   ar
    25    24    25   ar
    26    16    25   ar
    27    25    26    1
    28    26    27    1
    29     1    28    1
    30     1    29    1
    31     1    30    1
    32     2    31    1
    33     2    32    1
    34     4    33    1
    35     5    34    1
    36    10    35    1
    37    15    36    1
    38    17    37    1
    39    19    38    1
    40    21    39    1
    41    21    40    1
    42    21    41    1
    43    23    42    1
    44    24    43    1
    45    27    44    1
    46    27    45    1
    47    27    46    1
