REMARK  8 active torsions:
REMARK  status: ('A' for Active; 'I' for Inactive)
REMARK    1  A    between atoms: C_2  and  O_3 
REMARK    2  A    between atoms: O_3  and  C_4 
REMARK    3  A    between atoms: C_7  and  N_8 
REMARK       I    between atoms: N_8  and  C_9 
REMARK       I    between atoms: C_9  and  N_23 
REMARK       I    between atoms: N_10  and  C_11 
REMARK    4  A    between atoms: C_11  and  C_13 
REMARK    5  A    between atoms: C_16  and  N_17 
REMARK       I    between atoms: N_17  and  C_18 
REMARK    6  A    between atoms: N_23  and  C_24 
REMARK    7  A    between atoms: C_24  and  C_25 
REMARK    8  A    between atoms: C_25  and  C_26 
ROOT
ATOM      1  N   UNL d   1       8.519  -2.308   0.960  0.00  0.00    -0.190 N 
ATOM      2  C   UNL d   1       9.431  -1.381   1.493  0.00  0.00     0.704 C 
ATOM      3  N   UNL d   1       9.039  -0.246   2.000  0.00  0.00    -0.023 NA
ATOM      4  C   UNL d   1       9.750   0.788   2.569  0.00  0.00     0.293 C 
ATOM      5  O   UNL d   1      10.888   0.884   3.009  0.00  0.00    -0.265 OA
ATOM      6  N   UNL d   1      10.742  -1.816   1.401  0.00  0.00    -0.224 N 
ATOM      7  H   UNL d   1       8.884  -3.119   0.479  0.00  0.00     0.184 HD
ATOM      8  H   UNL d   1      10.996  -2.712   1.015  0.00  0.00     0.177 HD
ENDROOT
BRANCH   1   9
ATOM      9  C   UNL d   1       7.114  -2.125   0.775  0.00  0.00     0.049 A 
ATOM     10  C   UNL d   1       6.296  -3.050   0.098  0.00  0.00     0.033 A 
ATOM     11  C   UNL d   1       4.919  -2.777  -0.136  0.00  0.00     0.039 A 
ATOM     12  C   UNL d   1       4.317  -1.616   0.357  0.00  0.00     0.068 A 
ATOM     13  C   UNL d   1       5.097  -0.739   1.080  0.00  0.00     0.039 A 
ATOM     14  C   UNL d   1       6.449  -1.005   1.280  0.00  0.00     0.033 A 
BRANCH  12  15
ATOM     15  O   UNL d   1       2.967  -1.461   0.194  0.00  0.00    -0.352 OA
BRANCH  15  16
ATOM     16  C   UNL d   1       2.514  -0.109   0.029  0.00  0.00     0.171 C 
ATOM     17  C   UNL d   1       0.996  -0.092   0.046  0.00  0.00     0.034 C 
ENDBRANCH  15  16
ENDBRANCH  12  15
ENDBRANCH   1   9
BRANCH   6  18
ATOM     18  C   UNL d   1      11.764  -1.006   2.005  0.00  0.00     0.142 C 
BRANCH  18  19
ATOM     19  C   UNL d   1      13.193  -1.359   1.986  0.00  0.00     0.057 C 
BRANCH  19  20
ATOM     20  C   UNL d   1      14.098  -0.328   2.635  0.00  0.00    -0.048 A 
ATOM     21  C   UNL d   1      15.391  -0.625   2.682  0.00  0.00    -0.006 A 
ATOM     22  C   UNL d   1      16.047  -1.786   2.212  0.00  0.00     0.014 A 
ATOM     23  C   UNL d   1      16.072   0.458   3.387  0.00  0.00     0.038 A 
ATOM     24  C   UNL d   1      17.330  -1.948   2.528  0.00  0.00     0.001 A 
ATOM     25  C   UNL d   1      18.069  -0.892   3.199  0.00  0.00     0.002 A 
ATOM     26  C   UNL d   1      17.520   0.269   3.623  0.00  0.00     0.030 A 
ATOM     27  N   UNL d   1      15.262   1.401   3.690  0.00  0.00    -0.385 N 
ATOM     28  C   UNL d   1      13.853   1.018   3.297  0.00  0.00     0.155 A 
ATOM     29  H   UNL d   1      15.574   2.269   4.129  0.00  0.00     0.160 HD
ENDBRANCH  19  20
ENDBRANCH  18  19
ENDBRANCH   6  18
BRANCH   4  30
ATOM     30  C   UNL d   1       9.051   1.984   2.979  0.00  0.00     0.035 C 
ATOM     31  C   UNL d   1       9.805   3.178   2.990  0.00  0.00     0.019 C 
ATOM     32  C   UNL d   1       9.477   4.201   3.870  0.00  0.00     0.030 C 
ATOM     33  C   UNL d   1       8.375   4.035   4.707  0.00  0.00     0.034 C 
ATOM     34  C   UNL d   1       7.780   2.774   4.772  0.00  0.00     0.030 C 
ATOM     35  C   UNL d   1       8.021   1.775   3.860  0.00  0.00     0.019 C 
BRANCH  33  36
ATOM     36  N   UNL d   1       7.902   5.137   5.432  0.00  0.00    -0.328 N 
ATOM     37  C   UNL d   1       6.730   5.328   6.111  0.00  0.00     0.218 C 
ATOM     38  C   UNL d   1       5.692   4.249   6.313  0.00  0.00     0.117 C 
ATOM     39  O   UNL d   1       6.522   6.450   6.586  0.00  0.00    -0.274 OA
ATOM     40  H   UNL d   1       8.409   6.012   5.330  0.00  0.00     0.169 HD
ENDBRANCH  33  36
ENDBRANCH   4  30
TORSDOF 8
