REMARK  7 active torsions:
REMARK  status: ('A' for Active; 'I' for Inactive)
REMARK    1  A    between atoms: C_10  and  C_11 
REMARK    2  A    between atoms: C_11  and  C_13 
REMARK       I    between atoms: C_13  and  N_15 
REMARK    3  A    between atoms: N_15  and  C_16 
REMARK    4  A    between atoms: C_16  and  C_17 
REMARK    5  A    between atoms: C_17  and  S_18 
REMARK    6  A    between atoms: S_18  and  C_19 
REMARK    7  A    between atoms: C_20  and  C_21 
ROOT
ATOM      1  C   UNL d   1      -5.070  -4.587   0.065  0.00  0.00     0.133 C 
ENDROOT
BRANCH   1   2
ATOM      2  N   UNL d   1      -3.626  -4.327   0.094  0.00  0.00    -0.353 N 
ATOM      3  C   UNL d   1      -3.256  -2.999   0.062  0.00  0.00     0.292 C 
ATOM      4  O   UNL d   1      -4.164  -2.176   0.034  0.00  0.00    -0.264 OA
ATOM      5  H   UNL d   1      -2.907  -5.045   0.101  0.00  0.00     0.162 HD
BRANCH   3   6
ATOM      6  C   UNL d   1      -1.747  -2.622   0.064  0.00  0.00     0.252 C 
ATOM      7  O   UNL d   1      -0.965  -3.576   0.102  0.00  0.00    -0.281 OA
BRANCH   6   8
ATOM      8  C   UNL d   1      -1.263  -1.213   0.028  0.00  0.00     0.054 A 
ATOM      9  C   UNL d   1       0.120  -0.772   0.011  0.00  0.00     0.007 A 
ATOM     10  C   UNL d   1       1.368  -1.433   0.001  0.00  0.00     0.015 A 
ATOM     11  C   UNL d   1       0.137   0.626   0.003  0.00  0.00     0.043 A 
ATOM     12  C   UNL d   1       2.558  -0.692  -0.022  0.00  0.00     0.001 A 
ATOM     13  C   UNL d   1       2.529   0.700  -0.013  0.00  0.00     0.002 A 
ATOM     14  C   UNL d   1       1.315   1.387   0.004  0.00  0.00     0.030 A 
ATOM     15  N   UNL d   1      -1.168   1.037  -0.011  0.00  0.00    -0.358 N 
ATOM     16  C   UNL d   1      -2.017  -0.039   0.001  0.00  0.00     0.021 A 
ATOM     17  H   UNL d   1      -1.465   2.003  -0.034  0.00  0.00     0.166 HD
ATOM     18  C   UNL d   1      -3.479   0.210  -0.010  0.00  0.00     0.069 C 
ENDBRANCH   6   8
ENDBRANCH   3   6
ENDBRANCH   1   2
BRANCH   1  19
ATOM     19  C   UNL d   1      -5.408  -6.050   0.115  0.00  0.00     0.099 C 
BRANCH  19  20
ATOM     20  S   UNL d   1      -7.158  -6.479   0.109  0.00  0.00    -0.125 SA
BRANCH  20  21
ATOM     21  C   UNL d   1      -7.217  -8.253   0.219  0.00  0.00     0.040 A 
ATOM     22  C   UNL d   1      -6.241  -9.226   0.016  0.00  0.00     0.060 A 
ATOM     23  N   UNL d   1      -6.866 -10.450   0.151  0.00  0.00    -0.354 N 
ATOM     24  C   UNL d   1      -8.209 -10.301   0.417  0.00  0.00     0.044 A 
ATOM     25  H   UNL d   1      -6.403 -11.342   0.044  0.00  0.00     0.166 HD
ATOM     26  C   UNL d   1      -9.219 -11.260   0.597  0.00  0.00     0.030 A 
ATOM     27  C   UNL d   1      -8.456  -8.930   0.474  0.00  0.00     0.010 A 
ATOM     28  C   UNL d   1     -10.522 -10.802   0.826  0.00  0.00     0.002 A 
ATOM     29  C   UNL d   1     -10.800  -9.440   0.894  0.00  0.00     0.001 A 
ATOM     30  C   UNL d   1      -9.779  -8.500   0.727  0.00  0.00     0.015 A 
BRANCH  22  31
ATOM     31  C   UNL d   1      -4.830  -9.124  -0.359  0.00  0.00    -0.008 C 
ATOM     32  C   UNL d   1      -3.933  -8.457   0.481  0.00  0.00     0.014 C 
ATOM     33  C   UNL d   1      -2.738  -7.943  -0.029  0.00  0.00     0.001 C 
ATOM     34  C   UNL d   1      -2.326  -8.299  -1.307  0.00  0.00     0.000 C 
ATOM     35  C   UNL d   1      -3.140  -9.114  -2.093  0.00  0.00     0.001 C 
ATOM     36  C   UNL d   1      -4.404  -9.500  -1.635  0.00  0.00     0.014 C 
ENDBRANCH  22  31
ENDBRANCH  20  21
ENDBRANCH  19  20
ENDBRANCH   1  19
TORSDOF 7
