REMARK  4 active torsions:
REMARK  status: ('A' for Active; 'I' for Inactive)
REMARK    1  A    between atoms: N_2  and  C_4 
REMARK    2  A    between atoms: C_8  and  C_9 
REMARK       I    between atoms: C_9  and  N_11 
REMARK    3  A    between atoms: N_11  and  N_12 
REMARK       I    between atoms: N_12  and  C_13 
REMARK    4  A    between atoms: C_13  and  C_15 
ROOT
ATOM      1  C   UNL d   1       3.069   1.793   4.581  0.00  0.00     0.270 C 
ATOM      2  O   UNL d   1       3.763   2.354   5.429  0.00  0.00    -0.266 OA
ATOM      3  N   UNL d   1       1.864   1.178   4.909  0.00  0.00    -0.263 N 
ATOM      4  H   UNL d   1       1.267   0.679   4.255  0.00  0.00     0.190 HD
ENDROOT
BRANCH   3   5
ATOM      5  N   UNL d   1       1.372   1.220   6.240  0.00  0.00    -0.263 N 
ATOM      6  C   UNL d   1       0.201   0.539   6.547  0.00  0.00     0.271 C 
ATOM      7  O   UNL d   1      -0.434  -0.083   5.688  0.00  0.00    -0.266 OA
ATOM      8  H   UNL d   1       1.981   1.630   6.945  0.00  0.00     0.190 HD
BRANCH   6   9
ATOM      9  C   UNL d   1      -0.227   0.589   7.949  0.00  0.00     0.050 A 
ATOM     10  C   UNL d   1      -0.227   1.695   8.854  0.00  0.00     0.035 A 
ATOM     11  C   UNL d   1      -0.769   1.277  10.052  0.00  0.00     0.088 A 
ATOM     12  N   UNL d   1      -1.104  -0.044   9.923  0.00  0.00    -0.374 N 
ATOM     13  C   UNL d   1      -0.795  -0.465   8.654  0.00  0.00     0.104 A 
ATOM     14  H   UNL d   1      -1.530  -0.614  10.646  0.00  0.00     0.164 HD
ENDBRANCH   6   9
ENDBRANCH   3   5
BRANCH   1  15
ATOM     15  C   UNL d   1       3.526   1.738   3.143  0.00  0.00     0.035 A 
ATOM     16  C   UNL d   1       4.761   2.296   2.779  0.00  0.00     0.017 A 
ATOM     17  C   UNL d   1       5.229   2.186   1.465  0.00  0.00     0.003 A 
ATOM     18  C   UNL d   1       4.455   1.538   0.498  0.00  0.00     0.029 A 
ATOM     19  C   UNL d   1       3.235   0.936   0.828  0.00  0.00     0.030 A 
ATOM     20  C   UNL d   1       2.778   1.087   2.150  0.00  0.00     0.046 A 
BRANCH  19  21
ATOM     21  N   UNL d   1       2.531   0.185  -0.108  0.00  0.00    -0.390 N 
ATOM     22  C   UNL d   1       1.081   0.076  -0.042  0.00  0.00     0.149 C 
ATOM     23  C   UNL d   1       3.270  -0.811  -0.880  0.00  0.00     0.149 C 
ENDBRANCH  19  21
ENDBRANCH   1  15
TORSDOF 4
