REMARK  11 active torsions:
REMARK  status: ('A' for Active; 'I' for Inactive)
REMARK    1  A    between atoms: C_2  and  C_5 
REMARK    2  A    between atoms: C_8  and  O_9 
REMARK    3  A    between atoms: O_9  and  C_10 
REMARK    4  A    between atoms: C_10  and  C_11 
REMARK       I    between atoms: C_11  and  N_13 
REMARK    5  A    between atoms: N_13  and  C_14 
REMARK    6  A    between atoms: C_14  and  N_16 
REMARK    7  A    between atoms: N_16  and  N_17 
REMARK       I    between atoms: N_17  and  C_18 
REMARK    8  A    between atoms: C_18  and  C_20 
REMARK    9  A    between atoms: C_20  and  C_21 
REMARK   10  A    between atoms: C_21  and  C_22 
REMARK       I    between atoms: C_22  and  N_24 
REMARK   11  A    between atoms: N_24  and  C_25 
ROOT
ATOM      1  C   UNL d   1       4.442  10.180   1.090  0.00  0.00     0.193 C 
ATOM      2  S   UNL d   1       5.523  10.364   2.375  0.00  0.00    -0.039 SA
ENDROOT
BRANCH   1   3
ATOM      3  N   UNL d   1       3.908   8.940   0.642  0.00  0.00    -0.301 N 
ATOM      4  C   UNL d   1       4.192   7.665   1.198  0.00  0.00     0.248 C 
ATOM      5  O   UNL d   1       4.969   7.509   2.143  0.00  0.00    -0.271 OA
ATOM      6  H   UNL d   1       3.267   8.966  -0.140  0.00  0.00     0.171 HD
BRANCH   4   7
ATOM      7  C   UNL d   1       3.511   6.408   0.603  0.00  0.00     0.278 C 
BRANCH   7   8
ATOM      8  O   UNL d   1       3.921   5.273   1.403  0.00  0.00    -0.342 OA
BRANCH   8   9
ATOM      9  C   UNL d   1       3.565   4.015   1.013  0.00  0.00     0.069 A 
ATOM     10  C   UNL d   1       4.115   2.949   1.735  0.00  0.00     0.037 A 
ATOM     11  C   UNL d   1       3.853   1.621   1.369  0.00  0.00     0.011 A 
ATOM     12  C   UNL d   1       2.955   1.329   0.333  0.00  0.00    -0.050 A 
ATOM     13  C   UNL d   1       2.423   2.414  -0.385  0.00  0.00     0.011 A 
ATOM     14  C   UNL d   1       2.713   3.735  -0.044  0.00  0.00     0.037 A 
BRANCH  12  15
ATOM     15  C   UNL d   1       2.480  -0.092   0.005  0.00  0.00    -0.024 C 
ATOM     16  C   UNL d   1       0.932  -0.123   0.011  0.00  0.00     0.019 C 
ATOM     17  C   UNL d   1       2.961  -1.133   1.036  0.00  0.00     0.019 C 
ATOM     18  C   UNL d   1       2.987  -0.506  -1.388  0.00  0.00     0.019 C 
ENDBRANCH  12  15
ENDBRANCH   8   9
ENDBRANCH   7   8
ENDBRANCH   4   7
ENDBRANCH   1   3
BRANCH   1  19
ATOM     19  N   UNL d   1       4.017  11.328   0.391  0.00  0.00    -0.273 N 
ATOM     20  H   UNL d   1       3.372  11.358  -0.397  0.00  0.00     0.189 HD
BRANCH  19  21
ATOM     21  N   UNL d   1       4.528  12.639   0.802  0.00  0.00    -0.268 N 
ATOM     22  C   UNL d   1       4.154  13.810   0.162  0.00  0.00     0.236 C 
ATOM     23  O   UNL d   1       3.367  13.806  -0.793  0.00  0.00    -0.272 OA
ATOM     24  H   UNL d   1       5.176  12.622   1.594  0.00  0.00     0.190 HD
BRANCH  22  25
ATOM     25  C   UNL d   1       4.775  15.106   0.711  0.00  0.00     0.114 C 
BRANCH  25  26
ATOM     26  C   UNL d   1       4.314  16.384  -0.042  0.00  0.00     0.112 C 
BRANCH  26  27
ATOM     27  C   UNL d   1       4.950  17.643   0.545  0.00  0.00     0.222 C 
ATOM     28  O   UNL d   1       5.738  17.550   1.492  0.00  0.00    -0.273 OA
ATOM     29  N   UNL d   1       4.565  18.856  -0.022  0.00  0.00    -0.327 N 
ATOM     30  H   UNL d   1       3.777  18.892  -0.659  0.00  0.00     0.169 HD
BRANCH  29  31
ATOM     31  C   UNL d   1       5.168  20.097   0.330  0.00  0.00     0.034 A 
ATOM     32  C   UNL d   1       4.437  21.292   0.333  0.00  0.00     0.029 A 
ATOM     33  C   UNL d   1       5.079  22.514   0.607  0.00  0.00     0.002 A 
ATOM     34  C   UNL d   1       6.442  22.546   0.899  0.00  0.00     0.000 A 
ATOM     35  C   UNL d   1       7.171  21.363   0.899  0.00  0.00     0.002 A 
ATOM     36  C   UNL d   1       6.536  20.152   0.619  0.00  0.00     0.029 A 
ENDBRANCH  29  31
ENDBRANCH  26  27
ENDBRANCH  25  26
ENDBRANCH  22  25
ENDBRANCH  19  21
ENDBRANCH   1  19
TORSDOF 11
