REMARK  3 active torsions:
REMARK  status: ('A' for Active; 'I' for Inactive)
REMARK    1  A    between atoms: C_2  and  N_12 
REMARK    2  A    between atoms: C_2  and  C_3 
REMARK    3  A    between atoms: N_12  and  O_13 
REMARK       I    between atoms: N_12  and  C_14 
REMARK       I    between atoms: C_14  and  N_15 
ROOT
ATOM      1  C   UNL d   1       3.055   1.581   0.034  0.00  0.00     0.041 C 
ATOM      2  C   UNL d   1       2.557   0.127   0.085  0.00  0.00     0.155 C 
ENDROOT
BRANCH   2   3
ATOM      3  N   UNL d   1       3.161  -0.601   1.243  0.00  0.00    -0.201 N 
ATOM      4  C   UNL d   1       4.499  -0.776   1.519  0.00  0.00     0.340 C 
ATOM      5  N   UNL d   1       5.387  -0.333   0.593  0.00  0.00    -0.350 N 
ATOM      6  O   UNL d   1       4.951  -1.292   2.544  0.00  0.00    -0.245 OA
ATOM      7  H   UNL d   1       5.152   0.051  -0.305  0.00  0.00     0.160 HD
ATOM      8  H   UNL d   1       6.365  -0.403   0.838  0.00  0.00     0.160 HD
BRANCH   3   9
ATOM      9  O   UNL d   1       2.332  -1.097   2.283  0.00  0.00    -0.283 OA
ATOM     10  H   UNL d   1       1.429  -0.805   2.097  0.00  0.00     0.245 HD
ENDBRANCH   3   9
ENDBRANCH   2   3
BRANCH   2  11
ATOM     11  C   UNL d   1       1.036   0.042   0.044  0.00  0.00     0.009 A 
ATOM     12  C   UNL d   1       0.252  -1.095   0.079  0.00  0.00     0.029 A 
ATOM     13  C   UNL d   1      -1.152  -0.822   0.092  0.00  0.00    -0.018 A 
ATOM     14  C   UNL d   1      -2.248  -1.705   0.181  0.00  0.00     0.013 A 
ATOM     15  C   UNL d   1      -1.409   0.544  -0.004  0.00  0.00     0.015 A 
ATOM     16  C   UNL d   1      -3.552  -1.209   0.144  0.00  0.00     0.001 A 
ATOM     17  C   UNL d   1      -3.784   0.156   0.033  0.00  0.00     0.001 A 
ATOM     18  C   UNL d   1      -2.719   1.054  -0.037  0.00  0.00     0.019 A 
ATOM     19  S   UNL d   1       0.044   1.440  -0.067  0.00  0.00    -0.092 SA
ENDBRANCH   2  11
TORSDOF 3
