REMARK  2 active torsions:
REMARK  status: ('A' for Active; 'I' for Inactive)
REMARK    1  A    between atoms: C_4  and  C_5 
REMARK    2  A    between atoms: C_12  and  C_13 
ROOT
ATOM      1  C   UNL d   1      -0.001   2.414   0.038  0.00  0.00     0.084 C 
ATOM      2  C   UNL d   1      -0.610   2.067  -1.337  0.00  0.00     0.118 C 
ATOM      3  C   UNL d   1       0.423   1.523  -2.278  0.00  0.00     0.223 C 
ATOM      4  O   UNL d   1       0.112   0.646  -3.128  0.00  0.00    -0.273 OA
ATOM      5  N   UNL d   1       1.732   1.898  -2.147  0.00  0.00    -0.327 N 
ATOM      6  C   UNL d   1       2.248   2.613  -1.044  0.00  0.00     0.040 C 
ATOM      7  C   UNL d   1       3.625   2.758  -0.791  0.00  0.00     0.035 C 
ATOM      8  C   UNL d   1       4.063   3.433   0.374  0.00  0.00     0.106 C 
ATOM      9  C   UNL d   1       3.295   4.483   0.770  0.00  0.00     0.035 C 
ATOM     10  C   UNL d   1       1.926   4.013   0.863  0.00  0.00    -0.002 C 
ATOM     11  C   UNL d   1       1.397   3.030  -0.042  0.00  0.00    -0.024 C 
ATOM     12  C   UNL d   1       4.178   5.109   1.880  0.00  0.00     0.123 C 
ATOM     13  N   UNL d   1       4.099   3.902   2.706  0.00  0.00    -0.242 NA
ATOM     14  N   UNL d   1       4.361   2.845   1.719  0.00  0.00    -0.149 NA
ATOM     15  H   UNL d   1       2.346   1.406  -2.790  0.00  0.00     0.169 HD
ATOM     16  H   UNL d   1       3.169   4.203   3.068  0.00  0.00     0.142 HD
ENDROOT
BRANCH   1  17
ATOM     17  C   UNL d   1      -0.027   1.032   0.707  0.00  0.00     0.075 C 
ATOM     18  N   UNL d   1      -1.315   0.494   0.888  0.00  0.00    -0.225 NA
ATOM     19  C   UNL d   1      -1.236  -0.728   0.383  0.00  0.00     0.180 C 
ATOM     20  O   UNL d   1       0.061  -1.128   0.172  0.00  0.00    -0.294 OA
ATOM     21  C   UNL d   1       0.836  -0.033   0.473  0.00  0.00     0.077 C 
ATOM     22  C   UNL d   1       2.279  -0.169   0.210  0.00  0.00     0.079 C 
BRANCH  19  23
ATOM     23  C   UNL d   1      -2.265  -1.735   0.116  0.00  0.00     0.017 A 
ATOM     24  C   UNL d   1      -2.380  -2.767   1.050  0.00  0.00     0.016 A 
ATOM     25  C   UNL d   1      -3.290  -3.808   0.877  0.00  0.00     0.001 A 
ATOM     26  C   UNL d   1      -4.164  -3.801  -0.206  0.00  0.00     0.000 A 
ATOM     27  C   UNL d   1      -4.081  -2.779  -1.152  0.00  0.00     0.001 A 
ATOM     28  C   UNL d   1      -3.125  -1.752  -1.004  0.00  0.00     0.016 A 
ENDBRANCH  19  23
ENDBRANCH   1  17
TORSDOF 2
