@<TRIPOS>MOLECULE
*****
 53 56 0 0 0
SMALL
GASTEIGER

@<TRIPOS>ATOM
      1 O           3.3975   -0.7327    0.7782 O.3     1  UNL1       -0.3847
      2 C           2.5681   -0.0281   -0.1624 C.3     1  UNL1        0.1142
      3 C           1.0167   -0.0789    0.0267 C.3     1  UNL1        0.0725
      4 N           0.4663   -0.6384    1.2410 N.ar    1  UNL1       -0.2669
      5 C           1.1265   -0.9957    2.3616 C.ar    1  UNL1        0.0468
      6 C           0.2127   -1.3418    3.3019 C.ar    1  UNL1        0.0714
      7 N           0.5378   -1.7289    4.5646 N.pl3   1  UNL1       -0.2811
      8 C           1.8656   -1.9474    4.9914 C.ar    1  UNL1        0.2226
      9 N           2.2100   -3.2153    5.2651 N.ar    1  UNL1       -0.2225
     10 C           3.5005   -3.4458    5.5611 C.ar    1  UNL1        0.0362
     11 C           4.4454   -2.4603    5.6656 C.ar    1  UNL1        0.0186
     12 C           4.0189   -1.1822    5.3886 C.ar    1  UNL1        0.2248
     13 O           4.8395   -0.0628    5.4787 O.3     1  UNL1       -0.4379
     14 C           6.1933   -0.2348    5.6871 C.ar    1  UNL1        0.1305
     15 C           6.9801   -0.9885    4.8062 C.ar    1  UNL1       -0.0166
     16 C           8.3319   -1.1973    5.0798 C.ar    1  UNL1       -0.0230
     17 C           8.9086   -0.5892    6.1883 C.ar    1  UNL1        0.1236
     18 F          10.2106   -0.7799    6.4362 F       1  UNL1       -0.2055
     19 C           8.1539    0.2157    7.0357 C.ar    1  UNL1       -0.0230
     20 C           6.7877    0.3946    6.7869 C.ar    1  UNL1       -0.0166
     21 N           2.7465   -0.9206    5.0203 N.ar    1  UNL1       -0.1789
     22 C          -1.0235   -1.2284    2.6358 C.ar    1  UNL1        0.0706
     23 N          -0.8720   -0.7962    1.3674 N.ar    1  UNL1       -0.1777
     24 C           2.9751   -0.7200   -1.4703 C.3     1  UNL1       -0.0035
     25 N           4.5119   -0.7150   -1.5598 N.4     1  UNL1        0.2371
     26 C           5.0950    0.5883   -2.0405 C.3     1  UNL1       -0.0316
     27 C           5.1169    0.3969   -3.5382 C.3     1  UNL1       -0.0077
     28 C           5.5217   -1.0559   -3.7192 C.3     1  UNL1       -0.0077
     29 C           5.0681   -1.7870   -2.4662 C.3     1  UNL1       -0.0316
     30 H           4.0013   -0.1136    1.2276 H       1  UNL1        0.2101
     31 H           2.8781    1.0242   -0.1540 H       1  UNL1        0.0665
     32 H           0.6259    0.9495   -0.0327 H       1  UNL1        0.0536
     33 H           0.5440   -0.6044   -0.8143 H       1  UNL1        0.0536
     34 H           2.1951   -0.9781    2.4634 H       1  UNL1        0.0845
     35 H          -0.0781   -2.3520    5.0671 H       1  UNL1        0.1551
     36 H           3.7753   -4.4847    5.7215 H       1  UNL1        0.0832
     37 H           5.4549   -2.7106    5.9524 H       1  UNL1        0.0686
     38 H           6.5345   -1.4584    3.9354 H       1  UNL1        0.0655
     39 H           8.9376   -1.8356    4.4446 H       1  UNL1        0.0647
     40 H           8.6355    0.6880    7.8879 H       1  UNL1        0.0647
     41 H           6.1977    1.0107    7.4619 H       1  UNL1        0.0655
     42 H          -2.0213   -1.4239    3.0063 H       1  UNL1        0.0867
     43 H           2.5619   -0.2685   -2.3724 H       1  UNL1        0.0841
     44 H           2.6920   -1.7769   -1.3995 H       1  UNL1        0.0841
     45 H           4.8294   -0.9301   -0.5990 H       1  UNL1        0.2034
     46 H           6.1000    0.6786   -1.6131 H       1  UNL1        0.0814
     47 H           4.4745    1.4265   -1.7125 H       1  UNL1        0.0814
     48 H           5.7998    1.0861   -4.0408 H       1  UNL1        0.0319
     49 H           4.1141    0.5590   -3.9505 H       1  UNL1        0.0319
     50 H           6.6086   -1.1416   -3.8271 H       1  UNL1        0.0319
     51 H           5.0671   -1.4867   -4.6161 H       1  UNL1        0.0319
     52 H           5.9143   -2.2483   -1.9434 H       1  UNL1        0.0814
     53 H           4.3025   -2.5441   -2.6533 H       1  UNL1        0.0814
@<TRIPOS>UNITY_ATOM_ATTR
25 1
charge 1
@<TRIPOS>BOND
     1     3     4    1
     2     4     5   ar
     3     5     6   ar
     4     6     7    1
     5     7     8    1
     6     8     9   ar
     7     9    10   ar
     8    10    11   ar
     9    11    12   ar
    10    12    13    1
    11    13    14    1
    12    14    15   ar
    13    15    16   ar
    14    16    17   ar
    15    17    18    1
    16    17    19   ar
    17    19    20   ar
    18    14    20   ar
    19    12    21   ar
    20     8    21   ar
    21     6    22   ar
    22    22    23   ar
    23     4    23   ar
    24     2    24    1
    25    24    25    1
    26    25    26    1
    27    26    27    1
    28    27    28    1
    29    28    29    1
    30    25    29    1
    31     2     3    1
    32     2     1    1
    33     1    30    1
    34     2    31    1
    35     3    32    1
    36     3    33    1
    37     5    34    1
    38     7    35    1
    39    10    36    1
    40    11    37    1
    41    15    38    1
    42    16    39    1
    43    19    40    1
    44    20    41    1
    45    22    42    1
    46    24    43    1
    47    24    44    1
    48    25    45    1
    49    26    46    1
    50    26    47    1
    51    27    48    1
    52    27    49    1
    53    28    50    1
    54    28    51    1
    55    29    52    1
    56    29    53    1
