@<TRIPOS>MOLECULE
*****
 73 75 0 0 0
SMALL
GASTEIGER

@<TRIPOS>ATOM
      1 C           0.7172    0.0223   -0.4013 C.3     1  UNL1       -0.0307
      2 C           2.2192    0.0684   -0.5345 C.3     1  UNL1        0.0870
      3 O           2.8656   -1.1825   -0.7314 O.3     1  UNL1       -0.4886
      4 C           4.2495   -1.2504   -0.6457 C.ar    1  UNL1        0.1619
      5 C           4.7849   -1.8340   -1.7982 C.ar    1  UNL1       -0.0155
      6 C           6.1135   -2.2199   -1.8044 C.ar    1  UNL1       -0.0444
      7 C           6.9750   -1.9285   -0.7107 C.ar    1  UNL1        0.0598
      8 C           8.3976   -2.2124   -0.8695 C.2     1  UNL1        0.3407
      9 O           8.5002   -2.6771   -1.9791 O.2     1  UNL1       -0.2483
     10 N           9.3764   -1.9356    0.0993 N.am    1  UNL1        0.0006
     11 C          10.6616   -2.1774   -0.0673 C.2     1  UNL1        0.3842
     12 N          11.3264   -2.7052   -1.1621 N.pl3   1  UNL1       -0.2767
     13 C          10.6776   -3.1220   -2.3654 C.3     1  UNL1        0.0686
     14 C          11.4220   -3.6649   -3.5428 C.3     1  UNL1        0.0065
     15 C          10.4403   -4.0117   -4.6481 C.ar    1  UNL1       -0.0012
     16 C           9.5852   -3.1578   -5.4228 C.ar    1  UNL1        0.0635
     17 C           9.4284   -1.6788   -5.4154 C.3     1  UNL1       -0.0203
     18 N           8.8578   -3.8539   -6.3060 N.ar    1  UNL1       -0.1762
     19 N           9.2151   -5.1285   -6.1047 N.ar    1  UNL1       -0.2711
     20 C           8.6583   -6.1576   -6.9519 C.3     1  UNL1        0.0305
     21 C          10.1474   -5.2845   -5.1145 C.ar    1  UNL1        0.0393
     22 C          10.7019   -6.5971   -4.7084 C.3     1  UNL1       -0.0224
     23 N          11.5495   -1.9306    0.9916 N.pl3   1  UNL1       -0.2450
     24 C          12.9730   -1.9370    1.0028 C.ar    1  UNL1        0.1003
     25 C          13.7049   -2.4169    2.1047 C.ar    1  UNL1       -0.0203
     26 C          15.1185   -2.4463    2.0813 C.ar    1  UNL1       -0.0470
     27 C          15.9396   -2.6950    3.3149 C.3     1  UNL1       -0.0396
     28 C          15.8005   -2.1279    0.9023 C.ar    1  UNL1       -0.0557
     29 C          15.0994   -1.6358   -0.1916 C.ar    1  UNL1       -0.0470
     30 C          15.8009   -1.1820   -1.4318 C.3     1  UNL1       -0.0396
     31 C          13.7087   -1.5078   -0.1105 C.ar    1  UNL1       -0.0203
     32 C           6.4830   -1.3543    0.4210 C.ar    1  UNL1       -0.0026
     33 C           5.1266   -1.0417    0.4854 C.ar    1  UNL1        0.1627
     34 O           4.9074   -0.5932    1.7836 O.3     1  UNL1       -0.4886
     35 C           3.6497   -0.0378    1.8694 C.3     1  UNL1        0.0870
     36 C           3.1223    0.6340    3.0934 C.3     1  UNL1       -0.0307
     37 H           0.3997    0.9427    0.1186 H       1  UNL1        0.0262
     38 H           0.4327   -0.8082    0.2604 H       1  UNL1        0.0262
     39 H           0.2101   -0.0571   -1.3528 H       1  UNL1        0.0262
     40 H           2.2756    0.3243    0.4850 H       1  UNL1        0.0694
     41 H           2.6769    0.9079   -1.0648 H       1  UNL1        0.0694
     42 H           4.1897   -2.0255   -2.6904 H       1  UNL1        0.0655
     43 H           6.4823   -2.7536   -2.6864 H       1  UNL1        0.0627
     44 H          12.2746   -3.0221   -1.0466 H       1  UNL1        0.2577
     45 H          10.2385   -2.1987   -2.7512 H       1  UNL1        0.0658
     46 H          10.0141   -3.9439   -2.0690 H       1  UNL1        0.0658
     47 H          11.9568   -4.5583   -3.2097 H       1  UNL1        0.0345
     48 H          12.1448   -2.9294   -3.8958 H       1  UNL1        0.0345
     49 H          10.0048   -1.1978   -4.6240 H       1  UNL1        0.0293
     50 H           8.3768   -1.3925   -5.2907 H       1  UNL1        0.0293
     51 H           9.7754   -1.2694   -6.3703 H       1  UNL1        0.0293
     52 H           7.9572   -5.7148   -7.6638 H       1  UNL1        0.0473
     53 H           8.1394   -6.8830   -6.3209 H       1  UNL1        0.0473
     54 H           9.4806   -6.6333   -7.4932 H       1  UNL1        0.0473
     55 H          10.3317   -7.4193   -5.3251 H       1  UNL1        0.0292
     56 H          10.4462   -6.8147   -3.6667 H       1  UNL1        0.0292
     57 H          11.7918   -6.5755   -4.8025 H       1  UNL1        0.0292
     58 H          11.1403   -1.5140    1.8206 H       1  UNL1        0.2646
     59 H          13.1880   -2.7824    2.9898 H       1  UNL1        0.0655
     60 H          15.3138   -2.8917    4.1884 H       1  UNL1        0.0278
     61 H          16.5276   -1.7921    3.5293 H       1  UNL1        0.0278
     62 H          16.6311   -3.5311    3.1725 H       1  UNL1        0.0278
     63 H          16.8856   -2.2140    0.8605 H       1  UNL1        0.0623
     64 H          16.8852   -1.2954   -1.3449 H       1  UNL1        0.0278
     65 H          15.5816   -0.1230   -1.5999 H       1  UNL1        0.0278
     66 H          15.4591   -1.7651   -2.2927 H       1  UNL1        0.0278
     67 H          13.1851   -1.0645   -0.9549 H       1  UNL1        0.0655
     68 H           7.1344   -1.1736    1.2698 H       1  UNL1        0.0663
     69 H           2.9611   -0.8758    1.6947 H       1  UNL1        0.0694
     70 H           3.7180    0.8027    1.1663 H       1  UNL1        0.0694
     71 H           3.2130   -0.0122    3.9594 H       1  UNL1        0.0262
     72 H           2.0608    0.8644    2.9098 H       1  UNL1        0.0262
     73 H           3.6430    1.5800    3.2425 H       1  UNL1        0.0262
@<TRIPOS>BOND
     1     1     2    1
     2     2     3    1
     3     3     4    1
     4     4     5   ar
     5     5     6   ar
     6     6     7   ar
     7     7     8    1
     8     8     9    2
     9     8    10    1
    10    10    11    2
    11    11    12    1
    12    12    13    1
    13    13    14    1
    14    14    15    1
    15    15    16   ar
    16    16    17    1
    17    16    18   ar
    18    18    19   ar
    19    19    20    1
    20    19    21   ar
    21    15    21   ar
    22    21    22    1
    23    11    23    1
    24    23    24    1
    25    24    25   ar
    26    25    26   ar
    27    26    27    1
    28    26    28   ar
    29    28    29   ar
    30    29    30    1
    31    29    31   ar
    32    24    31   ar
    33     7    32   ar
    34    32    33   ar
    35     4    33   ar
    36    33    34    1
    37    34    35    1
    38    35    36    1
    39     1    37    1
    40     1    38    1
    41     1    39    1
    42     2    40    1
    43     2    41    1
    44     5    42    1
    45     6    43    1
    46    12    44    1
    47    13    45    1
    48    13    46    1
    49    14    47    1
    50    14    48    1
    51    17    49    1
    52    17    50    1
    53    17    51    1
    54    20    52    1
    55    20    53    1
    56    20    54    1
    57    22    55    1
    58    22    56    1
    59    22    57    1
    60    23    58    1
    61    25    59    1
    62    27    60    1
    63    27    61    1
    64    27    62    1
    65    28    63    1
    66    30    64    1
    67    30    65    1
    68    30    66    1
    69    31    67    1
    70    32    68    1
    71    35    69    1
    72    35    70    1
    73    36    71    1
    74    36    72    1
    75    36    73    1
