@<TRIPOS>MOLECULE
*****
 67 70 0 0 0
SMALL
GASTEIGER

@<TRIPOS>ATOM
      1 C           0.6194    0.0388    0.3322 C.3     1  UNL1       -0.0307
      2 C           2.1240   -0.0161    0.4499 C.3     1  UNL1        0.0870
      3 O           2.7578    1.2250    0.7606 O.3     1  UNL1       -0.4886
      4 C           4.1407    1.2959    0.6766 C.ar    1  UNL1        0.1624
      5 C           4.7230    1.7543    1.8757 C.ar    1  UNL1       -0.0091
      6 C           6.1005    2.0219    1.9322 C.ar    1  UNL1       -0.0204
      7 C           6.7034    2.8207    2.9850 C.2     1  UNL1       -0.0344
      8 C           7.8917    3.4693    3.0296 C.2     1  UNL1        0.1318
      9 C           8.0397    4.1369    4.3285 C.2     1  UNL1        0.3489
     10 N           7.1537    4.3911    5.2552 N.2     1  UNL1       -0.0968
     11 N           9.2898    4.5199    4.6262 N.pl3   1  UNL1       -0.0340
     12 N           9.4615    4.8908    5.9094 N.2     1  UNL1       -0.0797
     13 C          10.2925    5.7753    6.0076 C.2     1  UNL1        0.1249
     14 C          10.2517    6.5471    7.3486 C.3     1  UNL1        0.0020
     15 C           8.9271    6.5581    8.3232 C.3     1  UNL1       -0.0407
     16 C           8.3927    5.2114    8.8704 C.3     1  UNL1       -0.0623
     17 C           9.2496    7.3931    9.5964 C.3     1  UNL1       -0.0623
     18 S          11.4111    5.8673    4.5767 S.3     1  UNL1       -0.0096
     19 C          10.2809    4.7414    3.7361 C.2     1  UNL1        0.2752
     20 N          10.2862    4.2885    2.5140 N.am    1  UNL1       -0.1303
     21 C           9.0999    3.6686    2.0487 C.2     1  UNL1        0.2789
     22 O           8.9700    3.4271    0.8497 O.2     1  UNL1       -0.2676
     23 C           6.9075    1.5942    0.9086 C.ar    1  UNL1       -0.0509
     24 C           6.3635    1.3456   -0.3197 C.ar    1  UNL1       -0.0157
     25 C           4.9918    1.1954   -0.4681 C.ar    1  UNL1        0.1621
     26 O           4.7632    0.9616   -1.8157 O.3     1  UNL1       -0.4849
     27 C           3.5192    0.3805   -1.9863 C.3     1  UNL1        0.1237
     28 C           3.0443   -0.1652   -3.2991 C.3     1  UNL1        0.1235
     29 O           1.6242   -0.4373   -3.1614 O.3     1  UNL1       -0.4886
     30 C           1.1062   -1.0859   -4.2477 C.ar    1  UNL1        0.1209
     31 C          -0.1346   -0.6922   -4.7489 C.ar    1  UNL1       -0.0165
     32 C          -0.6459   -1.3160   -5.8980 C.ar    1  UNL1       -0.0165
     33 C           0.0977   -2.2969   -6.5640 C.ar    1  UNL1        0.1203
     34 O          -0.4212   -2.7666   -7.7408 O.3     1  UNL1       -0.4951
     35 C           0.4201   -3.6537   -8.4789 C.3     1  UNL1        0.0788
     36 C           1.2981   -2.7263   -6.0090 C.ar    1  UNL1       -0.0165
     37 C           1.7795   -2.1461   -4.8437 C.ar    1  UNL1       -0.0165
     38 H           0.2928   -0.8277   -0.2673 H       1  UNL1        0.0262
     39 H           0.3318    0.9300   -0.2416 H       1  UNL1        0.0262
     40 H           0.1161    0.0301    1.2905 H       1  UNL1        0.0262
     41 H           2.2005   -0.1986   -0.5842 H       1  UNL1        0.0694
     42 H           2.5798   -0.8941    0.9175 H       1  UNL1        0.0694
     43 H           4.0904    1.9297    2.7483 H       1  UNL1        0.0661
     44 H           5.9932    2.9305    3.7988 H       1  UNL1        0.0634
     45 H           6.2264    4.0320    5.1664 H       1  UNL1        0.3634
     46 H          10.4728    7.5945    7.1400 H       1  UNL1        0.0337
     47 H          11.0364    6.0830    7.9416 H       1  UNL1        0.0337
     48 H           8.0756    7.0512    7.8263 H       1  UNL1        0.0299
     49 H           9.1722    4.6580    9.4017 H       1  UNL1        0.0232
     50 H           7.9592    4.5788    8.0943 H       1  UNL1        0.0232
     51 H           7.5837    5.3721    9.6080 H       1  UNL1        0.0232
     52 H          10.0792    6.9401   10.1521 H       1  UNL1        0.0232
     53 H           8.4014    7.4470   10.2973 H       1  UNL1        0.0232
     54 H           9.5191    8.4214    9.3452 H       1  UNL1        0.0232
     55 H           7.9792    1.5449    1.0078 H       1  UNL1        0.0625
     56 H           7.0297    1.2890   -1.1745 H       1  UNL1        0.0655
     57 H           2.7978    1.1544   -1.7052 H       1  UNL1        0.0731
     58 H           3.6079   -0.5404   -1.3909 H       1  UNL1        0.0731
     59 H           3.6153   -1.0827   -3.4579 H       1  UNL1        0.0731
     60 H           3.2094    0.5528   -4.0977 H       1  UNL1        0.0731
     61 H          -0.6953    0.1138   -4.2804 H       1  UNL1        0.0655
     62 H          -1.6184   -1.0221   -6.2869 H       1  UNL1        0.0655
     63 H          -0.0666   -3.8786   -9.4316 H       1  UNL1        0.0660
     64 H           0.5508   -4.5985   -7.9398 H       1  UNL1        0.0660
     65 H           1.3919   -3.1973   -8.7061 H       1  UNL1        0.0660
     66 H           1.8981   -3.5108   -6.4524 H       1  UNL1        0.0655
     67 H           2.6978   -2.5408   -4.4276 H       1  UNL1        0.0655
@<TRIPOS>BOND
     1     1     2    1
     2     2     3    1
     3     3     4    1
     4     4     5   ar
     5     5     6   ar
     6     6     7    1
     7     7     8    2
     8     8     9    1
     9     9    10    2
    10     9    11    1
    11    11    12    1
    12    12    13    2
    13    13    14    1
    14    14    15    1
    15    15    16    1
    16    15    17    1
    17    13    18    1
    18    18    19    1
    19    11    19    1
    20    19    20    2
    21    20    21    1
    22     8    21    1
    23    21    22    2
    24     6    23   ar
    25    23    24   ar
    26    24    25   ar
    27     4    25   ar
    28    25    26    1
    29    26    27    1
    30    27    28    1
    31    28    29    1
    32    29    30    1
    33    30    31   ar
    34    31    32   ar
    35    32    33   ar
    36    33    34    1
    37    34    35    1
    38    33    36   ar
    39    36    37   ar
    40    30    37   ar
    41     1    38    1
    42     1    39    1
    43     1    40    1
    44     2    41    1
    45     2    42    1
    46     5    43    1
    47     7    44    1
    48    10    45    1
    49    14    46    1
    50    14    47    1
    51    15    48    1
    52    16    49    1
    53    16    50    1
    54    16    51    1
    55    17    52    1
    56    17    53    1
    57    17    54    1
    58    23    55    1
    59    24    56    1
    60    27    57    1
    61    27    58    1
    62    28    59    1
    63    28    60    1
    64    31    61    1
    65    32    62    1
    66    35    63    1
    67    35    64    1
    68    35    65    1
    69    36    66    1
    70    37    67    1
