@<TRIPOS>MOLECULE
*****
 67 71 0 0 0
SMALL
GASTEIGER

@<TRIPOS>ATOM
      1 O           1.5171    0.5985    0.4781 O.2     1  UNL1       -0.2685
      2 C           2.6829    0.4995    0.2604 C.2     1  UNL1        0.2633
      3 N           3.3242    1.3001   -0.6804 N.am    1  UNL1       -0.2030
      4 N           2.5298    2.2110   -1.3026 N.2     1  UNL1       -0.1873
      5 C           3.1133    3.1122   -2.0227 C.2     1  UNL1        0.0569
      6 C           2.3034    4.1661   -2.6686 C.ar    1  UNL1        0.0436
      7 C           1.2022    4.7063   -1.9858 C.ar    1  UNL1        0.1261
      8 O           0.7883    4.2649   -0.7568 O.3     1  UNL1       -0.5061
      9 C           0.4949    5.7723   -2.5277 C.ar    1  UNL1       -0.0189
     10 C           0.8832    6.3094   -3.7546 C.ar    1  UNL1       -0.0505
     11 C           1.9639    5.7678   -4.4680 C.ar    1  UNL1       -0.0170
     12 C           2.3359    6.3101   -5.7081 C.ar    1  UNL1       -0.0540
     13 C           3.3894    5.7645   -6.4395 C.ar    1  UNL1       -0.0612
     14 C           4.0782    4.6643   -5.9465 C.ar    1  UNL1       -0.0611
     15 C           3.7306    4.1220   -4.7106 C.ar    1  UNL1       -0.0533
     16 C           2.6841    4.6680   -3.9353 C.ar    1  UNL1       -0.0057
     17 C           3.6069   -0.5305    0.9038 C.ar    1  UNL1        0.0384
     18 C           4.7043   -0.2785    1.6658 C.ar    1  UNL1       -0.0493
     19 C           5.5487   -1.3829    2.0870 C.ar    1  UNL1       -0.0566
     20 C           5.3795   -2.7017    1.6167 C.ar    1  UNL1       -0.0333
     21 C           5.8620   -4.0729    2.2523 C.3     1  UNL1        0.0244
     22 N           4.9299   -5.3514    2.4878 N.3     1  UNL1       -0.2882
     23 C           4.6082   -6.4415    1.4920 C.3     1  UNL1        0.0396
     24 C           3.9034   -6.0707    0.1408 C.3     1  UNL1       -0.0185
     25 N           2.6083   -5.1924    0.3891 N.4     1  UNL1        0.2403
     26 C           2.2220   -4.3233   -1.0107 C.3     1  UNL1       -0.0058
     27 C           0.9922   -3.4003   -1.0134 C.ar    1  UNL1       -0.0029
     28 C          -0.0752   -3.4339   -1.8930 C.ar    1  UNL1       -0.0535
     29 C          -1.0274   -2.3594   -1.9214 C.ar    1  UNL1       -0.0613
     30 C          -1.0792   -1.3788   -0.9275 C.ar    1  UNL1       -0.0617
     31 C          -0.2155   -1.5094    0.1013 C.ar    1  UNL1       -0.0613
     32 C           0.8811   -2.2896   -0.1936 C.ar    1  UNL1       -0.0535
     33 C           2.7922   -4.4709    1.7334 C.3     1  UNL1       -0.0185
     34 C           3.5951   -4.9356    2.9662 C.3     1  UNL1        0.0396
     35 C           4.7295   -2.6509    0.4282 C.ar    1  UNL1       -0.0566
     36 C           3.6135   -1.8209    0.4466 C.ar    1  UNL1       -0.0493
     37 H           4.3203    1.2715   -0.8161 H       1  UNL1        0.1776
     38 H           4.2077    3.1395   -2.1387 H       1  UNL1        0.0853
     39 H           1.2375    3.4127   -0.5623 H       1  UNL1        0.2922
     40 H          -0.3494    6.1980   -1.9913 H       1  UNL1        0.0654
     41 H           0.3288    7.1579   -4.1529 H       1  UNL1        0.0625
     42 H           1.8035    7.1662   -6.1195 H       1  UNL1        0.0624
     43 H           3.6655    6.1949   -7.3986 H       1  UNL1        0.0618
     44 H           4.8870    4.2237   -6.5225 H       1  UNL1        0.0618
     45 H           4.2820    3.2494   -4.3717 H       1  UNL1        0.0624
     46 H           4.8676    0.7515    1.9496 H       1  UNL1        0.0625
     47 H           6.4132   -1.1468    2.6909 H       1  UNL1        0.0621
     48 H           6.0841   -3.7820    3.2925 H       1  UNL1        0.0476
     49 H           6.8217   -4.3624    1.8152 H       1  UNL1        0.0476
     50 H           3.8519   -7.0893    1.9841 H       1  UNL1        0.0479
     51 H           5.4381   -7.1450    1.3471 H       1  UNL1        0.0479
     52 H           3.5699   -6.9439   -0.4322 H       1  UNL1        0.0827
     53 H           4.6192   -5.5168   -0.4749 H       1  UNL1        0.0827
     54 H           1.7723   -5.7644    0.5236 H       1  UNL1        0.2038
     55 H           2.0723   -5.1161   -1.7531 H       1  UNL1        0.0867
     56 H           3.1333   -3.8201   -1.3807 H       1  UNL1        0.0867
     57 H          -0.1747   -4.2397   -2.6091 H       1  UNL1        0.0622
     58 H          -1.7404   -2.2698   -2.7325 H       1  UNL1        0.0618
     59 H          -1.7012   -0.4874   -0.9412 H       1  UNL1        0.0618
     60 H          -0.1240   -0.7582    0.8829 H       1  UNL1        0.0618
     61 H           1.6798   -1.5731   -0.2428 H       1  UNL1        0.0622
     62 H           2.0676   -3.7108    1.9870 H       1  UNL1        0.0827
     63 H           3.6316   -4.0039    1.3667 H       1  UNL1        0.0827
     64 H           3.0330   -5.6785    3.5431 H       1  UNL1        0.0479
     65 H           3.7696   -4.0989    3.6600 H       1  UNL1        0.0479
     66 H           4.6675   -3.5376   -0.1768 H       1  UNL1        0.0621
     67 H           2.7399   -2.3732    0.8012 H       1  UNL1        0.0625
@<TRIPOS>UNITY_ATOM_ATTR
25 1
charge 1
@<TRIPOS>BOND
     1     1     2    2
     2     2     3   am
     3     3     4    1
     4     4     5    2
     5     5     6    1
     6     6     7   ar
     7     7     8    1
     8     7     9   ar
     9     9    10   ar
    10    10    11   ar
    11    11    12   ar
    12    12    13   ar
    13    13    14   ar
    14    14    15   ar
    15    15    16   ar
    16     6    16   ar
    17    11    16   ar
    18     2    17    1
    19    17    18   ar
    20    18    19   ar
    21    19    20   ar
    22    20    21    1
    23    21    22    1
    24    22    23    1
    25    23    24    1
    26    24    25    1
    27    25    26    1
    28    26    27    1
    29    27    28   ar
    30    28    29   ar
    31    29    30   ar
    32    30    31   ar
    33    31    32   ar
    34    27    32   ar
    35    25    33    1
    36    33    34    1
    37    22    34    1
    38    20    35   ar
    39    35    36   ar
    40    17    36   ar
    41     3    37    1
    42     5    38    1
    43     8    39    1
    44     9    40    1
    45    10    41    1
    46    12    42    1
    47    13    43    1
    48    14    44    1
    49    15    45    1
    50    18    46    1
    51    19    47    1
    52    21    48    1
    53    21    49    1
    54    23    50    1
    55    23    51    1
    56    24    52    1
    57    24    53    1
    58    25    54    1
    59    26    55    1
    60    26    56    1
    61    28    57    1
    62    29    58    1
    63    30    59    1
    64    31    60    1
    65    32    61    1
    66    33    62    1
    67    33    63    1
    68    34    64    1
    69    34    65    1
    70    35    66    1
    71    36    67    1
