@<TRIPOS>MOLECULE
*****
 36 36 0 0 0
SMALL
GASTEIGER

@<TRIPOS>ATOM
      1 C           2.4901    1.1842   -0.0007 C.3     1  UNL1       -0.0396
      2 C           1.2481    0.3395    0.0042 C.ar    1  UNL1       -0.0470
      3 C           1.2997   -1.0566    0.0183 C.ar    1  UNL1       -0.0579
      4 C           0.1193   -1.8225    0.0001 C.ar    1  UNL1       -0.0458
      5 C          -1.1453   -1.2119   -0.0216 C.ar    1  UNL1        0.0795
      6 C          -2.4229   -2.0149   -0.0591 C.2     1  UNL1        0.2637
      7 O          -3.5059   -1.4197   -0.0715 O.2     1  UNL1       -0.2685
      8 N          -2.3438   -3.4030   -0.0824 N.am    1  UNL1       -0.2303
      9 N          -3.5248   -4.1912   -0.1250 N.am    1  UNL1       -0.2337
     10 C          -3.4004   -5.5746   -0.1432 C.2     1  UNL1        0.2345
     11 O          -2.2870   -6.1069   -0.1236 O.2     1  UNL1       -0.2737
     12 C          -4.7167   -6.3987   -0.1882 C.3     1  UNL1        0.0400
     13 C          -5.5791   -6.1069    1.0474 C.3     1  UNL1       -0.0517
     14 C          -5.5169   -6.0703   -1.4560 C.3     1  UNL1       -0.0517
     15 C          -4.4029   -7.9108   -0.2025 C.3     1  UNL1       -0.0517
     16 C          -1.1813    0.1975   -0.0123 C.ar    1  UNL1        0.1292
     17 O          -2.3379    0.9352   -0.0048 O.3     1  UNL1       -0.5060
     18 C          -0.0043    0.9586   -0.0070 C.ar    1  UNL1       -0.0165
     19 H           3.4008    0.5763    0.0031 H       1  UNL1        0.0278
     20 H           2.5117    1.8290    0.8844 H       1  UNL1        0.0278
     21 H           2.5124    1.8144   -0.8966 H       1  UNL1        0.0278
     22 H           2.2609   -1.5682    0.0406 H       1  UNL1        0.0620
     23 H           0.2341   -2.9003    0.0033 H       1  UNL1        0.0626
     24 H          -1.4797   -3.9394   -0.0746 H       1  UNL1        0.1731
     25 H          -4.4099   -3.6898   -0.1410 H       1  UNL1        0.1728
     26 H          -5.8643   -5.0520    1.1032 H       1  UNL1        0.0239
     27 H          -5.0428   -6.3567    1.9695 H       1  UNL1        0.0239
     28 H          -6.5041   -6.6972    1.0311 H       1  UNL1        0.0239
     29 H          -5.7997   -5.0141   -1.4951 H       1  UNL1        0.0239
     30 H          -6.4412   -6.6602   -1.5028 H       1  UNL1        0.0239
     31 H          -4.9354   -6.2937   -2.3573 H       1  UNL1        0.0239
     32 H          -3.8450   -8.2131    0.6912 H       1  UNL1        0.0239
     33 H          -3.8012   -8.1873   -1.0758 H       1  UNL1        0.0239
     34 H          -5.3219   -8.5103   -0.2340 H       1  UNL1        0.0239
     35 H          -3.0983    0.3157   -0.0006 H       1  UNL1        0.2922
     36 H          -0.0690    2.0457   -0.0120 H       1  UNL1        0.0657
@<TRIPOS>BOND
     1     1     2    1
     2     2     3   ar
     3     3     4   ar
     4     4     5   ar
     5     5     6    1
     6     6     7    2
     7     6     8   am
     8     8     9    1
     9     9    10   am
    10    10    11    2
    11    10    12    1
    12    12    13    1
    13    12    14    1
    14    12    15    1
    15     5    16   ar
    16    16    17    1
    17    16    18   ar
    18     2    18   ar
    19     1    19    1
    20     1    20    1
    21     1    21    1
    22     3    22    1
    23     4    23    1
    24     8    24    1
    25     9    25    1
    26    13    26    1
    27    13    27    1
    28    13    28    1
    29    14    29    1
    30    14    30    1
    31    14    31    1
    32    15    32    1
    33    15    33    1
    34    15    34    1
    35    17    35    1
    36    18    36    1
