REMARK  6 active torsions:
REMARK  status: ('A' for Active; 'I' for Inactive)
REMARK    1  A    between atoms: C_5  and  N_6 
REMARK    2  A    between atoms: N_6  and  N_7 
REMARK       I    between atoms: N_7  and  C_8 
REMARK    3  A    between atoms: C_8  and  C_10 
REMARK    4  A    between atoms: C_10  and  C_11 
REMARK    5  A    between atoms: C_11  and  N_12 
REMARK       I    between atoms: N_12  and  C_13 
REMARK    6  A    between atoms: C_13  and  C_15 
ROOT
ATOM      1  N   UNL d   1      -4.174  -2.483   0.004  0.00  0.00    -0.270 N 
ATOM      2  C   UNL d   1      -4.877  -3.686   0.010  0.00  0.00     0.237 C 
ATOM      3  O   UNL d   1      -4.309  -4.779   0.024  0.00  0.00    -0.272 OA
ATOM      4  H   UNL d   1      -4.636  -1.585  -0.013  0.00  0.00     0.190 HD
ENDROOT
BRANCH   2   5
ATOM      5  C   UNL d   1      -6.407  -3.545  -0.000  0.00  0.00     0.124 C 
BRANCH   5   6
ATOM      6  C   UNL d   1      -7.106  -4.915   0.013  0.00  0.00     0.132 C 
BRANCH   6   7
ATOM      7  N   UNL d   1      -8.573  -4.861   0.012  0.00  0.00    -0.360 N 
ATOM      8  C   UNL d   1      -9.323  -6.025  -0.044  0.00  0.00     0.221 C 
ATOM      9  O   UNL d   1      -8.799  -7.139  -0.005  0.00  0.00    -0.273 OA
ATOM     10  H   UNL d   1      -9.041  -3.966  -0.010  0.00  0.00     0.162 HD
BRANCH   8  11
ATOM     11  C   UNL d   1     -10.850  -5.868  -0.060  0.00  0.00     0.078 C 
ATOM     12  C   UNL d   1     -11.378  -4.652  -0.811  0.00  0.00     0.014 C 
ATOM     13  C   UNL d   1     -12.832  -4.981  -1.124  0.00  0.00     0.001 C 
ATOM     14  C   UNL d   1     -12.896  -6.499  -1.254  0.00  0.00     0.001 C 
ATOM     15  C   UNL d   1     -11.528  -7.021  -0.819  0.00  0.00     0.014 C 
ENDBRANCH   8  11
ENDBRANCH   6   7
ENDBRANCH   5   6
ENDBRANCH   2   5
BRANCH   1  16
ATOM     16  N   UNL d   1      -2.764  -2.521   0.001  0.00  0.00    -0.298 N 
ATOM     17  H   UNL d   1      -2.333  -3.447   0.029  0.00  0.00     0.187 HD
BRANCH  16  18
ATOM     18  C   UNL d   1      -1.974  -1.355   0.005  0.00  0.00     0.049 A 
ATOM     19  C   UNL d   1      -2.507  -0.062  -0.011  0.00  0.00     0.031 A 
ATOM     20  C   UNL d   1      -1.692   1.083  -0.011  0.00  0.00     0.011 A 
ATOM     21  C   UNL d   1      -0.298   0.984   0.002  0.00  0.00    -0.040 A 
ATOM     22  C   UNL d   1       0.538   2.236   0.010  0.00  0.00     0.050 C 
ATOM     23  C   UNL d   1       0.257  -0.302   0.009  0.00  0.00     0.042 A 
ATOM     24  C   UNL d   1      -0.567  -1.450   0.013  0.00  0.00     0.055 A 
ATOM     25 CL   UNL d   1       1.974  -0.521   0.008  0.00  0.00    -0.084 Cl
ENDBRANCH  16  18
ENDBRANCH   1  16
TORSDOF 6
