@<TRIPOS>MOLECULE
*****
 48 48 0 0 0
SMALL
GASTEIGER

@<TRIPOS>ATOM
      1 C          16.2305   -3.0115   10.7361 C.3     1  UNL1       -0.0652
      2 C          15.9341   -4.1348    9.7504 C.3     1  UNL1       -0.0545
      3 C          14.9485   -3.6819    8.6648 C.3     1  UNL1       -0.0376
      4 C          14.6396   -4.7953    7.6572 C.3     1  UNL1        0.0131
      5 N          13.7265   -4.3689    6.5948 N.am    1  UNL1       -0.2982
      6 C          13.2429   -5.2686    5.6624 C.2     1  UNL1        0.3160
      7 O          13.6028   -6.4308    5.6117 O.2     1  UNL1       -0.2513
      8 N          12.2769   -4.7312    4.8165 N.am    1  UNL1       -0.2181
      9 N          11.4677   -5.6123    4.0195 N.am    1  UNL1       -0.2301
     10 C          10.8895   -5.1169    2.8515 C.2     1  UNL1        0.2696
     11 O          10.7416   -3.9018    2.6841 O.2     1  UNL1       -0.2702
     12 C          10.4598   -6.1469    1.7216 C.3     1  UNL1        0.1741
     13 C           8.9478   -5.9393    1.5085 C.3     1  UNL1       -0.0190
     14 O          10.7004   -7.5520    1.7758 O.3     1  UNL1       -0.4798
     15 C          11.9995   -7.9853    1.8314 C.ar    1  UNL1        0.1218
     16 C          12.2665   -9.3177    1.5271 C.ar    1  UNL1       -0.0165
     17 C          13.5309   -9.8675    1.8207 C.ar    1  UNL1       -0.0165
     18 C          14.5087   -9.1032    2.4657 C.ar    1  UNL1        0.1207
     19 O          15.7316   -9.6725    2.7012 O.3     1  UNL1       -0.4922
     20 C          16.7208   -8.7847    3.2499 C.3     1  UNL1        0.0868
     21 C          18.0639   -9.4803    3.2490 C.3     1  UNL1       -0.0307
     22 C          14.2198   -7.7869    2.7625 C.ar    1  UNL1       -0.0165
     23 C          13.0510   -7.2131    2.2960 C.ar    1  UNL1       -0.0165
     24 H          16.9366   -3.3473   11.5030 H       1  UNL1        0.0230
     25 H          15.3165   -2.6813   11.2401 H       1  UNL1        0.0230
     26 H          16.6715   -2.1493   10.2256 H       1  UNL1        0.0230
     27 H          15.5254   -4.9915   10.2995 H       1  UNL1        0.0263
     28 H          16.8744   -4.4634    9.2923 H       1  UNL1        0.0263
     29 H          15.3643   -2.8146    8.1382 H       1  UNL1        0.0280
     30 H          14.0182   -3.3468    9.1401 H       1  UNL1        0.0280
     31 H          14.1964   -5.6551    8.1746 H       1  UNL1        0.0462
     32 H          15.5648   -5.1408    7.1824 H       1  UNL1        0.0462
     33 H          13.3139   -3.4512    6.6491 H       1  UNL1        0.1503
     34 H          12.0372   -3.7478    4.7812 H       1  UNL1        0.1744
     35 H          11.7133   -6.5993    4.1144 H       1  UNL1        0.1729
     36 H          10.9371   -5.8082    0.7896 H       1  UNL1        0.0829
     37 H           8.3971   -6.1338    2.4353 H       1  UNL1        0.0270
     38 H           8.5348   -6.6042    0.7407 H       1  UNL1        0.0270
     39 H           8.7317   -4.9062    1.2092 H       1  UNL1        0.0270
     40 H          11.5141   -9.9235    1.0270 H       1  UNL1        0.0655
     41 H          13.7439  -10.8990    1.5550 H       1  UNL1        0.0655
     42 H          16.4493   -8.5292    4.2817 H       1  UNL1        0.0694
     43 H          16.8174   -7.8655    2.6540 H       1  UNL1        0.0694
     44 H          17.9977  -10.4313    3.7832 H       1  UNL1        0.0262
     45 H          18.8245   -8.8529    3.7239 H       1  UNL1        0.0262
     46 H          18.3795   -9.6981    2.2239 H       1  UNL1        0.0262
     47 H          14.8788   -7.1518    3.3454 H       1  UNL1        0.0655
     48 H          13.0106   -6.1407    2.3904 H       1  UNL1        0.0655
@<TRIPOS>BOND
     1     1     2    1
     2     2     3    1
     3     3     4    1
     4     4     5    1
     5     5     6   am
     6     6     7    2
     7     6     8   am
     8     8     9    1
     9     9    10   am
    10    10    11    2
    11    12    14    1
    12    14    15    1
    13    15    16   ar
    14    16    17   ar
    15    17    18   ar
    16    18    19    1
    17    19    20    1
    18    20    21    1
    19    18    22   ar
    20    22    23   ar
    21    15    23   ar
    22    12    13    1
    23    12    10    1
    24     1    24    1
    25     1    25    1
    26     1    26    1
    27     2    27    1
    28     2    28    1
    29     3    29    1
    30     3    30    1
    31     4    31    1
    32     4    32    1
    33     5    33    1
    34     8    34    1
    35     9    35    1
    36    12    36    1
    37    13    37    1
    38    13    38    1
    39    13    39    1
    40    16    40    1
    41    17    41    1
    42    20    42    1
    43    20    43    1
    44    21    44    1
    45    21    45    1
    46    21    46    1
    47    22    47    1
    48    23    48    1
