@<TRIPOS>MOLECULE
*****
 50 54 0 0 0
SMALL
GASTEIGER

@<TRIPOS>ATOM
      1 O           1.0566    0.1487    0.0121 O.2     1  UNL1       -0.2685
      2 C           2.2826    0.0639    0.0898 C.2     1  UNL1        0.2622
      3 N           2.9650   -0.0852    1.3250 N.am    1  UNL1       -0.2132
      4 N           2.1916   -0.3792    2.5546 N.ar    1  UNL1       -0.1865
      5 C           2.3528    0.1303    3.8637 C.ar    1  UNL1        0.2792
      6 O           3.2030    0.9005    4.2740 O.2     1  UNL1       -0.2653
      7 C           1.2527   -0.5150    4.7541 C.ar    1  UNL1        0.0543
      8 C           0.7410   -0.4881    6.1260 C.ar    1  UNL1       -0.0355
      9 C          -0.3978   -1.3178    6.4742 C.ar    1  UNL1        0.0543
     10 C          -1.3548   -1.6985    7.6595 C.ar    1  UNL1        0.2792
     11 O          -1.2739   -1.2420    8.7868 O.2     1  UNL1       -0.2653
     12 N          -2.2930   -2.6452    7.1561 N.ar    1  UNL1       -0.1865
     13 N          -3.4549   -3.3066    7.8525 N.am    1  UNL1       -0.2132
     14 C          -4.2927   -4.2740    7.2093 C.2     1  UNL1        0.2622
     15 O          -4.2240   -4.6761    6.0548 O.2     1  UNL1       -0.2685
     16 C          -5.4085   -4.9494    7.9432 C.ar    1  UNL1        0.0385
     17 C          -6.2684   -4.2453    8.7790 C.ar    1  UNL1       -0.0461
     18 C          -7.2589   -4.9277    9.5048 C.ar    1  UNL1       -0.0195
     19 C          -7.4878   -6.2840    9.2801 C.ar    1  UNL1        0.1169
     20 O          -8.4056   -6.9878   10.0022 O.3     1  UNL1       -0.5068
     21 C          -6.7771   -6.9590    8.3003 C.ar    1  UNL1       -0.0195
     22 C          -5.7118   -6.3067    7.6627 C.ar    1  UNL1       -0.0461
     23 C          -2.0350   -2.8772    5.8528 C.ar    1  UNL1        0.2792
     24 O          -2.5260   -3.5699    4.9760 O.2     1  UNL1       -0.2653
     25 C          -0.9087   -2.0894    5.4560 C.ar    1  UNL1        0.0543
     26 C          -0.4379   -2.1414    4.1633 C.ar    1  UNL1       -0.0355
     27 C           0.6300   -1.3550    3.8497 C.ar    1  UNL1        0.0543
     28 C           1.2257   -1.3326    2.5276 C.ar    1  UNL1        0.2792
     29 O           0.8867   -2.1167    1.6620 O.2     1  UNL1       -0.2653
     30 C           3.0490    0.1882   -1.2241 C.ar    1  UNL1        0.0385
     31 C           2.5782    1.1071   -2.1951 C.ar    1  UNL1       -0.0461
     32 C           3.1017    1.1543   -3.5065 C.ar    1  UNL1       -0.0195
     33 C           4.1703    0.3374   -3.8390 C.ar    1  UNL1        0.1169
     34 O           4.7123    0.3217   -5.0923 O.3     1  UNL1       -0.5068
     35 C           4.7128   -0.5110   -2.8764 C.ar    1  UNL1       -0.0195
     36 C           4.1180   -0.6352   -1.5968 C.ar    1  UNL1       -0.0461
     37 H           3.9621   -0.2613    1.3544 H       1  UNL1        0.1762
     38 H           1.2094    0.1541    6.8756 H       1  UNL1        0.0633
     39 H          -3.5482   -3.1221    8.8465 H       1  UNL1        0.1762
     40 H          -6.2069   -3.1645    8.8373 H       1  UNL1        0.0626
     41 H          -7.8523   -4.3808   10.2298 H       1  UNL1        0.0654
     42 H          -8.7373   -6.4349   10.7291 H       1  UNL1        0.2921
     43 H          -7.0403   -7.9847    8.0464 H       1  UNL1        0.0654
     44 H          -5.1284   -6.8679    6.9310 H       1  UNL1        0.0626
     45 H          -0.9068   -2.7780    3.4236 H       1  UNL1        0.0633
     46 H           1.7772    1.7987   -1.9390 H       1  UNL1        0.0626
     47 H           2.6665    1.8282   -4.2416 H       1  UNL1        0.0654
     48 H           4.1693    0.8555   -5.6983 H       1  UNL1        0.2921
     49 H           5.5923   -1.0974   -3.1363 H       1  UNL1        0.0654
     50 H           4.4794   -1.4179   -0.9391 H       1  UNL1        0.0626
@<TRIPOS>BOND
     1     1     2    2
     2     2     3   am
     3     3     4    1
     4     4     5   ar
     5     5     6    2
     6     5     7   ar
     7     7     8   ar
     8     8     9   ar
     9     9    10   ar
    10    10    11    2
    11    10    12   ar
    12    12    13    1
    13    13    14   am
    14    14    15    2
    15    14    16    1
    16    16    17   ar
    17    17    18   ar
    18    18    19   ar
    19    19    20    1
    20    19    21   ar
    21    21    22   ar
    22    16    22   ar
    23    12    23   ar
    24    23    24    2
    25    23    25   ar
    26     9    25   ar
    27    25    26   ar
    28    26    27   ar
    29     7    27   ar
    30    27    28   ar
    31     4    28   ar
    32    28    29    2
    33     2    30    1
    34    30    31   ar
    35    31    32   ar
    36    32    33   ar
    37    33    34    1
    38    33    35   ar
    39    35    36   ar
    40    30    36   ar
    41     3    37    1
    42     8    38    1
    43    13    39    1
    44    17    40    1
    45    18    41    1
    46    20    42    1
    47    21    43    1
    48    22    44    1
    49    26    45    1
    50    31    46    1
    51    32    47    1
    52    34    48    1
    53    35    49    1
    54    36    50    1
