@<TRIPOS>MOLECULE
*****
 43 44 0 0 0
SMALL
GASTEIGER

@<TRIPOS>ATOM
      1 C           1.0330   -0.2067    0.1247 C.3     1  UNL1       -0.0612
      2 C           2.5697   -0.2671    0.1774 C.3     1  UNL1       -0.0287
      3 C           3.0132    0.6598    1.2692 C.ar    1  UNL1       -0.0208
      4 C           3.3620    0.0448    2.4859 C.ar    1  UNL1       -0.0503
      5 C           3.5062    0.7887    3.6500 C.ar    1  UNL1        0.0160
      6 C           3.4211    2.1812    3.5866 C.ar    1  UNL1        0.2750
      7 N           3.7024    2.9584    4.8037 N.pl3   1  UNL1        0.0797
      8 O           3.9731    2.3301    5.8383 O.2     1  UNL1        0.0414
      9 O           3.6739    4.1927    4.7184 O.co2   1  UNL1       -0.5760
     10 C           3.1299    2.8275    2.3705 C.ar    1  UNL1        0.0422
     11 C           2.9206    2.0646    1.1981 C.ar    1  UNL1        0.1164
     12 S           2.5722    3.0051   -0.3065 S.O2    1  UNL1        0.0740
     13 O           1.3110    3.6921   -0.0831 O.2     1  UNL1       -0.1517
     14 O           3.7809    3.7375   -0.5924 O.2     1  UNL1       -0.1517
     15 N           2.2778    1.9584   -1.6115 N.3     1  UNL1       -0.1076
     16 N           1.7151    2.4247   -2.8734 N.am    1  UNL1       -0.2277
     17 C           1.9217    1.6150   -3.9827 C.2     1  UNL1        0.2623
     18 O           2.1656    0.4137   -3.9420 O.2     1  UNL1       -0.2687
     19 C           1.8429    2.3265   -5.2743 C.ar    1  UNL1        0.0795
     20 C           0.8611    1.8385   -6.1567 C.ar    1  UNL1       -0.0460
     21 C           0.6704    2.4315   -7.4027 C.ar    1  UNL1       -0.0608
     22 C           1.4108    3.5556   -7.7467 C.ar    1  UNL1       -0.0583
     23 C           2.3980    4.0315   -6.8796 C.ar    1  UNL1       -0.0192
     24 C           2.6559    3.4121   -5.6450 C.ar    1  UNL1        0.1322
     25 O           3.7209    3.9905   -5.0045 O.3     1  UNL1       -0.4944
     26 C           4.1708    3.4795   -3.7622 C.3     1  UNL1        0.0788
     27 H           0.6519   -0.7118   -0.7654 H       1  UNL1        0.0233
     28 H           0.6327    0.8185    0.1147 H       1  UNL1        0.0233
     29 H           0.5997   -0.6675    1.0163 H       1  UNL1        0.0233
     30 H           3.1045   -0.0133   -0.7417 H       1  UNL1        0.0311
     31 H           2.8830   -1.3007    0.3462 H       1  UNL1        0.0311
     32 H           3.4835   -1.0375    2.5341 H       1  UNL1        0.0623
     33 H           3.6688    0.2651    4.5906 H       1  UNL1        0.0685
     34 H           3.0495    3.9147    2.3343 H       1  UNL1        0.0705
     35 H           1.8674    1.0555   -1.4323 H       1  UNL1        0.1716
     36 H           1.5801    3.4261   -2.9733 H       1  UNL1        0.1709
     37 H           0.2366    0.9945   -5.8680 H       1  UNL1        0.0626
     38 H          -0.0534    2.0189   -8.1012 H       1  UNL1        0.0618
     39 H           1.2307    4.0572   -8.6948 H       1  UNL1        0.0619
     40 H           2.9928    4.8924   -7.1821 H       1  UNL1        0.0654
     41 H           5.0923    3.9680   -3.4425 H       1  UNL1        0.0660
     42 H           4.3483    2.3997   -3.7947 H       1  UNL1        0.0660
     43 H           3.4629    3.7909   -3.0069 H       1  UNL1        0.0660
@<TRIPOS>UNITY_ATOM_ATTR
7 1
charge 1
9 1
charge -1
@<TRIPOS>BOND
     1     1     2    1
     2     2     3    1
     3     3     4   ar
     4     4     5   ar
     5     5     6   ar
     6     6     7    1
     7     7     8    2
     8     7     9    1
     9     6    10   ar
    10    10    11   ar
    11     3    11   ar
    12    11    12    1
    13    12    13    2
    14    12    14    2
    15    12    15    1
    16    15    16    1
    17    16    17   am
    18    17    18    2
    19    17    19    1
    20    19    20   ar
    21    20    21   ar
    22    21    22   ar
    23    22    23   ar
    24    23    24   ar
    25    19    24   ar
    26    24    25    1
    27    25    26    1
    28     1    27    1
    29     1    28    1
    30     1    29    1
    31     2    30    1
    32     2    31    1
    33     4    32    1
    34     5    33    1
    35    10    34    1
    36    15    35    1
    37    16    36    1
    38    20    37    1
    39    21    38    1
    40    22    39    1
    41    23    40    1
    42    26    41    1
    43    26    42    1
    44    26    43    1
