@<TRIPOS>MOLECULE
*****
 38 39 0 0 0
SMALL
GASTEIGER

@<TRIPOS>ATOM
      1 O           0.9823   -0.1169   -0.0993 O.2     1  UNL1       -0.2743
      2 C           2.2111   -0.0331   -0.0756 C.2     1  UNL1        0.2291
      3 C           2.9345    1.0007    0.7800 C.3     1  UNL1        0.0268
      4 C           1.9592    1.9295    1.5276 C.3     1  UNL1       -0.0291
      5 C           2.6905    2.9788    2.3676 C.3     1  UNL1        0.0123
      6 N           1.7913    3.8519    3.1058 N.am    1  UNL1       -0.3113
      7 C           2.2773    4.9024    3.8625 C.2     1  UNL1        0.2446
      8 O           3.4769    5.1587    3.9580 O.2     1  UNL1       -0.2702
      9 C           1.2553    5.7096    4.5307 C.ar    1  UNL1        0.0437
     10 C           0.1040    5.2186    5.2372 C.ar    1  UNL1       -0.0426
     11 C          -0.6666    6.2253    5.7780 C.ar    1  UNL1       -0.0236
     12 S          -0.0174    7.7709    5.4514 S.2     1  UNL1       -0.1043
     13 C           1.3139    7.0916    4.6135 C.ar    1  UNL1       -0.0122
     14 N           2.9682   -0.8668   -0.8808 N.am    1  UNL1       -0.2365
     15 N           4.3153   -1.1552   -0.6065 N.pl3   1  UNL1       -0.2644
     16 C           5.0012   -1.9507   -1.5681 C.ar    1  UNL1        0.0458
     17 C           4.5622   -2.1789   -2.8823 C.ar    1  UNL1       -0.0393
     18 C           5.2817   -3.0156   -3.7531 C.ar    1  UNL1       -0.0586
     19 C           6.4458   -3.6473   -3.3207 C.ar    1  UNL1       -0.0433
     20 C           6.8932   -3.4268   -2.0231 C.ar    1  UNL1        0.0428
     21 CL          8.3101   -4.2323   -1.4668 Cl      1  UNL1       -0.0835
     22 C           6.1936   -2.5735   -1.1627 C.ar    1  UNL1       -0.0210
     23 H           3.5749    1.5971    0.1210 H       1  UNL1        0.0359
     24 H           3.5644    0.4757    1.5065 H       1  UNL1        0.0359
     25 H           1.3023    1.3347    2.1751 H       1  UNL1        0.0285
     26 H           1.3027    2.4326    0.8058 H       1  UNL1        0.0285
     27 H           3.3233    3.6046    1.7274 H       1  UNL1        0.0462
     28 H           3.3423    2.4913    3.1012 H       1  UNL1        0.0462
     29 H           0.7906    3.7685    2.9759 H       1  UNL1        0.1490
     30 H          -0.1260    4.1694    5.3710 H       1  UNL1        0.0630
     31 H          -1.5740    6.1272    6.3593 H       1  UNL1        0.0693
     32 H           2.0711    7.7501    4.2074 H       1  UNL1        0.0701
     33 H           2.4349   -1.6352   -1.2850 H       1  UNL1        0.1727
     34 H           4.8840   -0.3552   -0.3208 H       1  UNL1        0.1700
     35 H           3.6633   -1.7029   -3.2650 H       1  UNL1        0.0636
     36 H           4.9315   -3.1789   -4.7706 H       1  UNL1        0.0619
     37 H           6.9948   -4.3039   -3.9923 H       1  UNL1        0.0632
     38 H           6.5592   -2.4272   -0.1498 H       1  UNL1        0.0651
@<TRIPOS>BOND
     1     1     2    2
     2     2     3    1
     3     3     4    1
     4     4     5    1
     5     5     6    1
     6     6     7   am
     7     7     8    2
     8     7     9    1
     9     9    10   ar
    10    10    11   ar
    11    11    12   ar
    12    12    13   ar
    13     9    13   ar
    14     2    14   am
    15    14    15    1
    16    15    16    1
    17    16    17   ar
    18    17    18   ar
    19    18    19   ar
    20    19    20   ar
    21    20    21    1
    22    20    22   ar
    23    16    22   ar
    24     3    23    1
    25     3    24    1
    26     4    25    1
    27     4    26    1
    28     5    27    1
    29     5    28    1
    30     6    29    1
    31    10    30    1
    32    11    31    1
    33    13    32    1
    34    14    33    1
    35    15    34    1
    36    17    35    1
    37    18    36    1
    38    19    37    1
    39    22    38    1
