REMARK  4 active torsions:
REMARK  status: ('A' for Active; 'I' for Inactive)
REMARK    1  A    between atoms: C_5  and  N_6 
REMARK    2  A    between atoms: N_6  and  N_7 
REMARK       I    between atoms: N_7  and  C_8 
REMARK    3  A    between atoms: C_8  and  C_10 
REMARK    4  A    between atoms: C_10  and  N_11 
ROOT
ATOM      1  N   UNL d   1       5.408   1.360   3.926  0.00  0.00    -0.254 N 
ATOM      2  C   UNL d   1       6.228   1.190   5.033  0.00  0.00     0.256 C 
ATOM      3  O   UNL d   1       6.500   0.035   5.355  0.00  0.00    -0.270 OA
ATOM      4  H   UNL d   1       5.202   2.288   3.591  0.00  0.00     0.190 HD
ENDROOT
BRANCH   2   5
ATOM      5  C   UNL d   1       6.688   2.510   5.699  0.00  0.00     0.259 C 
BRANCH   5   6
ATOM      6  N   UNL d   1       7.498   2.352   6.894  0.00  0.00    -0.225 N 
ATOM      7  N   UNL d   1       7.646   1.080   7.365  0.00  0.00    -0.181 NA
ATOM      8  C   UNL d   1       8.376   0.857   8.402  0.00  0.00     0.151 A 
ATOM      9  C   UNL d   1       9.051   1.907   9.130  0.00  0.00    -0.001 A 
ATOM     10  C   UNL d   1       9.915   1.584  10.166  0.00  0.00     0.014 C 
ATOM     11  C   UNL d   1       8.868   3.217   8.704  0.00  0.00     0.045 A 
ATOM     12  C   UNL d   1      10.719   2.593  10.681  0.00  0.00     0.001 C 
ATOM     13  C   UNL d   1      10.475   3.927  10.338  0.00  0.00     0.001 C 
ATOM     14  C   UNL d   1       9.515   4.248   9.377  0.00  0.00     0.018 C 
ATOM     15  C   UNL d   1       8.042   3.475   7.510  0.00  0.00     0.275 A 
ATOM     16  O   UNL d   1       7.888   4.620   7.088  0.00  0.00    -0.266 OA
ENDBRANCH   5   6
ENDBRANCH   2   5
BRANCH   1  17
ATOM     17  N   UNL d   1       5.014   0.150   3.315  0.00  0.00    -0.126 N 
ATOM     18  H   UNL d   1       5.342  -0.703   3.803  0.00  0.00     0.206 HD
BRANCH  17  19
ATOM     19  C   UNL d   1       4.206   0.019   2.225  0.00  0.00     0.738 C 
ATOM     20  N   UNL d   1       3.722   1.326   1.574  0.00  0.00    -0.110 N 
ATOM     21  N   UNL d   1       2.934   1.323   0.532  0.00  0.00    -0.188 NA
ATOM     22  H   UNL d   1       4.026   2.186   2.015  0.00  0.00     0.207 HD
ATOM     23  C   UNL d   1       2.600   0.039  -0.095  0.00  0.00     0.220 C 
ATOM     24  C   UNL d   1       3.045  -1.209   0.655  0.00  0.00     0.286 C 
ATOM     25  C   UNL d   1       3.255   0.038  -1.469  0.00  0.00     0.046 C 
ATOM     26  N   UNL d   1       3.856  -1.131   1.757  0.00  0.00    -0.023 NA
ATOM     27  O   UNL d   1       2.702  -2.309   0.209  0.00  0.00    -0.268 OA
ENDBRANCH  17  19
ENDBRANCH   1  17
TORSDOF 4
