REMARK  5 active torsions:
REMARK  status: ('A' for Active; 'I' for Inactive)
REMARK       I    between atoms: C_2  and  N_3 
REMARK    1  A    between atoms: C_2  and  C_15 
REMARK    2  A    between atoms: N_3  and  C_4 
REMARK    3  A    between atoms: C_4  and  C_5 
REMARK    4  A    between atoms: C_5  and  C_6 
REMARK    5  A    between atoms: N_18  and  C_19 
ROOT
ATOM      1  C   UNL d   1       3.135  -1.164  -0.660  0.00  0.00     0.081 C 
ATOM      2  C   UNL d   1       2.475  -2.251  -1.544  0.00  0.00     0.044 C 
ATOM      3  C   UNL d   1       1.759  -3.470  -0.793  0.00  0.00     0.276 C 
ATOM      4  N   UNL d   1       2.674  -4.199   0.201  0.00  0.00     0.117 N 
ATOM      5  C   UNL d   1       3.001  -3.004   1.100  0.00  0.00     0.276 C 
ATOM      6  C   UNL d   1       3.846  -1.882   0.469  0.00  0.00     0.044 C 
ENDROOT
BRANCH   1   7
ATOM      7  C   UNL d   1       2.271  -0.003  -0.096  0.00  0.00     0.221 C 
ATOM      8  O   UNL d   1       1.062   0.003  -0.099  0.00  0.00    -0.273 OA
ATOM      9  N   UNL d   1       3.027   1.049   0.457  0.00  0.00    -0.360 N 
ATOM     10  H   UNL d   1       4.036   0.979   0.496  0.00  0.00     0.162 HD
BRANCH   9  11
ATOM     11  C   UNL d   1       2.365   2.143   1.145  0.00  0.00     0.127 C 
BRANCH  11  12
ATOM     12  C   UNL d   1       3.310   3.158   1.817  0.00  0.00     0.056 C 
BRANCH  12  13
ATOM     13  C   UNL d   1       2.591   4.262   2.543  0.00  0.00    -0.048 A 
ATOM     14  C   UNL d   1       1.580   4.164   3.418  0.00  0.00    -0.006 A 
ATOM     15  C   UNL d   1       0.847   3.079   3.977  0.00  0.00     0.014 A 
ATOM     16  C   UNL d   1       1.284   5.559   3.815  0.00  0.00     0.038 A 
ATOM     17  C   UNL d   1      -0.143   3.337   4.843  0.00  0.00     0.001 A 
ATOM     18  C   UNL d   1      -0.458   4.693   5.253  0.00  0.00     0.002 A 
ATOM     19  C   UNL d   1       0.196   5.777   4.797  0.00  0.00     0.030 A 
ATOM     20  N   UNL d   1       2.040   6.395   3.237  0.00  0.00    -0.385 N 
ATOM     21  C   UNL d   1       2.986   5.700   2.337  0.00  0.00     0.155 A 
ATOM     22  H   UNL d   1       1.991   7.407   3.390  0.00  0.00     0.160 HD
ENDBRANCH  12  13
ENDBRANCH  11  12
ENDBRANCH   9  11
ENDBRANCH   1   7
BRANCH   4  23
ATOM     23  C   UNL d   1       2.020  -5.440   1.067  0.00  0.00     0.370 C 
ATOM     24  N   UNL d   1       2.048  -7.116   1.090  0.00  0.00    -0.252 NA
ATOM     25  C   UNL d   1       1.496  -7.494   2.432  0.00  0.00     0.046 C 
ATOM     26  H   UNL d   1       2.987  -7.522   1.037  0.00  0.00     0.130 HD
ATOM     27  C   UNL d   1       1.146  -8.700   3.077  0.00  0.00     0.028 C 
ATOM     28  C   UNL d   1       1.360  -6.402   3.268  0.00  0.00     0.117 C 
ATOM     29  C   UNL d   1       0.502  -8.624   4.359  0.00  0.00     0.021 C 
ATOM     30  C   UNL d   1       0.131  -7.383   4.857  0.00  0.00     0.118 C 
ATOM     31  N   UNL d   1       0.619  -6.252   4.367  0.00  0.00    -0.252 NA
ATOM     32  S   UNL d   1       2.441  -5.142   2.828  0.00  0.00    -0.057 SA
ENDBRANCH   4  23
TORSDOF 5
