REMARK  4 active torsions:
REMARK  status: ('A' for Active; 'I' for Inactive)
REMARK    1  A    between atoms: O_2  and  C_3 
REMARK    2  A    between atoms: C_3  and  C_5 
REMARK    3  A    between atoms: C_9  and  N_10 
REMARK       I    between atoms: N_10  and  C_11 
REMARK       I    between atoms: C_11  and  N_13 
REMARK    4  A    between atoms: C_21  and  C_22 
ROOT
ATOM      1  N   UNL d   1       7.194   0.648  -1.806  0.00  0.00    -0.309 N 
ATOM      2  C   UNL d   1       6.522   0.509  -2.998  0.00  0.00     0.323 C 
ATOM      3  O   UNL d   1       5.304   0.431  -3.093  0.00  0.00    -0.247 OA
ATOM      4  N   UNL d   1       7.298   0.496  -4.158  0.00  0.00    -0.319 N 
ATOM      5  C   UNL d   1       8.447  -0.415  -4.208  0.00  0.00     0.135 C 
ATOM      6  C   UNL d   1       9.193  -0.634  -5.538  0.00  0.00     0.079 C 
ATOM      7  C   UNL d   1       8.566   0.060  -6.660  0.00  0.00     0.036 A 
ATOM      8  N   UNL d   1       8.952   0.052  -7.986  0.00  0.00    -0.354 N 
ATOM      9  C   UNL d   1       8.105   0.774  -8.729  0.00  0.00     0.181 A 
ATOM     10  N   UNL d   1       7.172   1.237  -7.893  0.00  0.00    -0.352 N 
ATOM     11  C   UNL d   1       7.434   0.821  -6.591  0.00  0.00     0.061 A 
ATOM     12  C   UNL d   1       6.588   0.957  -5.379  0.00  0.00     0.177 C 
ATOM     13  H   UNL d   1       8.180   0.858  -1.828  0.00  0.00     0.170 HD
ATOM     14  H   UNL d   1       9.764  -0.435  -8.360  0.00  0.00     0.166 HD
ATOM     15  H   UNL d   1       6.363   1.787  -8.184  0.00  0.00     0.166 HD
ENDROOT
BRANCH  12  16
ATOM     16  C   UNL d   1       5.289   0.245  -5.665  0.00  0.00     0.013 A 
ATOM     17  C   UNL d   1       5.237  -1.117  -6.008  0.00  0.00     0.016 A 
ATOM     18  C   UNL d   1       4.017  -1.692  -6.340  0.00  0.00     0.046 A 
ATOM     19  C   UNL d   1       2.846  -0.948  -6.205  0.00  0.00     0.158 A 
ATOM     20  F   UNL d   1       1.675  -1.535  -6.477  0.00  0.00    -0.203 F 
ATOM     21  C   UNL d   1       2.880   0.378  -5.796  0.00  0.00     0.193 A 
ATOM     22  F   UNL d   1       1.754   1.093  -5.691  0.00  0.00    -0.200 F 
ATOM     23  C   UNL d   1       4.099   0.975  -5.544  0.00  0.00     0.166 A 
ATOM     24  F   UNL d   1       4.153   2.259  -5.157  0.00  0.00    -0.202 F 
ENDBRANCH  12  16
BRANCH   1  25
ATOM     25  C   UNL d   1       6.532   0.811  -0.552  0.00  0.00     0.037 A 
ATOM     26  C   UNL d   1       7.276   1.159   0.580  0.00  0.00     0.029 A 
ATOM     27  C   UNL d   1       6.624   1.387   1.803  0.00  0.00     0.003 A 
ATOM     28  C   UNL d   1       5.236   1.233   1.917  0.00  0.00     0.018 A 
ATOM     29  C   UNL d   1       4.484   0.907   0.792  0.00  0.00     0.041 A 
ATOM     30  C   UNL d   1       5.139   0.688  -0.417  0.00  0.00     0.047 A 
BRANCH  29  31
ATOM     31  C   UNL d   1       3.000   0.954   0.820  0.00  0.00     0.293 C 
ATOM     32  O   UNL d   1       2.386   1.808   1.452  0.00  0.00    -0.259 OA
BRANCH  31  33
ATOM     33  O   UNL d   1       2.447  -0.029   0.064  0.00  0.00    -0.323 OA
ATOM     34  C   UNL d   1       1.012  -0.024   0.049  0.00  0.00     0.213 C 
ENDBRANCH  31  33
ENDBRANCH  29  31
ENDBRANCH   1  25
TORSDOF 4
