REMARK  9 active torsions:
REMARK  status: ('A' for Active; 'I' for Inactive)
REMARK    1  A    between atoms: O_2  and  C_3 
REMARK    2  A    between atoms: C_7  and  C_8 
REMARK    3  A    between atoms: N_9  and  N_10 
REMARK       I    between atoms: N_10  and  C_11 
REMARK    4  A    between atoms: C_11  and  C_13 
REMARK    5  A    between atoms: C_15  and  C_16 
REMARK    6  A    between atoms: C_19  and  O_20 
REMARK    7  A    between atoms: O_20  and  C_21 
REMARK    8  A    between atoms: C_21  and  C_22 
REMARK    9  A    between atoms: C_33  and  O_34 
ROOT
ATOM      1  C   UNL d   1      -1.452   7.759  -0.009  0.00  0.00     0.121 A 
ATOM      2  C   UNL d   1      -1.169   8.857  -0.797  0.00  0.00     0.071 A 
ATOM      3  C   UNL d   1      -2.095   9.871  -0.424  0.00  0.00     0.089 A 
ATOM      4  N   UNL d   1      -2.897   9.436   0.557  0.00  0.00    -0.174 NA
ATOM      5  N   UNL d   1      -2.536   8.148   0.739  0.00  0.00    -0.272 N 
ATOM      6  H   UNL d   1      -3.055   7.592   1.414  0.00  0.00     0.189 HD
ENDROOT
BRANCH   1   7
ATOM      7  C   UNL d   1      -0.886   6.431   0.033  0.00  0.00     0.289 C 
ATOM      8  N   UNL d   1       0.507   6.354  -0.061  0.00  0.00    -0.242 N 
ATOM      9  H   UNL d   1       1.070   7.198  -0.065  0.00  0.00     0.192 HD
ATOM     10  O   UNL d   1      -1.606   5.436   0.174  0.00  0.00    -0.264 OA
BRANCH   8  11
ATOM     11  N   UNL d   1       1.115   5.125  -0.039  0.00  0.00    -0.183 NA
ATOM     12  C   UNL d   1       2.412   5.046  -0.063  0.00  0.00     0.153 C 
BRANCH  12  13
ATOM     13  C   UNL d   1       3.084   3.707  -0.062  0.00  0.00     0.019 A 
ATOM     14  C   UNL d   1       4.485   3.634  -0.092  0.00  0.00     0.016 A 
ATOM     15  C   UNL d   1       5.125   2.389  -0.090  0.00  0.00     0.004 A 
ATOM     16  C   UNL d   1       4.371   1.215  -0.069  0.00  0.00     0.040 A 
ATOM     17  C   UNL d   1       2.971   1.266  -0.051  0.00  0.00     0.102 A 
ATOM     18  C   UNL d   1       2.330   2.518  -0.039  0.00  0.00     0.110 A 
BRANCH  17  19
ATOM     19  O   UNL d   1       2.384   0.024  -0.049  0.00  0.00    -0.353 OA
ATOM     20  C   UNL d   1       0.961  -0.015  -0.063  0.00  0.00     0.210 C 
ENDBRANCH  17  19
BRANCH  18  21
ATOM     21  O   UNL d   1       0.960   2.571  -0.000  0.00  0.00    -0.357 OA
ATOM     22  H   UNL d   1       0.658   3.506   0.010  0.00  0.00     0.217 HD
ENDBRANCH  18  21
ENDBRANCH  12  13
ENDBRANCH   8  11
ENDBRANCH   1   7
BRANCH   3  23
ATOM     23  C   UNL d   1      -2.193  11.215  -0.992  0.00  0.00    -0.005 A 
ATOM     24  C   UNL d   1      -2.415  11.385  -2.364  0.00  0.00     0.016 A 
ATOM     25  C   UNL d   1      -2.450  12.666  -2.932  0.00  0.00     0.037 A 
ATOM     26  C   UNL d   1      -2.261  13.794  -2.135  0.00  0.00     0.069 A 
ATOM     27  C   UNL d   1      -2.035  13.628  -0.765  0.00  0.00     0.037 A 
ATOM     28  C   UNL d   1      -2.010  12.348  -0.193  0.00  0.00     0.016 A 
BRANCH  26  29
ATOM     29  O   UNL d   1      -2.273  15.088  -2.576  0.00  0.00    -0.347 OA
BRANCH  29  30
ATOM     30  C   UNL d   1      -2.542  15.298  -3.965  0.00  0.00     0.214 C 
BRANCH  30  31
ATOM     31  C   UNL d   1      -2.555  16.785  -4.208  0.00  0.00    -0.034 A 
ATOM     32  C   UNL d   1      -1.354  17.498  -4.302  0.00  0.00     0.010 A 
ATOM     33  C   UNL d   1      -1.367  18.890  -4.391  0.00  0.00     0.007 A 
ATOM     34  C   UNL d   1      -2.579  19.583  -4.475  0.00  0.00    -0.062 A 
ATOM     35  C   UNL d   1      -2.596  21.064  -4.704  0.00  0.00     0.048 C 
ATOM     36  C   UNL d   1      -3.781  18.871  -4.394  0.00  0.00     0.007 A 
ATOM     37  C   UNL d   1      -3.768  17.483  -4.255  0.00  0.00     0.010 A 
ENDBRANCH  30  31
ENDBRANCH  29  30
ENDBRANCH  26  29
ENDBRANCH   3  23
TORSDOF 9
