@<TRIPOS>MOLECULE
*****
 58 61 0 0 0
SMALL
GASTEIGER

@<TRIPOS>ATOM
      1 C           1.0651   -0.0676    0.0473 C.3     1  UNL1       -0.0307
      2 C           2.5812   -0.1513    0.0368 C.3     1  UNL1        0.0870
      3 O           3.0691   -0.2643    1.3734 O.3     1  UNL1       -0.4886
      4 C           3.3907    0.8707    2.0725 C.ar    1  UNL1        0.1623
      5 C           3.8399    0.6050    3.3740 C.ar    1  UNL1       -0.0163
      6 C           4.2545    1.6420    4.2121 C.ar    1  UNL1       -0.0575
      7 C           4.2359    2.9648    3.7518 C.ar    1  UNL1       -0.0494
      8 C           3.7747    3.2541    2.4592 C.ar    1  UNL1        0.0396
      9 C           3.7598    4.6707    1.9703 C.2     1  UNL1        0.0564
     10 N           3.3631    4.9348    0.7622 N.2     1  UNL1       -0.1873
     11 N           3.3434    6.2288    0.3065 N.am    1  UNL1       -0.2016
     12 C           2.8378    6.4910   -0.9793 C.2     1  UNL1        0.2833
     13 O           2.4136    5.5975   -1.7229 O.2     1  UNL1       -0.2667
     14 C           2.8602    7.9125   -1.3973 C.ar    1  UNL1        0.1490
     15 C           3.9197    8.8455   -1.2304 C.ar    1  UNL1       -0.0041
     16 C           3.5022   10.0271   -1.8112 C.ar    1  UNL1        0.0666
     17 C           4.1879   11.3048   -1.9521 C.ar    1  UNL1        0.0033
     18 C           5.4259   11.3672   -2.6026 C.ar    1  UNL1       -0.0524
     19 C           6.1360   12.5672   -2.6684 C.ar    1  UNL1       -0.0577
     20 C           5.6117   13.7217   -2.0924 C.ar    1  UNL1       -0.0199
     21 C           4.3679   13.6798   -1.4642 C.ar    1  UNL1        0.1216
     22 O           3.7365   14.7434   -0.8879 O.3     1  UNL1       -0.4874
     23 C           4.4055   16.0021   -0.9493 C.3     1  UNL1        0.1146
     24 C           3.6017   17.0523   -0.2232 C.ar    1  UNL1       -0.0104
     25 C           3.8705   18.4079   -0.4562 C.ar    1  UNL1       -0.0554
     26 C           3.2919   19.3859    0.3515 C.ar    1  UNL1       -0.0614
     27 C           2.3779   19.0251    1.3403 C.ar    1  UNL1       -0.0617
     28 C           2.0659   17.6841    1.5472 C.ar    1  UNL1       -0.0614
     29 C           2.6845   16.7022    0.7781 C.ar    1  UNL1       -0.0554
     30 C           3.6634   12.4717   -1.3881 C.ar    1  UNL1       -0.0108
     31 N           2.2523    9.7544   -2.2999 N.ar    1  UNL1       -0.2763
     32 N           1.8427    8.4928   -2.0665 N.ar    1  UNL1       -0.1686
     33 C           3.3298    2.2045    1.6330 C.ar    1  UNL1        0.1673
     34 O           2.8041    2.4857    0.3996 O.3     1  UNL1       -0.5029
     35 H           0.6769    0.0907   -0.9621 H       1  UNL1        0.0262
     36 H           0.7022    0.7374    0.6951 H       1  UNL1        0.0262
     37 H           0.6463   -0.9991    0.4425 H       1  UNL1        0.0262
     38 H           3.0573    0.6407   -0.5433 H       1  UNL1        0.0694
     39 H           2.8852   -1.0578   -0.4959 H       1  UNL1        0.0694
     40 H           3.8619   -0.4231    3.7366 H       1  UNL1        0.0655
     41 H           4.5955    1.4089    5.2198 H       1  UNL1        0.0619
     42 H           4.5765    3.7513    4.4187 H       1  UNL1        0.0625
     43 H           4.0981    5.4545    2.6679 H       1  UNL1        0.0852
     44 H           3.6050    6.9871    0.9251 H       1  UNL1        0.1776
     45 H           4.8821    8.6731   -0.7737 H       1  UNL1        0.0662
     46 H           5.8515   10.4781   -3.0616 H       1  UNL1        0.0624
     47 H           7.1020   12.6040   -3.1656 H       1  UNL1        0.0619
     48 H           6.1981   14.6330   -2.1520 H       1  UNL1        0.0654
     49 H           4.5416   16.3018   -1.9956 H       1  UNL1        0.0748
     50 H           5.3768   15.9375   -0.4407 H       1  UNL1        0.0748
     51 H           4.5501   18.7073   -1.2513 H       1  UNL1        0.0621
     52 H           3.5698   20.4285    0.2235 H       1  UNL1        0.0618
     53 H           1.9098   19.7899    1.9529 H       1  UNL1        0.0618
     54 H           1.3638   17.3961    2.3245 H       1  UNL1        0.0618
     55 H           2.4571   15.6564    0.9748 H       1  UNL1        0.0621
     56 H           2.7147   12.4520   -0.8557 H       1  UNL1        0.0661
     57 H           1.6362   10.3760   -2.8170 H       1  UNL1        0.1889
     58 H           2.9077    3.4400    0.1883 H       1  UNL1        0.2923
@<TRIPOS>BOND
     1     1     2    1
     2     2     3    1
     3     3     4    1
     4     4     5   ar
     5     5     6   ar
     6     6     7   ar
     7     7     8   ar
     8     8     9    1
     9     9    10    2
    10    10    11    1
    11    11    12   am
    12    12    13    2
    13    12    14    1
    14    14    15   ar
    15    15    16   ar
    16    16    17    1
    17    17    18   ar
    18    18    19   ar
    19    19    20   ar
    20    20    21   ar
    21    21    22    1
    22    22    23    1
    23    23    24    1
    24    24    25   ar
    25    25    26   ar
    26    26    27   ar
    27    27    28   ar
    28    28    29   ar
    29    24    29   ar
    30    21    30   ar
    31    17    30   ar
    32    16    31   ar
    33    31    32   ar
    34    14    32   ar
    35     8    33   ar
    36     4    33   ar
    37    33    34    1
    38     1    35    1
    39     1    36    1
    40     1    37    1
    41     2    38    1
    42     2    39    1
    43     5    40    1
    44     6    41    1
    45     7    42    1
    46     9    43    1
    47    11    44    1
    48    15    45    1
    49    18    46    1
    50    19    47    1
    51    20    48    1
    52    23    49    1
    53    23    50    1
    54    25    51    1
    55    26    52    1
    56    27    53    1
    57    28    54    1
    58    29    55    1
    59    30    56    1
    60    31    57    1
    61    34    58    1
