REMARK  5 active torsions:
REMARK  status: ('A' for Active; 'I' for Inactive)
REMARK    1  A    between atoms: C_2  and  N_5 
REMARK       I    between atoms: N_5  and  C_6 
REMARK    2  A    between atoms: C_6  and  C_8 
REMARK    3  A    between atoms: C_12  and  N_13 
REMARK       I    between atoms: N_13  and  C_14 
REMARK    4  A    between atoms: C_14  and  C_16 
REMARK    5  A    between atoms: C_20  and  O_21 
ROOT
ATOM      1  C   UNL d   1       4.960  -1.981  -2.286  0.00  0.00     0.034 A 
ATOM      2  C   UNL d   1       5.990  -2.887  -2.047  0.00  0.00     0.017 A 
ATOM      3  C   UNL d   1       6.496  -3.647  -3.100  0.00  0.00     0.003 A 
ATOM      4  C   UNL d   1       5.942  -3.531  -4.386  0.00  0.00     0.029 A 
ATOM      5  C   UNL d   1       4.922  -2.602  -4.637  0.00  0.00     0.035 A 
ATOM      6  C   UNL d   1       4.443  -1.835  -3.569  0.00  0.00     0.046 A 
ENDROOT
BRANCH   5   7
ATOM      7  N   UNL d   1       4.425  -2.435  -5.959  0.00  0.00    -0.323 N 
ATOM      8  C   UNL d   1       3.499  -1.467  -6.327  0.00  0.00     0.256 C 
ATOM      9  O   UNL d   1       2.968  -0.635  -5.590  0.00  0.00    -0.267 OA
ATOM     10  H   UNL d   1       4.832  -3.015  -6.684  0.00  0.00     0.169 HD
BRANCH   8  11
ATOM     11  C   UNL d   1       3.074  -1.396  -7.734  0.00  0.00     0.035 A 
ATOM     12  C   UNL d   1       2.824  -0.122  -8.272  0.00  0.00     0.017 A 
ATOM     13  C   UNL d   1       2.185   0.006  -9.503  0.00  0.00     0.004 A 
ATOM     14  C   UNL d   1       1.850  -1.137 -10.227  0.00  0.00     0.036 A 
ATOM     15  C   UNL d   1       2.113  -2.396  -9.686  0.00  0.00     0.066 A 
ATOM     16  C   UNL d   1       2.716  -2.540  -8.441  0.00  0.00     0.053 A 
BRANCH  15  17
ATOM     17  O   UNL d   1       1.752  -3.538 -10.338  0.00  0.00    -0.361 OA
ATOM     18  H   UNL d   1       1.282  -3.299 -11.154  0.00  0.00     0.217 HD
ENDBRANCH  15  17
ENDBRANCH   8  11
ENDBRANCH   5   7
BRANCH   1  19
ATOM     19  C   UNL d   1       4.526  -1.077  -1.206  0.00  0.00     0.252 C 
ATOM     20  N   UNL d   1       3.166  -0.878  -1.036  0.00  0.00    -0.349 N 
ATOM     21  H   UNL d   1       2.517  -1.350  -1.657  0.00  0.00     0.163 HD
ATOM     22  O   UNL d   1       5.403  -0.566  -0.511  0.00  0.00    -0.268 OA
BRANCH  20  23
ATOM     23  C   UNL d   1       2.626  -0.047   0.054  0.00  0.00     0.022 C 
ATOM     24  C   UNL d   1       1.085  -0.062   0.034  0.00  0.00     0.037 C 
ATOM     25  C   UNL d   1       3.086   1.411  -0.108  0.00  0.00     0.037 C 
ATOM     26  C   UNL d   1       3.080  -0.600   1.417  0.00  0.00     0.037 C 
ENDBRANCH  20  23
ENDBRANCH   1  19
TORSDOF 5
