@<TRIPOS>MOLECULE
*****
 59 63 0 0 0
SMALL
GASTEIGER

@<TRIPOS>ATOM
      1 O           0.7981   -0.1463   -0.3563 O.2     1  UNL1       -0.2737
      2 C           2.0243   -0.0534   -0.3104 C.2     1  UNL1        0.2348
      3 N           2.6771    1.1934   -0.3397 N.am    1  UNL1       -0.3018
      4 CA          2.0704    2.5889   -0.2897 C.3     1  UNL1        0.0878
      5 C           1.2071    2.8776    1.0387 C.2     1  UNL1        0.0664
      6 O           1.5243    3.8846    1.7408 O.co2   1  UNL1       -0.5475
      7 OXT         0.2697    2.0632    1.2786 O.co2   1  UNL1       -0.5475
      8 C           3.1378    3.7378   -0.4786 C.ar    1  UNL1       -0.0217
      9 C           4.5337    3.5714   -0.4611 C.ar    1  UNL1       -0.0564
     10 C           5.4385    4.6412   -0.4022 C.ar    1  UNL1       -0.0614
     11 C           4.9704    5.9400   -0.4586 C.ar    1  UNL1       -0.0617
     12 C           3.5988    6.1547   -0.5450 C.ar    1  UNL1       -0.0614
     13 C           2.7001    5.0728   -0.5687 C.ar    1  UNL1       -0.0564
     14 C           2.8819   -1.4513   -0.1316 C.3     1  UNL1        0.1103
     15 C           2.3968   -2.8550   -1.2479 C.3     1  UNL1        0.0017
     16 C           0.8128   -3.6779   -1.6713 C.ar    1  UNL1       -0.0201
     17 C           0.3538   -2.7678   -2.6056 C.ar    1  UNL1        0.0060
     18 N          -0.9497   -2.7797   -2.1687 N.ar    1  UNL1       -0.3604
     19 C          -1.4096   -3.9028   -2.7917 C.ar    1  UNL1        0.0467
     20 C          -2.5868   -3.9773   -3.5752 C.ar    1  UNL1       -0.0378
     21 C          -2.8500   -5.0497   -4.3865 C.ar    1  UNL1       -0.0598
     22 C          -1.8657   -6.0230   -4.3965 C.ar    1  UNL1       -0.0611
     23 C          -0.6009   -5.9390   -3.5254 C.ar    1  UNL1       -0.0523
     24 C          -0.2935   -4.7656   -2.5924 C.ar    1  UNL1        0.0029
     25 N           4.5049   -1.2038    0.0100 N.am    1  UNL1       -0.2445
     26 C           5.3878   -2.2478    0.0845 C.2     1  UNL1        0.2521
     27 O           5.0293   -3.4478    0.1868 O.2     1  UNL1       -0.2698
     28 C           6.8429   -1.9571    0.0879 C.ar    1  UNL1        0.0579
     29 C           7.7524   -2.7657   -0.5678 C.ar    1  UNL1       -0.0478
     30 C           9.1162   -2.5222   -0.4166 C.ar    1  UNL1       -0.0609
     31 C           9.5664   -1.4500    0.3616 C.ar    1  UNL1       -0.0600
     32 C           8.6454   -0.6025    0.9802 C.ar    1  UNL1       -0.0400
     33 C           7.2770   -0.8252    0.7771 C.ar    1  UNL1        0.0424
     34 N           6.3316    0.1361    1.0547 N.pl3   1  UNL1       -0.3031
     35 C           5.1269    0.0969    0.2539 C.3     1  UNL1        0.1965
     36 O           5.4620    0.6100   -1.0248 O.3     1  UNL1       -0.3588
     37 H           3.5980    1.2460   -0.7265 H       1  UNL1        0.1497
     38 HA          1.4076    2.6398   -1.1650 H       1  UNL1        0.0610
     39 H           5.0000    2.6107   -0.4705 H       1  UNL1        0.0621
     40 H           6.5004    4.4391   -0.2810 H       1  UNL1        0.0618
     41 H           5.6663    6.7714   -0.4233 H       1  UNL1        0.0618
     42 H           3.2110    7.1683   -0.5347 H       1  UNL1        0.0618
     43 H           1.6323    5.2847   -0.5570 H       1  UNL1        0.0621
     44 H           2.6441   -1.7789    0.8954 H       1  UNL1        0.0601
     45 H           3.1421   -3.6267   -1.1335 H       1  UNL1        0.0337
     46 H           2.5719   -2.2939   -2.1826 H       1  UNL1        0.0337
     47 H           0.6773   -2.9206   -3.6432 H       1  UNL1        0.0810
     48 H          -1.2059   -2.6746   -1.1986 H       1  UNL1        0.1653
     49 H          -3.2135   -3.0930   -3.6324 H       1  UNL1        0.0638
     50 H          -3.7569   -5.0481   -5.0044 H       1  UNL1        0.0618
     51 H          -2.0613   -6.8282   -5.1285 H       1  UNL1        0.0618
     52 H           0.0264   -6.8183   -3.7020 H       1  UNL1        0.0624
     53 H           7.3801   -3.5500   -1.2174 H       1  UNL1        0.0626
     54 H           9.8290   -3.1839   -0.8977 H       1  UNL1        0.0618
     55 H          10.6337   -1.2524    0.4400 H       1  UNL1        0.0618
     56 H           9.0077    0.2567    1.5449 H       1  UNL1        0.0636
     57 H           6.2462    0.4760    2.0085 H       1  UNL1        0.1501
     58 H           4.4745    0.7568    0.8118 H       1  UNL1        0.1036
     59 H           6.4203    0.4682   -1.1308 H       1  UNL1        0.2134
@<TRIPOS>UNITY_ATOM_ATTR
7 1
charge -1
@<TRIPOS>BOND
     1     1     2    2
     2     2     3   am
     3     3     4    1
     4     4     5    1
     5     5     6   ar
     6     5     7   ar
     7     4     8    1
     8     8     9   ar
     9     9    10   ar
    10    10    11   ar
    11    11    12   ar
    12    12    13   ar
    13     8    13   ar
    14     2    14    1
    15    14    15    1
    16    15    16    1
    17    16    17   ar
    18    17    18   ar
    19    18    19   ar
    20    19    20   ar
    21    20    21   ar
    22    21    22   ar
    23    22    23   ar
    24    23    24   ar
    25    16    24   ar
    26    19    24   ar
    27    14    25    1
    28    25    26   am
    29    26    27    2
    30    26    28    1
    31    28    29   ar
    32    29    30   ar
    33    30    31   ar
    34    31    32   ar
    35    32    33   ar
    36    28    33   ar
    37    33    34    1
    38    34    35    1
    39    25    35    1
    40    35    36    1
    41     3    37    1
    42     4    38    1
    43     9    39    1
    44    10    40    1
    45    11    41    1
    46    12    42    1
    47    13    43    1
    48    14    44    1
    49    15    45    1
    50    15    46    1
    51    17    47    1
    52    18    48    1
    53    20    49    1
    54    21    50    1
    55    22    51    1
    56    23    52    1
    57    29    53    1
    58    30    54    1
    59    31    55    1
    60    32    56    1
    61    34    57    1
    62    35    58    1
    63    36    59    1
