REMARK  4 active torsions:
REMARK  status: ('A' for Active; 'I' for Inactive)
REMARK    1  A    between atoms: O_2  and  C_3 
REMARK    2  A    between atoms: C_7  and  C_6 
REMARK    3  A    between atoms: C_18  and  N_19 
REMARK    4  A    between atoms: C_30  and  O_31 
ROOT
ATOM      1  C   UNL d   1       5.435   4.793  -0.122  0.00  0.00     0.100 C 
ATOM      2  C   UNL d   1       4.980   5.340   1.232  0.00  0.00     0.024 C 
ATOM      3  C   UNL d   1       4.842   6.672   1.417  0.00  0.00     0.021 C 
ATOM      4  C   UNL d   1       4.307   7.275   2.701  0.00  0.00     0.058 C 
ATOM      5  C   UNL d   1       3.447   6.295   3.497  0.00  0.00     0.014 C 
ATOM      6  C   UNL d   1       4.202   4.992   3.678  0.00  0.00     0.084 C 
ATOM      7  C   UNL d   1       4.526   4.404   2.314  0.00  0.00     0.158 C 
ATOM      8  O   UNL d   1       4.428   3.198   2.110  0.00  0.00    -0.293 OA
ATOM      9  N   UNL d   1       5.144   7.543   0.375  0.00  0.00    -0.344 N 
ATOM     10  C   UNL d   1       5.345   7.153  -0.941  0.00  0.00     0.134 A 
ATOM     11  N   UNL d   1       5.822   8.004  -1.916  0.00  0.00    -0.174 N 
ATOM     12  C   UNL d   1       6.236   7.566  -3.144  0.00  0.00     0.707 A 
ATOM     13  N   UNL d   1       6.090   6.335  -3.530  0.00  0.00    -0.023 NA
ATOM     14  C   UNL d   1       5.572   5.386  -2.658  0.00  0.00     0.294 A 
ATOM     15  O   UNL d   1       5.540   4.202  -2.938  0.00  0.00    -0.265 OA
ATOM     16  C   UNL d   1       5.249   5.839  -1.247  0.00  0.00     0.070 A 
ATOM     17  H   UNL d   1       5.078   8.536   0.561  0.00  0.00     0.167 HD
ATOM     18  H   UNL d   1       5.949   8.971  -1.674  0.00  0.00     0.186 HD
ENDROOT
BRANCH   1  19
ATOM     19  C   UNL d   1       6.943   4.386  -0.187  0.00  0.00    -0.042 C 
ATOM     20  C   UNL d   1       7.480   3.244   0.382  0.00  0.00     0.011 C 
ATOM     21  C   UNL d   1       8.776   2.835  -0.014  0.00  0.00     0.040 C 
ATOM     22  C   UNL d   1       9.483   3.469  -1.064  0.00  0.00     0.101 C 
ATOM     23  C   UNL d   1       8.918   4.577  -1.650  0.00  0.00     0.099 C 
ATOM     24  C   UNL d   1       7.803   5.106  -1.054  0.00  0.00     0.047 C 
BRANCH  22  25
ATOM     25  O   UNL d   1      10.713   2.955  -1.380  0.00  0.00    -0.353 OA
ATOM     26  C   UNL d   1      11.414   3.656  -2.410  0.00  0.00     0.210 C 
ENDBRANCH  22  25
BRANCH  23  27
ATOM     27  O   UNL d   1       9.380   5.218  -2.769  0.00  0.00    -0.358 OA
ATOM     28  H   UNL d   1       8.638   5.667  -3.224  0.00  0.00     0.217 HD
ENDBRANCH  23  27
ENDBRANCH   1  19
BRANCH  12  29
ATOM     29  N   UNL d   1       6.725   8.529  -4.006  0.00  0.00    -0.216 N 
ATOM     30  C   UNL d   1       6.176   8.598  -5.362  0.00  0.00     0.141 C 
ATOM     31  C   UNL d   1       7.257   8.377  -6.412  0.00  0.00     0.020 C 
ATOM     32  C   UNL d   1       8.413   9.357  -6.236  0.00  0.00     0.003 C 
ATOM     33  C   UNL d   1       8.937   9.313  -4.800  0.00  0.00     0.020 C 
ATOM     34  C   UNL d   1       7.810   9.485  -3.761  0.00  0.00     0.141 C 
ENDBRANCH  12  29
TORSDOF 4
