REMARK  4 active torsions:
REMARK  status: ('A' for Active; 'I' for Inactive)
REMARK       I    between atoms: C_2  and  N_3 
REMARK    1  A    between atoms: C_2  and  C_15 
REMARK    2  A    between atoms: N_3  and  C_4 
REMARK    3  A    between atoms: C_7  and  C_8 
REMARK    4  A    between atoms: C_20  and  O_21 
ROOT
ATOM      1  C   UNL d   1       2.227   1.306  -2.011  0.00  0.00     0.035 A 
ATOM      2  C   UNL d   1       2.679   1.140  -3.325  0.00  0.00     0.030 A 
ATOM      3  C   UNL d   1       2.025   1.794  -4.386  0.00  0.00     0.016 A 
ATOM      4  C   UNL d   1       0.908   2.603  -4.142  0.00  0.00    -0.005 A 
ATOM      5  C   UNL d   1       0.493   2.802  -2.822  0.00  0.00     0.016 A 
ATOM      6  C   UNL d   1       1.142   2.150  -1.769  0.00  0.00     0.030 A 
ENDROOT
BRANCH   1   7
ATOM      7  N   UNL d   1       2.875   0.640  -0.943  0.00  0.00    -0.323 N 
ATOM      8  C   UNL d   1       2.167   0.042   0.102  0.00  0.00     0.259 C 
ATOM      9  O   UNL d   1       0.941   0.060   0.216  0.00  0.00    -0.267 OA
ATOM     10  H   UNL d   1       3.841   0.369  -1.079  0.00  0.00     0.169 HD
BRANCH   8  11
ATOM     11  C   UNL d   1       2.986  -0.723   1.086  0.00  0.00     0.065 A 
ATOM     12  C   UNL d   1       4.183  -0.178   1.573  0.00  0.00     0.020 A 
ATOM     13  C   UNL d   1       5.020  -0.944   2.392  0.00  0.00     0.001 A 
ATOM     14  C   UNL d   1       4.629  -2.220   2.797  0.00  0.00     0.003 A 
ATOM     15  C   UNL d   1       3.408  -2.744   2.374  0.00  0.00     0.037 A 
ATOM     16  C   UNL d   1       2.591  -1.999   1.518  0.00  0.00     0.081 A 
BRANCH  16  17
ATOM     17  O   UNL d   1       1.420  -2.549   1.078  0.00  0.00    -0.360 OA
ATOM     18  H   UNL d   1       1.228  -3.370   1.556  0.00  0.00     0.217 HD
ENDBRANCH  16  17
ENDBRANCH   8  11
ENDBRANCH   1   7
BRANCH   4  19
ATOM     19  C   UNL d   1       0.145   3.196  -5.236  0.00  0.00     0.088 A 
ATOM     20  C   UNL d   1      -0.105   4.574  -5.466  0.00  0.00     0.053 A 
ATOM     21  C   UNL d   1      -0.939   4.620  -6.557  0.00  0.00     0.111 A 
ATOM     22  N   UNL d   1      -1.146   3.323  -6.918  0.00  0.00    -0.289 N 
ATOM     23  N   UNL d   1      -0.477   2.442  -6.157  0.00  0.00    -0.175 NA
ATOM     24  H   UNL d   1      -1.727   2.967  -7.671  0.00  0.00     0.188 HD
ENDBRANCH   4  19
TORSDOF 4
