@<TRIPOS>MOLECULE
*****
 46 48 0 0 0
SMALL
GASTEIGER

@<TRIPOS>ATOM
      1 O           0.9755   -0.0781   -0.0988 O.2     1  UNL1       -0.2702
      2 C           2.2026   -0.0111   -0.0880 C.2     1  UNL1        0.2445
      3 N           2.9310    0.5040   -1.1493 N.am    1  UNL1       -0.3070
      4 C           2.2453    0.9496   -2.3524 C.3     1  UNL1        0.0427
      5 C           3.1936    1.4148   -3.4359 C.ar    1  UNL1        0.0333
      6 C           3.9844    0.5212   -4.1650 C.ar    1  UNL1       -0.0438
      7 C           4.8500    0.9897   -5.1676 C.ar    1  UNL1        0.0267
      8 C           4.9363    2.3588   -5.4381 C.ar    1  UNL1        0.2718
      9 N           5.7102    2.9370   -6.4175 N.pl3   1  UNL1       -0.2780
     10 C           6.8412    3.7921   -6.0368 C.3     1  UNL1        0.0173
     11 C           6.4520    5.2547   -6.2558 C.3     1  UNL1       -0.0371
     12 C           6.4238    5.6949   -7.7198 C.3     1  UNL1       -0.0516
     13 C           5.5783    4.8143   -8.6430 C.3     1  UNL1       -0.0516
     14 C           6.1584    3.4101   -8.8343 C.3     1  UNL1       -0.0371
     15 C           5.6903    2.3915   -7.7813 C.3     1  UNL1        0.0173
     16 N           4.1429    3.1718   -4.7219 N.ar    1  UNL1       -0.1978
     17 C           3.2935    2.7627   -3.7662 C.ar    1  UNL1        0.1757
     18 C           2.9527   -0.5022    1.1011 C.ar    1  UNL1        0.0424
     19 C           3.9928    0.2429    1.6577 C.ar    1  UNL1       -0.0313
     20 C           4.5721   -0.2219    2.8298 C.ar    1  UNL1        0.0314
     21 N           4.1980   -1.3564    3.4524 N.ar    1  UNL1       -0.2276
     22 C           3.1882   -2.0539    2.8949 C.ar    1  UNL1        0.2139
     23 F           2.8029   -3.1789    3.5138 F       1  UNL1       -0.1839
     24 C           2.5378   -1.6757    1.7346 C.ar    1  UNL1        0.0048
     25 H           3.9375    0.4050   -1.1460 H       1  UNL1        0.1493
     26 H           1.5690    1.7655   -2.0632 H       1  UNL1        0.0514
     27 H           1.6055    0.1433   -2.7341 H       1  UNL1        0.0514
     28 H           3.9235   -0.5502   -3.9673 H       1  UNL1        0.0625
     29 H           5.4650    0.2800   -5.7164 H       1  UNL1        0.0698
     30 H           7.7423    3.5462   -6.6155 H       1  UNL1        0.0465
     31 H           7.1134    3.6364   -4.9857 H       1  UNL1        0.0465
     32 H           7.1573    5.8971   -5.7169 H       1  UNL1        0.0280
     33 H           5.4652    5.4490   -5.8246 H       1  UNL1        0.0280
     34 H           7.4493    5.7563   -8.1048 H       1  UNL1        0.0266
     35 H           6.0226    6.7160   -7.7558 H       1  UNL1        0.0266
     36 H           5.5379    5.3073   -9.6222 H       1  UNL1        0.0266
     37 H           4.5465    4.7601   -8.2766 H       1  UNL1        0.0266
     38 H           7.2547    3.4590   -8.8613 H       1  UNL1        0.0280
     39 H           5.8558    3.0368   -9.8205 H       1  UNL1        0.0280
     40 H           6.3085    1.4886   -7.8554 H       1  UNL1        0.0465
     41 H           4.6609    2.1080   -8.0342 H       1  UNL1        0.0465
     42 H           4.1687    4.1526   -4.9794 H       1  UNL1        0.4542
     43 H           2.6979    3.5382   -3.2949 H       1  UNL1        0.1379
     44 H           4.3171    1.1853    1.2357 H       1  UNL1        0.0640
     45 H           5.3677    0.3282    3.3273 H       1  UNL1        0.0831
     46 H           1.7254   -2.2846    1.3557 H       1  UNL1        0.0670
@<TRIPOS>UNITY_ATOM_ATTR
16 1
charge 1
@<TRIPOS>BOND
     1     1     2    2
     2     2     3   am
     3     3     4    1
     4     4     5    1
     5     5     6   ar
     6     6     7   ar
     7     7     8   ar
     8     8     9    1
     9     9    10    1
    10    10    11    1
    11    11    12    1
    12    12    13    1
    13    13    14    1
    14    14    15    1
    15     9    15    1
    16     8    16   ar
    17    16    17   ar
    18     5    17   ar
    19     2    18    1
    20    18    19   ar
    21    19    20   ar
    22    20    21   ar
    23    21    22   ar
    24    22    23    1
    25    22    24   ar
    26    18    24   ar
    27     3    25    1
    28     4    26    1
    29     4    27    1
    30     6    28    1
    31     7    29    1
    32    10    30    1
    33    10    31    1
    34    11    32    1
    35    11    33    1
    36    12    34    1
    37    12    35    1
    38    13    36    1
    39    13    37    1
    40    14    38    1
    41    14    39    1
    42    15    40    1
    43    15    41    1
    44    16    42    1
    45    17    43    1
    46    19    44    1
    47    20    45    1
    48    24    46    1
