REMARK  6 active torsions:
REMARK  status: ('A' for Active; 'I' for Inactive)
REMARK       I    between atoms: N_1  and  C_2 
REMARK       I    between atoms: C_2  and  N_4 
REMARK    1  A    between atoms: N_4  and  C_5 
REMARK    2  A    between atoms: C_8  and  C_9 
REMARK    3  A    between atoms: C_9  and  N_10 
REMARK       I    between atoms: N_10  and  C_11 
REMARK    4  A    between atoms: C_11  and  C_13 
REMARK    5  A    between atoms: C_18  and  S_19 
REMARK    6  A    between atoms: S_19  and  C_20 
ROOT
ATOM      1  C   UNL d   1       8.839   0.263   1.426  0.00  0.00     0.161 C 
ENDROOT
BRANCH   1   2
ATOM      2  C   UNL d   1       7.325   0.217   1.424  0.00  0.00    -0.040 A 
ATOM      3  C   UNL d   1       6.632  -0.621   2.318  0.00  0.00     0.011 A 
ATOM      4  C   UNL d   1       5.229  -0.747   2.253  0.00  0.00     0.030 A 
ATOM      5  C   UNL d   1       4.505  -0.029   1.298  0.00  0.00     0.036 A 
ATOM      6  C   UNL d   1       5.186   0.820   0.436  0.00  0.00     0.030 A 
ATOM      7  C   UNL d   1       6.565   0.956   0.510  0.00  0.00     0.011 A 
BRANCH   5   8
ATOM      8  N   UNL d   1       3.098  -0.102   1.227  0.00  0.00    -0.309 N 
ATOM      9  C   UNL d   1       2.416  -0.059   0.035  0.00  0.00     0.318 C 
ATOM     10  N   UNL d   1       1.068  -0.065   0.161  0.00  0.00    -0.352 N 
ATOM     11  O   UNL d   1       2.901  -0.043  -1.091  0.00  0.00    -0.247 OA
ATOM     12  H   UNL d   1       0.552  -0.051  -0.711  0.00  0.00     0.160 HD
ATOM     13  H   UNL d   1       0.564  -0.030   1.029  0.00  0.00     0.160 HD
ATOM     14  H   UNL d   1       2.592  -0.347   2.062  0.00  0.00     0.170 HD
ENDBRANCH   5   8
ENDBRANCH   1   2
BRANCH   1  15
ATOM     15  N   UNL d   1       9.403   1.160   0.427  0.00  0.00    -0.353 N 
ATOM     16  C   UNL d   1      10.743   1.441   0.371  0.00  0.00     0.254 C 
ATOM     17  O   UNL d   1      11.543   1.171   1.260  0.00  0.00    -0.268 OA
ATOM     18  H   UNL d   1       8.853   1.383  -0.389  0.00  0.00     0.163 HD
BRANCH  16  19
ATOM     19  C   UNL d   1      11.188   2.145  -0.844  0.00  0.00     0.067 A 
ATOM     20  C   UNL d   1      10.621   3.421  -1.021  0.00  0.00     0.021 A 
ATOM     21  C   UNL d   1      10.987   4.209  -2.101  0.00  0.00     0.020 A 
ATOM     22  C   UNL d   1      11.915   3.695  -2.977  0.00  0.00     0.118 A 
ATOM     23  N   UNL d   1      12.475   2.471  -2.833  0.00  0.00    -0.253 NA
ATOM     24  C   UNL d   1      12.127   1.679  -1.768  0.00  0.00     0.113 A 
BRANCH  24  25
ATOM     25  S   UNL d   1      12.995   0.124  -1.880  0.00  0.00    -0.040 SA
BRANCH  25  26
ATOM     26  C   UNL d   1      12.509  -0.819  -0.431  0.00  0.00     0.422 C 
ATOM     27  F   UNL d   1      11.168  -1.028  -0.434  0.00  0.00    -0.202 F 
ATOM     28  F   UNL d   1      13.065  -2.061  -0.472  0.00  0.00    -0.202 F 
ENDBRANCH  25  26
ENDBRANCH  24  25
ENDBRANCH  16  19
ENDBRANCH   1  15
TORSDOF 6
