@<TRIPOS>MOLECULE
*****
 37 38 0 0 0
SMALL
GASTEIGER

@<TRIPOS>ATOM
      1 C           1.0160    1.7137    2.1211 C.3     1  UNL1       -0.0439
      2 C           2.4135    1.1005    2.0667 C.3     1  UNL1        0.0492
      3 N           2.4275   -0.2314    2.6982 N.pl3   1  UNL1       -0.3225
      4 C           1.6543   -1.2825    2.2348 C.ar    1  UNL1        0.1375
      5 N           0.7795   -1.0299    1.2421 N.ar    1  UNL1       -0.2383
      6 C           0.0334   -2.0251    0.7214 C.ar    1  UNL1        0.0419
      7 C           0.1137   -3.3296    1.1527 C.ar    1  UNL1        0.0561
      8 C          -0.6861   -4.4126    0.5411 C.2     1  UNL1        0.2430
      9 N          -1.5389   -4.1182   -0.4860 N.am    1  UNL1       -0.3253
     10 O          -0.5827   -5.5693    0.9482 O.2     1  UNL1       -0.2704
     11 C           0.9990   -3.5993    2.2035 C.ar    1  UNL1       -0.0265
     12 C           1.7631   -2.5684    2.7586 C.ar    1  UNL1        0.0813
     13 CL          2.8686   -2.9128    4.0381 Cl      1  UNL1       -0.0800
     14 C           3.0510    1.1785    0.6304 C.3     1  UNL1        0.0981
     15 O           2.6187    0.1357   -0.2420 O.3     1  UNL1       -0.3853
     16 C           4.5703    1.1745    0.6441 C.ar    1  UNL1       -0.0173
     17 C           5.2766    2.0471    1.4858 C.ar    1  UNL1       -0.0550
     18 C           6.6687    2.0202    1.5306 C.ar    1  UNL1       -0.0474
     19 C           7.3693    1.1439    0.7070 C.ar    1  UNL1        0.0179
     20 BR          9.2552    1.1075    0.7705 Br      1  UNL1       -0.0503
     21 C           6.6933    0.3015   -0.1683 C.ar    1  UNL1       -0.0474
     22 C           5.3019    0.3244   -0.2045 C.ar    1  UNL1       -0.0550
     23 H           0.6409    1.6876    3.1500 H       1  UNL1        0.0248
     24 H           0.2966    1.1927    1.4897 H       1  UNL1        0.0248
     25 H           1.0351    2.7533    1.7843 H       1  UNL1        0.0248
     26 H           3.0028    1.7356    2.7381 H       1  UNL1        0.0524
     27 H           3.2866   -0.4983    3.1706 H       1  UNL1        0.1479
     28 H          -0.6231   -1.6934   -0.0743 H       1  UNL1        0.0838
     29 H          -1.6884   -3.2109   -0.9029 H       1  UNL1        0.1453
     30 H          -2.0670   -4.8879   -0.8799 H       1  UNL1        0.1453
     31 H           1.1016   -4.6114    2.5845 H       1  UNL1        0.0641
     32 H           2.7353    2.1104    0.1456 H       1  UNL1        0.0662
     33 H           2.7114   -0.6768    0.2876 H       1  UNL1        0.2103
     34 H           4.7559    2.7578    2.1234 H       1  UNL1        0.0621
     35 H           7.1906    2.6868    2.2108 H       1  UNL1        0.0629
     36 H           7.2293   -0.3767   -0.8257 H       1  UNL1        0.0629
     37 H           4.7927   -0.3328   -0.9084 H       1  UNL1        0.0621
@<TRIPOS>BOND
     1     3     4    1
     2     4     5   ar
     3     5     6   ar
     4     6     7   ar
     5     7     8    1
     6     8     9   am
     7     8    10    2
     8     7    11   ar
     9    11    12   ar
    10     4    12   ar
    11    12    13    1
    12    14    16    1
    13    16    17   ar
    14    17    18   ar
    15    18    19   ar
    16    19    20    1
    17    19    21   ar
    18    21    22   ar
    19    16    22   ar
    20     2     3    1
    21     2     1    1
    22    14    15    1
    23    14     2    1
    24     1    23    1
    25     1    24    1
    26     1    25    1
    27     2    26    1
    28     3    27    1
    29     6    28    1
    30     9    29    1
    31     9    30    1
    32    11    31    1
    33    14    32    1
    34    15    33    1
    35    17    34    1
    36    18    35    1
    37    21    36    1
    38    22    37    1
