@<TRIPOS>MOLECULE
*****
 49 52 0 0 0
SMALL
GASTEIGER

@<TRIPOS>ATOM
      1 C           1.1234   -0.1254   -0.0333 C.3     1  UNL1        0.0820
      2 O           2.5581   -0.1233   -0.0470 O.3     1  UNL1       -0.4644
      3 C           3.1099   -1.1626   -0.7224 C.2     1  UNL1        0.3390
      4 O           2.4967   -2.0669   -1.2814 O.2     1  UNL1       -0.2450
      5 C           4.5911   -1.1138   -0.6927 C.ar    1  UNL1        0.0607
      6 C           5.3491   -1.5275   -1.7847 C.ar    1  UNL1       -0.0477
      7 C           6.7355   -1.6716   -1.6506 C.ar    1  UNL1       -0.0592
      8 C           7.3770   -1.3434   -0.4421 C.ar    1  UNL1       -0.0404
      9 C           6.6211   -0.8980    0.6529 C.ar    1  UNL1        0.0355
     10 N           7.2491   -0.5927    1.8948 N.am    1  UNL1       -0.2693
     11 C           6.5597   -0.3177    3.0651 C.2     1  UNL1        0.3073
     12 O           5.3411   -0.3109    3.2149 O.2     1  UNL1       -0.2523
     13 N           7.3370   -0.1598    4.2028 N.am    1  UNL1       -0.2701
     14 C           8.5561    0.6451    4.1851 C.3     1  UNL1        0.0247
     15 C           9.3078    0.9216    5.4958 C.3     1  UNL1        0.0290
     16 C           8.6466    0.3492    6.6655 C.ar    1  UNL1        0.1484
     17 N           9.0891    0.3607    7.9734 N.ar    1  UNL1       -0.2470
     18 C           8.2599   -0.3333    8.7589 C.ar    1  UNL1        0.2428
     19 N           7.2845   -0.7906    7.9663 N.ar    1  UNL1       -0.2454
     20 C           7.4858   -0.3677    6.6534 C.ar    1  UNL1        0.1699
     21 C           6.7218   -0.7079    5.4274 C.3     1  UNL1        0.1207
     22 C           6.6900   -2.2119    5.2807 C.ar    1  UNL1        0.0193
     23 C           5.4883   -2.9158    5.3933 C.ar    1  UNL1       -0.0507
     24 C           5.5084   -4.3067    5.3358 C.ar    1  UNL1       -0.0231
     25 C           6.7009   -4.9789    5.0613 C.ar    1  UNL1        0.1613
     26 F           6.6888   -6.3122    4.9591 F       1  UNL1       -0.2024
     27 C           7.8865   -4.2849    4.8889 C.ar    1  UNL1        0.1937
     28 F           9.0387   -4.9253    4.6536 F       1  UNL1       -0.1994
     29 C           7.8798   -2.9104    5.0048 C.ar    1  UNL1        0.1666
     30 F           9.0308   -2.2345    4.8513 F       1  UNL1       -0.2020
     31 C           5.2345   -0.7945    0.4998 C.ar    1  UNL1       -0.0265
     32 H           0.7761    0.7715    0.4900 H       1  UNL1        0.0661
     33 H           0.7421   -1.0008    0.5035 H       1  UNL1        0.0661
     34 H           0.7274   -0.0982   -1.0536 H       1  UNL1        0.0661
     35 H           4.8602   -1.7496   -2.7305 H       1  UNL1        0.0626
     36 H           7.3100   -2.0642   -2.4894 H       1  UNL1        0.0618
     37 H           8.4597   -1.4514   -0.3951 H       1  UNL1        0.0636
     38 H           8.2365   -0.8051    1.9534 H       1  UNL1        0.1564
     39 H           8.2800    1.6000    3.7208 H       1  UNL1        0.0470
     40 H           9.2479    0.1551    3.4944 H       1  UNL1        0.0470
     41 H           9.4025    2.0002    5.6458 H       1  UNL1        0.0365
     42 H          10.3093    0.4885    5.4242 H       1  UNL1        0.0365
     43 H           9.9419    0.8119    8.2986 H       1  UNL1        0.3104
     44 H           8.3660   -0.4999    9.8256 H       1  UNL1        0.1581
     45 H           6.5263   -1.3917    8.2879 H       1  UNL1        0.3105
     46 H           5.7160   -0.2830    5.5504 H       1  UNL1        0.0640
     47 H           4.5401   -2.3879    5.4983 H       1  UNL1        0.0623
     48 H           4.5972   -4.8746    5.4981 H       1  UNL1        0.0647
     49 H           4.5915   -0.4959    1.3132 H       1  UNL1        0.0644
@<TRIPOS>UNITY_ATOM_ATTR
19 1
charge 1
@<TRIPOS>BOND
     1     1     2    1
     2     2     3    1
     3     3     4    2
     4     3     5    1
     5     5     6   ar
     6     6     7   ar
     7     7     8   ar
     8     8     9   ar
     9     9    10    1
    10    10    11   am
    11    11    12    2
    12    11    13   am
    13    13    14    1
    14    14    15    1
    15    15    16    1
    16    16    17   ar
    17    17    18   ar
    18    18    19   ar
    19    19    20   ar
    20    16    20   ar
    21    20    21    1
    22    13    21    1
    23    21    22    1
    24    22    23   ar
    25    23    24   ar
    26    24    25   ar
    27    25    26    1
    28    25    27   ar
    29    27    28    1
    30    27    29   ar
    31    22    29   ar
    32    29    30    1
    33     9    31   ar
    34     5    31   ar
    35     1    32    1
    36     1    33    1
    37     1    34    1
    38     6    35    1
    39     7    36    1
    40     8    37    1
    41    10    38    1
    42    14    39    1
    43    14    40    1
    44    15    41    1
    45    15    42    1
    46    17    43    1
    47    18    44    1
    48    19    45    1
    49    21    46    1
    50    23    47    1
    51    24    48    1
    52    31    49    1
