@<TRIPOS>MOLECULE
*****
 69 72 0 0 0
SMALL
GASTEIGER

@<TRIPOS>ATOM
      1 C           7.8700   10.9541    1.9782 C.3     1  UNL1       -0.0612
      2 C           6.6741   11.8810    2.2370 C.3     1  UNL1       -0.0284
      3 C           5.7195   11.5609    1.1476 C.ar    1  UNL1       -0.0121
      4 C           5.5924   12.2667   -0.0489 C.ar    1  UNL1        0.1020
      5 C           5.9203   13.6700   -0.3938 C.2     1  UNL1        0.3460
      6 O           5.5561   14.2861   -1.3984 O.2     1  UNL1       -0.2444
      7 O           6.7213   14.2198    0.5618 O.3     1  UNL1       -0.4641
      8 C           7.3106   15.5069    0.3234 C.3     1  UNL1        0.0820
      9 S           5.3674   11.0601   -1.2969 S.2     1  UNL1       -0.0617
     10 C           5.0021    9.7809   -0.1579 C.ar    1  UNL1        0.1166
     11 N           4.5053    8.5207   -0.4858 N.ar    1  UNL1       -0.2211
     12 C           3.8856    7.9157    0.5029 C.ar    1  UNL1        0.1564
     13 C           2.6228    6.9974    0.3401 C.3     1  UNL1        0.0278
     14 N           1.7391    7.1466   -0.9568 N.4     1  UNL1        0.2447
     15 C           2.3901    6.4376   -2.1473 C.3     1  UNL1       -0.0013
     16 C           2.9402    5.0710   -1.7265 C.3     1  UNL1        0.1286
     17 O           1.8652    4.3483   -1.1081 O.3     1  UNL1       -0.3831
     18 C           3.6139    4.3556   -2.8810 C.3     1  UNL1        0.1204
     19 O           4.1120    3.1303   -2.3572 O.3     1  UNL1       -0.4892
     20 C           4.9214    2.4242   -3.1969 C.ar    1  UNL1        0.1206
     21 C           4.8427    1.0381   -3.0726 C.ar    1  UNL1       -0.0199
     22 C           5.7278    0.2244   -3.7760 C.ar    1  UNL1       -0.0583
     23 C           6.6426    0.7934   -4.6597 C.ar    1  UNL1       -0.0615
     24 C           6.7068    2.1775   -4.8016 C.ar    1  UNL1       -0.0583
     25 C           5.8557    2.9954   -4.0605 C.ar    1  UNL1       -0.0199
     26 C           1.2129    8.5713   -1.3448 C.3     1  UNL1       -0.0203
     27 C           0.0613    9.0235   -0.4589 C.3     1  UNL1       -0.0096
     28 C          -0.1899   10.5464   -0.6127 C.3     1  UNL1       -0.0480
     29 C           1.0090   11.4054   -0.2550 C.3     1  UNL1       -0.0527
     30 C           2.1295   11.0371   -1.1702 C.3     1  UNL1       -0.0480
     31 C           2.3092    9.5553   -1.1468 C.3     1  UNL1       -0.0096
     32 N           4.1474    8.2097    1.8199 N.ar    1  UNL1       -0.3061
     33 C           4.9635    9.2499    2.1630 C.ar    1  UNL1        0.2602
     34 O           5.5500    9.2470    3.2472 O.2     1  UNL1       -0.2671
     35 C           5.1289   10.2495    1.1234 C.ar    1  UNL1        0.0759
     36 H           8.6561   11.1277    2.7037 H       1  UNL1        0.0233
     37 H           8.2611   11.0985    0.9603 H       1  UNL1        0.0233
     38 H           7.5887    9.8950    2.0251 H       1  UNL1        0.0233
     39 H           7.0238   12.9076    2.2289 H       1  UNL1        0.0311
     40 H           6.2114   11.7175    3.2121 H       1  UNL1        0.0311
     41 H           7.9862   15.7252    1.1606 H       1  UNL1        0.0661
     42 H           6.5474   16.2883    0.2913 H       1  UNL1        0.0661
     43 H           7.9094   15.4940   -0.5917 H       1  UNL1        0.0661
     44 H           1.9076    7.1308    1.1627 H       1  UNL1        0.0897
     45 H           2.9321    5.9629    0.4711 H       1  UNL1        0.0897
     46 H           0.8987    6.5765   -0.7669 H       1  UNL1        0.2042
     47 H           1.5808    6.2897   -2.8742 H       1  UNL1        0.0841
     48 H           3.1585    7.0898   -2.5603 H       1  UNL1        0.0841
     49 H           3.7380    5.1701   -0.9830 H       1  UNL1        0.0681
     50 H           1.3423    3.9003   -1.7996 H       1  UNL1        0.2102
     51 H           4.4182    5.0157   -3.2235 H       1  UNL1        0.0725
     52 H           2.9044    4.1468   -3.6830 H       1  UNL1        0.0725
     53 H           4.0957    0.5887   -2.4230 H       1  UNL1        0.0654
     54 H           5.7171   -0.8512   -3.6220 H       1  UNL1        0.0619
     55 H           7.3130    0.1573   -5.2314 H       1  UNL1        0.0618
     56 H           7.4429    2.6226   -5.4661 H       1  UNL1        0.0619
     57 H           5.9758    4.0675   -4.1588 H       1  UNL1        0.0654
     58 H           0.9384    8.5360   -2.4058 H       1  UNL1        0.0851
     59 H           0.2963    8.8072    0.5903 H       1  UNL1        0.0320
     60 H          -0.8398    8.4691   -0.7267 H       1  UNL1        0.0320
     61 H          -1.0201   10.8535    0.0200 H       1  UNL1        0.0267
     62 H          -0.4288   10.7570   -1.6612 H       1  UNL1        0.0267
     63 H           1.3205   11.2307    0.7879 H       1  UNL1        0.0265
     64 H           0.8455   12.4806   -0.3602 H       1  UNL1        0.0265
     65 H           2.9790   11.5225   -0.6989 H       1  UNL1        0.0267
     66 H           2.0711   11.3897   -2.1983 H       1  UNL1        0.0267
     67 H           2.5139    9.4437   -0.0835 H       1  UNL1        0.0320
     68 H           3.0870    9.2933   -1.8600 H       1  UNL1        0.0320
     69 H           4.1526    7.4517    2.4923 H       1  UNL1        0.1702
@<TRIPOS>UNITY_ATOM_ATTR
14 1
charge 1
@<TRIPOS>BOND
     1     1     2    1
     2     2     3    1
     3     3     4   ar
     4     4     5    1
     5     5     6    2
     6     5     7    1
     7     7     8    1
     8     4     9   ar
     9     9    10   ar
    10    10    11   ar
    11    11    12   ar
    12    12    13    1
    13    15    16    1
    14    16    17    1
    15    16    18    1
    16    18    19    1
    17    19    20    1
    18    20    21   ar
    19    21    22   ar
    20    22    23   ar
    21    23    24   ar
    22    24    25   ar
    23    20    25   ar
    24    14    26    1
    25    26    27    1
    26    27    28    1
    27    28    29    1
    28    29    30    1
    29    30    31    1
    30    26    31    1
    31    12    32   ar
    32    32    33   ar
    33    33    34    2
    34    33    35   ar
    35     3    35   ar
    36    10    35   ar
    37    14    15    1
    38    14    13    1
    39     1    36    1
    40     1    37    1
    41     1    38    1
    42     2    39    1
    43     2    40    1
    44     8    41    1
    45     8    42    1
    46     8    43    1
    47    13    44    1
    48    13    45    1
    49    14    46    1
    50    15    47    1
    51    15    48    1
    52    16    49    1
    53    17    50    1
    54    18    51    1
    55    18    52    1
    56    21    53    1
    57    22    54    1
    58    23    55    1
    59    24    56    1
    60    25    57    1
    61    26    58    1
    62    27    59    1
    63    27    60    1
    64    28    61    1
    65    28    62    1
    66    29    63    1
    67    29    64    1
    68    30    65    1
    69    30    66    1
    70    31    67    1
    71    31    68    1
    72    32    69    1
