@<TRIPOS>MOLECULE
*****
 66 70 0 0 0
SMALL
GASTEIGER

@<TRIPOS>ATOM
      1 C           3.2242    0.0788    1.4168 C.3     1  UNL1       -0.0442
      2 C           2.5753    0.1031    0.0343 C.3     1  UNL1        0.0464
      3 N           2.9515    1.3678   -0.6298 N.3     1  UNL1       -0.2334
      4 N           3.8079    1.2856   -1.7564 N.am    1  UNL1       -0.2465
      5 C           4.2200    0.1319   -2.3804 C.2     1  UNL1        0.2578
      6 O           4.9361    0.1458   -3.3831 O.2     1  UNL1       -0.2691
      7 C           3.7434   -1.1075   -1.7977 C.2     1  UNL1        0.0652
      8 C           2.9926   -1.1093   -0.7027 C.2     1  UNL1       -0.0111
      9 C           2.7096   -2.5066   -0.2989 C.3     1  UNL1        0.0818
     10 C           1.2225   -2.8088   -0.3214 C.3     1  UNL1       -0.0346
     11 O           3.3600   -3.3237   -1.2959 O.3     1  UNL1       -0.3472
     12 C           4.0913   -2.4711   -2.2015 C.3     1  UNL1        0.1565
     13 N           3.6301   -2.7758   -3.5258 N.am    1  UNL1       -0.2855
     14 C           4.3408   -3.6982   -4.2651 C.2     1  UNL1        0.2251
     15 O           5.3329   -4.2545   -3.8005 O.2     1  UNL1       -0.2748
     16 C           3.8570   -3.9184   -5.7045 C.3     1  UNL1        0.0756
     17 S           5.0121   -5.0753   -6.5714 S.3     1  UNL1       -0.0827
     18 C           4.3510   -5.2908   -8.2550 C.3     1  UNL1        0.2380
     19 N           4.8887   -6.5246   -8.8274 N.pl3   1  UNL1       -0.1248
     20 N           6.1072   -6.3383   -9.4207 N.2     1  UNL1        0.0392
     21 C           6.1676   -5.0666   -9.6951 C.2     1  UNL1        0.3188
     22 C           7.2996   -4.3859  -10.4400 C.3     1  UNL1        0.0842
     23 C           8.3949   -5.3729  -10.7529 C.ar    1  UNL1        0.0014
     24 C           8.2978   -6.4887  -11.5630 C.ar    1  UNL1       -0.0510
     25 C           9.4576   -7.3079  -11.5118 C.ar    1  UNL1       -0.0545
     26 C          10.4447   -6.7518  -10.7305 C.ar    1  UNL1       -0.0241
     27 S           9.9568   -5.2511  -10.0575 S.2     1  UNL1       -0.1010
     28 N           4.9928   -4.3751   -9.2057 N.pl3   1  UNL1       -0.1892
     29 C           4.4436   -3.1321   -9.7504 C.3     1  UNL1        0.0938
     30 C           3.0830   -3.3160  -10.4530 C.3     1  UNL1       -0.0137
     31 C           2.4796   -1.9597  -10.8678 C.3     1  UNL1       -0.0494
     32 C           2.3646   -0.9945   -9.6891 C.3     1  UNL1       -0.0528
     33 C           3.7202   -0.8060   -9.0195 C.3     1  UNL1       -0.0494
     34 C           4.2930   -2.1470   -8.6072 C.3     1  UNL1       -0.0137
     35 H           2.9708    0.9769    1.9882 H       1  UNL1        0.0248
     36 H           4.3166    0.0317    1.3229 H       1  UNL1        0.0248
     37 H           2.8993   -0.7885    2.0004 H       1  UNL1        0.0248
     38 H           1.4825    0.1038    0.1301 H       1  UNL1        0.0521
     39 H           3.4273    1.9594    0.0582 H       1  UNL1        0.1449
     40 H           4.1000    2.1516   -2.2032 H       1  UNL1        0.1693
     41 H           3.1420   -2.7508    0.6784 H       1  UNL1        0.0642
     42 H           0.8060   -2.6188   -1.3175 H       1  UNL1        0.0258
     43 H           0.6798   -2.1957    0.4049 H       1  UNL1        0.0258
     44 H           1.0397   -3.8636   -0.0957 H       1  UNL1        0.0258
     45 H           5.1634   -2.6600   -2.0810 H       1  UNL1        0.0863
     46 H           2.8011   -2.3114   -3.8648 H       1  UNL1        0.1515
     47 H           3.8874   -2.9248   -6.1431 H       1  UNL1        0.0473
     48 H           2.8331   -4.3031   -5.7067 H       1  UNL1        0.0473
     49 H           3.2617   -5.2924   -8.3049 H       1  UNL1        0.1142
     50 H           4.8223   -7.3541   -8.2422 H       1  UNL1        0.1998
     51 H           7.6648   -3.5376   -9.8493 H       1  UNL1        0.0442
     52 H           6.9081   -3.9867  -11.3821 H       1  UNL1        0.0442
     53 H           7.3926   -6.7521  -12.0957 H       1  UNL1        0.0626
     54 H           9.5514   -8.2658  -12.0087 H       1  UNL1        0.0623
     55 H          11.4222   -7.1661  -10.5175 H       1  UNL1        0.0693
     56 H           5.1468   -2.7290  -10.4862 H       1  UNL1        0.0763
     57 H           2.3666   -3.8225   -9.7940 H       1  UNL1        0.0304
     58 H           3.1909   -3.9489  -11.3410 H       1  UNL1        0.0304
     59 H           1.4890   -2.1047  -11.3141 H       1  UNL1        0.0267
     60 H           3.1122   -1.5004  -11.6372 H       1  UNL1        0.0267
     61 H           1.6385   -1.3849   -8.9631 H       1  UNL1        0.0265
     62 H           1.9849   -0.0231  -10.0242 H       1  UNL1        0.0265
     63 H           3.6074   -0.1759   -8.1302 H       1  UNL1        0.0267
     64 H           4.4121   -0.3019   -9.7013 H       1  UNL1        0.0267
     65 H           3.5661   -2.5800   -7.9246 H       1  UNL1        0.0304
     66 H           5.2467   -2.0207   -8.0852 H       1  UNL1        0.0304
@<TRIPOS>BOND
     1     2     3    1
     2     3     4    1
     3     4     5   am
     4     5     6    2
     5     5     7    1
     6     7     8    2
     7     2     8    1
     8     8     9    1
     9     9    10    1
    10     9    11    1
    11    11    12    1
    12     7    12    1
    13    13    14   am
    14    14    15    2
    15    14    16    1
    16    16    17    1
    17    17    18    1
    18    18    19    1
    19    19    20    1
    20    20    21    2
    21    21    22    1
    22    22    23    1
    23    23    24   ar
    24    24    25   ar
    25    25    26   ar
    26    26    27   ar
    27    23    27   ar
    28    21    28    1
    29    18    28    1
    30    28    29    1
    31    29    30    1
    32    30    31    1
    33    31    32    1
    34    32    33    1
    35    33    34    1
    36    29    34    1
    37    12    13    1
    38     2     1    1
    39     1    35    1
    40     1    36    1
    41     1    37    1
    42     2    38    1
    43     3    39    1
    44     4    40    1
    45     9    41    1
    46    10    42    1
    47    10    43    1
    48    10    44    1
    49    12    45    1
    50    13    46    1
    51    16    47    1
    52    16    48    1
    53    18    49    1
    54    19    50    1
    55    22    51    1
    56    22    52    1
    57    24    53    1
    58    25    54    1
    59    26    55    1
    60    29    56    1
    61    30    57    1
    62    30    58    1
    63    31    59    1
    64    31    60    1
    65    32    61    1
    66    32    62    1
    67    33    63    1
    68    33    64    1
    69    34    65    1
    70    34    66    1
