REMARK  8 active torsions:
REMARK  status: ('A' for Active; 'I' for Inactive)
REMARK    1  A    between atoms: N_2  and  C_4 
REMARK    2  A    between atoms: C_7  and  N_8 
REMARK       I    between atoms: N_8  and  C_9 
REMARK       I    between atoms: C_9  and  N_11 
REMARK    3  A    between atoms: N_11  and  C_12 
REMARK    4  A    between atoms: C_12  and  C_13 
REMARK    5  A    between atoms: C_17  and  C_18 
REMARK    6  A    between atoms: C_18  and  N_19 
REMARK       I    between atoms: N_19  and  C_20 
REMARK       I    between atoms: C_20  and  N_22 
REMARK    7  A    between atoms: N_22  and  C_23 
REMARK    8  A    between atoms: C_26  and  N_27 
ROOT
ATOM      1  C   UNL d   1       5.896  -4.942  -8.281  0.00  0.00    -0.040 A 
ATOM      2  C   UNL d   1       5.568  -6.296  -8.304  0.00  0.00     0.009 A 
ATOM      3  C   UNL d   1       6.403  -7.204  -8.953  0.00  0.00     0.001 A 
ATOM      4  C   UNL d   1       7.531  -6.753  -9.648  0.00  0.00     0.009 A 
ATOM      5  C   UNL d   1       7.862  -5.386  -9.672  0.00  0.00    -0.040 A 
ATOM      6  C   UNL d   1       7.021  -4.501  -8.985  0.00  0.00     0.017 A 
ENDROOT
BRANCH   1   7
ATOM      7  C   UNL d   1       5.096  -3.955  -7.483  0.00  0.00     0.162 C 
BRANCH   7   8
ATOM      8  N   UNL d   1       5.505  -3.884  -6.084  0.00  0.00    -0.339 N 
ATOM      9  C   UNL d   1       4.799  -3.030  -5.271  0.00  0.00     0.320 C 
ATOM     10  N   UNL d   1       5.197  -2.976  -3.946  0.00  0.00    -0.309 N 
ATOM     11  O   UNL d   1       3.882  -2.382  -5.775  0.00  0.00    -0.247 OA
ATOM     12  H   UNL d   1       5.933  -3.595  -3.637  0.00  0.00     0.170 HD
ATOM     13  H   UNL d   1       6.248  -4.477  -5.748  0.00  0.00     0.164 HD
BRANCH  10  14
ATOM     14  C   UNL d   1       4.542  -2.190  -2.940  0.00  0.00     0.036 A 
ATOM     15  C   UNL d   1       4.932  -2.254  -1.598  0.00  0.00     0.032 A 
ATOM     16  C   UNL d   1       4.196  -1.566  -0.600  0.00  0.00     0.031 A 
ATOM     17  C   UNL d   1       3.091  -0.756  -0.902  0.00  0.00     0.029 A 
ATOM     18  C   UNL d   1       2.747  -0.670  -2.247  0.00  0.00     0.031 A 
ATOM     19  C   UNL d   1       3.463  -1.355  -3.236  0.00  0.00     0.032 A 
BRANCH  17  20
ATOM     20  N   UNL d   1       2.389  -0.068   0.073  0.00  0.00    -0.390 N 
ATOM     21  C   UNL d   1       0.935  -0.002   0.029  0.00  0.00     0.149 C 
ATOM     22  C   UNL d   1       3.111   0.708   1.067  0.00  0.00     0.149 C 
ENDBRANCH  17  20
ENDBRANCH  10  14
ENDBRANCH   7   8
ENDBRANCH   1   7
BRANCH   5  23
ATOM     23  C   UNL d   1       9.119  -4.927 -10.378  0.00  0.00     0.162 C 
BRANCH  23  24
ATOM     24  N   UNL d   1       9.393  -3.498 -10.298  0.00  0.00    -0.339 N 
ATOM     25  C   UNL d   1      10.512  -2.968 -10.868  0.00  0.00     0.320 C 
ATOM     26  O   UNL d   1      11.313  -3.684 -11.474  0.00  0.00    -0.247 OA
ATOM     27  N   UNL d   1      10.644  -1.605 -10.672  0.00  0.00    -0.309 N 
ATOM     28  H   UNL d   1      10.077  -1.138  -9.979  0.00  0.00     0.170 HD
ATOM     29  H   UNL d   1       8.774  -2.872  -9.819  0.00  0.00     0.164 HD
BRANCH  27  30
ATOM     30  C   UNL d   1      11.698  -0.871 -11.255  0.00  0.00     0.036 A 
ATOM     31  C   UNL d   1      12.331   0.170 -10.589  0.00  0.00     0.032 A 
ATOM     32  C   UNL d   1      13.364   0.889 -11.230  0.00  0.00     0.031 A 
ATOM     33  C   UNL d   1      13.832   0.577 -12.522  0.00  0.00     0.029 A 
ATOM     34  C   UNL d   1      13.120  -0.442 -13.169  0.00  0.00     0.031 A 
ATOM     35  C   UNL d   1      12.088  -1.154 -12.554  0.00  0.00     0.032 A 
BRANCH  33  36
ATOM     36  N   UNL d   1      14.901   1.226 -13.126  0.00  0.00    -0.390 N 
ATOM     37  C   UNL d   1      15.726   2.214 -12.431  0.00  0.00     0.149 C 
ATOM     38  C   UNL d   1      15.440   0.813 -14.426  0.00  0.00     0.149 C 
ENDBRANCH  33  36
ENDBRANCH  27  30
ENDBRANCH  23  24
ENDBRANCH   5  23
TORSDOF 8
