REMARK  6 active torsions:
REMARK  status: ('A' for Active; 'I' for Inactive)
REMARK       I    between atoms: C_2  and  N_3 
REMARK    1  A    between atoms: C_2  and  C_11 
REMARK    2  A    between atoms: N_3  and  C_4 
REMARK    3  A    between atoms: C_9  and  O_10 
REMARK    4  A    between atoms: C_16  and  O_17 
REMARK    5  A    between atoms: O_17  and  C_18 
REMARK    6  A    between atoms: C_18  and  C_19 
ROOT
ATOM      1  C   UNL d   1       3.150  -0.984   0.814  0.00  0.00     0.065 A 
ATOM      2  C   UNL d   1       4.289  -0.545   1.502  0.00  0.00     0.020 A 
ATOM      3  C   UNL d   1       5.102  -1.461   2.175  0.00  0.00     0.001 A 
ATOM      4  C   UNL d   1       4.783  -2.816   2.172  0.00  0.00     0.003 A 
ATOM      5  C   UNL d   1       3.638  -3.260   1.516  0.00  0.00     0.038 A 
ATOM      6  C   UNL d   1       2.812  -2.354   0.841  0.00  0.00     0.084 A 
ENDROOT
BRANCH   1   7
ATOM      7  C   UNL d   1       2.306   0.017   0.084  0.00  0.00     0.259 C 
ATOM      8  O   UNL d   1       1.079  -0.099   0.102  0.00  0.00    -0.267 OA
ATOM      9  N   UNL d   1       3.009   0.979  -0.645  0.00  0.00    -0.320 N 
ATOM     10  H   UNL d   1       3.978   0.787  -0.859  0.00  0.00     0.169 HD
BRANCH   9  11
ATOM     11  C   UNL d   1       2.343   1.933  -1.454  0.00  0.00     0.068 A 
ATOM     12  C   UNL d   1       2.770   2.122  -2.775  0.00  0.00     0.032 A 
ATOM     13  C   UNL d   1       2.069   2.989  -3.623  0.00  0.00     0.002 A 
ATOM     14  C   UNL d   1       0.970   3.704  -3.145  0.00  0.00     0.003 A 
ATOM     15  C   UNL d   1       0.576   3.567  -1.814  0.00  0.00     0.039 A 
ATOM     16  C   UNL d   1       1.269   2.695  -0.973  0.00  0.00     0.092 A 
BRANCH  16  17
ATOM     17  O   UNL d   1       0.975   2.667   0.364  0.00  0.00    -0.358 OA
ATOM     18  H   UNL d   1       0.074   2.999   0.496  0.00  0.00     0.217 HD
ENDBRANCH  16  17
ENDBRANCH   9  11
ENDBRANCH   1   7
BRANCH   6  19
ATOM     19  O   UNL d   1       1.695  -2.731   0.158  0.00  0.00    -0.346 OA
BRANCH  19  20
ATOM     20  C   UNL d   1       1.284  -4.092   0.199  0.00  0.00     0.214 C 
BRANCH  20  21
ATOM     21  C   UNL d   1      -0.027  -4.248  -0.532  0.00  0.00    -0.034 A 
ATOM     22  C   UNL d   1      -0.811  -3.137  -0.877  0.00  0.00     0.009 A 
ATOM     23  C   UNL d   1      -2.080  -3.307  -1.424  0.00  0.00     0.001 A 
ATOM     24  C   UNL d   1      -2.548  -4.588  -1.701  0.00  0.00     0.000 A 
ATOM     25  C   UNL d   1      -1.766  -5.701  -1.394  0.00  0.00     0.001 A 
ATOM     26  C   UNL d   1      -0.515  -5.534  -0.801  0.00  0.00     0.009 A 
ENDBRANCH  20  21
ENDBRANCH  19  20
ENDBRANCH   6  19
TORSDOF 6
