REMARK  11 active torsions:
REMARK  status: ('A' for Active; 'I' for Inactive)
REMARK    1  A    between atoms: C_2  and  C_3 
REMARK    2  A    between atoms: C_3  and  C_5 
REMARK    3  A    between atoms: C_10  and  O_11 
REMARK    4  A    between atoms: O_11  and  C_12 
REMARK    5  A    between atoms: C_12  and  C_13 
REMARK       I    between atoms: C_13  and  N_15 
REMARK    6  A    between atoms: N_15  and  N_16 
REMARK    7  A    between atoms: N_16  and  C_17 
REMARK    8  A    between atoms: C_17  and  N_19 
REMARK       I    between atoms: N_19  and  C_20 
REMARK    9  A    between atoms: C_20  and  C_22 
REMARK   10  A    between atoms: C_23  and  C_24 
REMARK   11  A    between atoms: C_27  and  N_28 
ROOT
ATOM      1  N   UNL d   1       0.486  -2.197  -3.671  0.00  0.00    -0.273 N 
ATOM      2  H   UNL d   1       1.077  -2.473  -4.451  0.00  0.00     0.189 HD
ENDROOT
BRANCH   1   3
ATOM      3  N   UNL d   1       1.214  -1.688  -2.585  0.00  0.00    -0.266 N 
ATOM      4  C   UNL d   1       2.606  -1.535  -2.680  0.00  0.00     0.260 C 
ATOM      5  O   UNL d   1       3.248  -1.850  -3.694  0.00  0.00    -0.269 OA
ATOM      6  H   UNL d   1       0.636  -1.493  -1.762  0.00  0.00     0.190 HD
BRANCH   4   7
ATOM      7  C   UNL d   1       3.234  -0.871  -1.455  0.00  0.00     0.280 C 
BRANCH   7   8
ATOM      8  O   UNL d   1       4.558  -0.436  -1.096  0.00  0.00    -0.341 OA
BRANCH   8   9
ATOM      9  C   UNL d   1       5.061   0.224   0.051  0.00  0.00     0.076 A 
ATOM     10  C   UNL d   1       6.470   0.358  -0.030  0.00  0.00     0.037 A 
ATOM     11  C   UNL d   1       7.247   0.952   0.993  0.00  0.00     0.003 A 
ATOM     12  C   UNL d   1       6.656   1.446   2.145  0.00  0.00     0.001 A 
ATOM     13  C   UNL d   1       5.291   1.318   2.290  0.00  0.00     0.010 A 
ATOM     14  C   UNL d   1       4.473   0.784   1.257  0.00  0.00    -0.021 A 
BRANCH  14  15
ATOM     15  C   UNL d   1       2.990   1.010   1.621  0.00  0.00     0.017 C 
ATOM     16  C   UNL d   1       2.504   0.121   2.757  0.00  0.00     0.015 C 
BRANCH  15  17
ATOM     17  C   UNL d   1       2.285   0.566   0.431  0.00  0.00     0.004 C 
ATOM     18  C   UNL d   1       0.822   0.388   0.263  0.00  0.00     0.006 C 
ENDBRANCH  15  17
ENDBRANCH  14  15
ENDBRANCH   8   9
ENDBRANCH   7   8
ENDBRANCH   4   7
ENDBRANCH   1   3
BRANCH   1  19
ATOM     19  C   UNL d   1      -0.906  -2.314  -3.583  0.00  0.00     0.193 C 
ATOM     20  S   UNL d   1      -1.735  -1.754  -2.223  0.00  0.00    -0.039 SA
BRANCH  19  21
ATOM     21  N   UNL d   1      -1.482  -2.936  -4.700  0.00  0.00    -0.299 N 
ATOM     22  C   UNL d   1      -2.843  -3.192  -4.879  0.00  0.00     0.247 C 
ATOM     23  O   UNL d   1      -3.724  -2.926  -4.069  0.00  0.00    -0.268 OA
ATOM     24  H   UNL d   1      -0.841  -3.214  -5.428  0.00  0.00     0.171 HD
BRANCH  22  25
ATOM     25  C   UNL d   1      -3.241  -3.852  -6.158  0.00  0.00     0.075 C 
ATOM     26  C   UNL d   1      -4.553  -4.098  -6.371  0.00  0.00     0.017 C 
BRANCH  26  27
ATOM     27  C   UNL d   1      -5.062  -4.800  -7.559  0.00  0.00    -0.036 A 
ATOM     28  C   UNL d   1      -6.198  -4.365  -8.262  0.00  0.00     0.014 A 
ATOM     29  C   UNL d   1      -6.669  -5.087  -9.373  0.00  0.00     0.037 A 
ATOM     30  C   UNL d   1      -5.955  -6.205  -9.824  0.00  0.00     0.102 A 
ATOM     31  C   UNL d   1      -4.849  -6.669  -9.106  0.00  0.00     0.037 A 
ATOM     32  C   UNL d   1      -4.427  -5.978  -7.970  0.00  0.00     0.014 A 
BRANCH  30  33
ATOM     33  N   UNL d   1      -6.312  -6.852 -11.095  0.00  0.00    -0.116 N 
ATOM     34  O   UNL d   1      -7.276  -6.396 -11.725  0.00  0.00    -0.532 OA
ATOM     35  O   UNL d   1      -5.604  -7.795 -11.478  0.00  0.00    -0.532 OA
ENDBRANCH  30  33
ENDBRANCH  26  27
ENDBRANCH  22  25
ENDBRANCH  19  21
ENDBRANCH   1  19
TORSDOF 11
