@<TRIPOS>MOLECULE
*****
 37 39 0 0 0
SMALL
GASTEIGER

@<TRIPOS>ATOM
      1 O           0.9450    0.0873    0.0150 O.2     1  UNL1       -0.2683
      2 C           2.1631    0.0067    0.0177 C.2     1  UNL1        0.2668
      3 N           2.9035   -0.6560   -0.9963 N.am    1  UNL1       -0.2029
      4 N           2.2056   -1.3283   -1.9808 N.2     1  UNL1       -0.1873
      5 C           2.8413   -1.9777   -2.9099 C.2     1  UNL1        0.0563
      6 C           2.0878   -2.6796   -3.9951 C.ar    1  UNL1        0.0360
      7 C           2.4003   -3.9976   -4.3651 C.ar    1  UNL1       -0.0496
      8 C           1.6162   -4.6632   -5.3229 C.ar    1  UNL1       -0.0609
      9 C           0.5435   -4.0085   -5.9324 C.ar    1  UNL1       -0.0583
     10 C           0.2586   -2.6817   -5.6008 C.ar    1  UNL1       -0.0195
     11 C           1.0353   -2.0226   -4.6432 C.ar    1  UNL1        0.1255
     12 O           0.8213   -0.7000   -4.3758 O.3     1  UNL1       -0.5061
     13 C           2.9563    0.6653    1.1449 C.ar    1  UNL1        0.0803
     14 C           4.0754    1.4187    0.8248 C.ar    1  UNL1       -0.0455
     15 C           4.8167    2.0090    1.8528 C.ar    1  UNL1       -0.0531
     16 C           4.4822    1.9174    3.2197 C.ar    1  UNL1       -0.0144
     17 C           5.3688    2.5117    4.1136 C.ar    1  UNL1       -0.0539
     18 C           5.1651    2.3198    5.5109 C.ar    1  UNL1       -0.0612
     19 C           4.0308    2.0510    6.3058 C.ar    1  UNL1       -0.0611
     20 C           3.1887    1.4213    5.2943 C.ar    1  UNL1       -0.0505
     21 C           3.3286    1.2667    3.6938 C.ar    1  UNL1        0.0243
     22 C           2.5707    0.6080    2.5379 C.ar    1  UNL1        0.1367
     23 O           1.4290   -0.1400    2.7616 O.3     1  UNL1       -0.5054
     24 H           3.9122   -0.6918   -1.0005 H       1  UNL1        0.1776
     25 H           3.9418   -2.0497   -2.9496 H       1  UNL1        0.0852
     26 H           3.2209   -4.5350   -3.8984 H       1  UNL1        0.0625
     27 H           1.8251   -5.6999   -5.5852 H       1  UNL1        0.0618
     28 H          -0.0668   -4.5307   -6.6681 H       1  UNL1        0.0619
     29 H          -0.5639   -2.1769   -6.0990 H       1  UNL1        0.0654
     30 H          -0.0336   -0.4089   -4.7231 H       1  UNL1        0.2922
     31 H           4.3906    1.5807   -0.2045 H       1  UNL1        0.0626
     32 H           5.7062    2.5745    1.5752 H       1  UNL1        0.0624
     33 H           6.2777    3.0119    3.7720 H       1  UNL1        0.0624
     34 H           5.2766    1.1976    5.4689 H       1  UNL1        0.0618
     35 H           4.7348    2.5472    7.0429 H       1  UNL1        0.0618
     36 H           2.3718    0.7761    5.6723 H       1  UNL1        0.0625
     37 H           1.1347   -0.0999    3.6779 H       1  UNL1        0.2922
@<TRIPOS>BOND
     1     1     2    2
     2     2     3   am
     3     3     4    1
     4     4     5    2
     5     5     6    1
     6     6     7   ar
     7     7     8   ar
     8     8     9   ar
     9     9    10   ar
    10    10    11   ar
    11     6    11   ar
    12    11    12    1
    13     2    13    1
    14    13    14   ar
    15    14    15   ar
    16    15    16   ar
    17    16    17   ar
    18    17    18   ar
    19    18    19   ar
    20    19    20   ar
    21    20    21   ar
    22    16    21   ar
    23    21    22   ar
    24    13    22   ar
    25    22    23    1
    26     3    24    1
    27     5    25    1
    28     7    26    1
    29     8    27    1
    30     9    28    1
    31    10    29    1
    32    12    30    1
    33    14    31    1
    34    15    32    1
    35    17    33    1
    36    18    34    1
    37    19    35    1
    38    20    36    1
    39    23    37    1
