@<TRIPOS>MOLECULE
*****
 70 75 0 0 0
SMALL
GASTEIGER

@<TRIPOS>ATOM
      1 C           0.4307    0.1727    0.8362 C.3     1  UNL1       -0.0631
      2 C           2.2089    0.2489   -0.1677 C.3     1  UNL1       -0.0309
      3 C           3.1092    0.6165   -1.6030 C.3     1  UNL1        0.0617
      4 C           2.8876   -0.6971   -2.5499 C.3     1  UNL1       -0.0399
      5 C           2.8920    2.1020   -2.1302 C.3     1  UNL1       -0.0399
      6 N           4.6617    0.5179   -1.3730 N.ar    1  UNL1       -0.2185
      7 N           5.4899    0.4688   -2.4419 N.ar    1  UNL1       -0.0432
      8 N           6.7201    0.4013   -1.9556 N.ar    1  UNL1       -0.0228
      9 N           6.7042    0.3439   -0.5930 N.ar    1  UNL1       -0.1071
     10 C           5.4365    0.3857   -0.2180 C.ar    1  UNL1        0.2048
     11 C           5.0271    0.4383    1.2431 C.3     1  UNL1        0.0727
     12 C           5.5391    1.6791    1.9594 C.ar    1  UNL1        0.0725
     13 C           6.0691    1.6545    3.2037 C.ar    1  UNL1       -0.0383
     14 C           6.2659    2.9154    3.9489 C.ar    1  UNL1        0.0027
     15 C           6.7527    3.0873    5.2718 C.ar    1  UNL1       -0.0070
     16 C           7.0913    4.4062    5.7100 C.ar    1  UNL1        0.1669
     17 C           7.3199    5.3047    4.7133 C.ar    1  UNL1        0.1682
     18 C           6.4758    5.2718    3.6397 C.ar    1  UNL1        0.0078
     19 C           5.9546    4.0784    3.2623 C.ar    1  UNL1        0.0529
     20 N           5.2976    4.0938    2.0603 N.ar    1  UNL1       -0.3216
     21 C           5.3579    3.0129    1.2697 C.ar    1  UNL1        0.2582
     22 O           5.1096    3.1896    0.0850 O.2     1  UNL1       -0.2674
     23 O           7.6417    6.5526    5.1368 O.3     1  UNL1       -0.4525
     24 C           6.5254    6.6447    6.0030 C.3     1  UNL1        0.2332
     25 O           6.3634    5.2957    6.6469 O.3     1  UNL1       -0.4526
     26 N           3.5194    0.2793    1.5720 N.4     1  UNL1        0.2486
     27 C           2.8245    1.9926    0.8122 C.3     1  UNL1       -0.0147
     28 C           1.1653    1.9412   -0.1930 C.3     1  UNL1        0.0525
     29 N           0.6724    0.2755   -1.0854 N.pl3   1  UNL1       -0.3198
     30 C           0.0913    0.3526   -2.3478 C.ar    1  UNL1        0.0302
     31 C           0.7306    0.9210   -3.4593 C.ar    1  UNL1       -0.0372
     32 C           0.2078    1.0727   -4.6941 C.ar    1  UNL1       -0.0184
     33 C          -0.9651    0.4132   -4.8684 C.ar    1  UNL1        0.1170
     34 O          -1.5294    0.4832   -6.0939 O.3     1  UNL1       -0.5068
     35 C          -1.5598   -0.3424   -3.8454 C.ar    1  UNL1       -0.0184
     36 C          -1.0701   -0.3106   -2.5523 C.ar    1  UNL1       -0.0372
     37 C           1.2294   -1.4292   -0.2721 C.3     1  UNL1        0.0525
     38 C           2.8163   -1.4872    0.9139 C.3     1  UNL1       -0.0147
     39 H           0.5177    0.1413    1.9240 H       1  UNL1        0.0231
     40 H          -0.3891   -0.5326    0.4853 H       1  UNL1        0.0231
     41 H          -0.3675    0.9451    0.5912 H       1  UNL1        0.0231
     42 H           3.1464   -0.2551   -0.1522 H       1  UNL1        0.0286
     43 H           2.0825    0.4905    0.8489 H       1  UNL1        0.0286
     44 H           1.8617   -1.0596   -2.6187 H       1  UNL1        0.0253
     45 H           3.3550   -1.6107   -2.1531 H       1  UNL1        0.0253
     46 H           3.2006   -0.5470   -3.5837 H       1  UNL1        0.0253
     47 H           1.8401    2.3523   -2.2182 H       1  UNL1        0.0253
     48 H           3.3222    2.3176   -3.1035 H       1  UNL1        0.0253
     49 H           3.1827    2.9273   -1.4777 H       1  UNL1        0.0253
     50 H           5.4394   -0.4597    1.7159 H       1  UNL1        0.0991
     51 H           6.3142    0.7085    3.6764 H       1  UNL1        0.0631
     52 H           7.3317    2.2156    5.6255 H       1  UNL1        0.0662
     53 H           6.2174    6.2042    3.1606 H       1  UNL1        0.0676
     54 H           5.1353    4.9767    1.5855 H       1  UNL1        0.1689
     55 H           5.6081    6.8887    5.4173 H       1  UNL1        0.1166
     56 H           6.7271    7.5698    6.5627 H       1  UNL1        0.1166
     57 H           3.2347    0.3517    2.5593 H       1  UNL1        0.2046
     58 H           3.5503    2.0625    0.0489 H       1  UNL1        0.0830
     59 H           2.8883    2.7876    1.5465 H       1  UNL1        0.0830
     60 H           0.8490    2.8329   -0.7457 H       1  UNL1        0.0516
     61 H           0.6363    2.1801    0.7609 H       1  UNL1        0.0516
     62 H           1.7812    1.1045   -3.5447 H       1  UNL1        0.0637
     63 H           0.8105    1.5826   -5.4410 H       1  UNL1        0.0655
     64 H          -0.9988    1.1376   -6.5840 H       1  UNL1        0.2921
     65 H          -2.4019   -0.9811   -4.0474 H       1  UNL1        0.0655
     66 H          -1.5362   -0.8234   -1.7170 H       1  UNL1        0.0637
     67 H           0.9023   -2.2984   -0.8588 H       1  UNL1        0.0516
     68 H           0.6649   -1.7396    0.6532 H       1  UNL1        0.0516
     69 H           3.5751   -1.8089    0.1518 H       1  UNL1        0.0830
     70 H           2.9724   -2.2366    1.6886 H       1  UNL1        0.0830
@<TRIPOS>UNITY_ATOM_ATTR
26 1
charge 1
@<TRIPOS>BOND
     1     1     2    1
     2     2     3    1
     3     3     4    1
     4     3     5    1
     5     3     6    1
     6     6     7   ar
     7     7     8   ar
     8     8     9   ar
     9     9    10   ar
    10     6    10   ar
    11    10    11    1
    12    11    12    1
    13    12    13   ar
    14    13    14   ar
    15    14    15   ar
    16    15    16   ar
    17    16    17   ar
    18    17    18   ar
    19    18    19   ar
    20    14    19   ar
    21    19    20   ar
    22    20    21   ar
    23    12    21   ar
    24    21    22    2
    25    17    23    1
    26    23    24    1
    27    24    25    1
    28    16    25    1
    29    11    26    1
    30    26    27    1
    31    27    28    1
    32    28    29    1
    33    29    30    1
    34    30    31   ar
    35    31    32   ar
    36    32    33   ar
    37    33    34    1
    38    33    35   ar
    39    35    36   ar
    40    30    36   ar
    41    29    37    1
    42    37    38    1
    43    26    38    1
    44     1    39    1
    45     1    40    1
    46     1    41    1
    47     2    42    1
    48     2    43    1
    49     4    44    1
    50     4    45    1
    51     4    46    1
    52     5    47    1
    53     5    48    1
    54     5    49    1
    55    11    50    1
    56    13    51    1
    57    15    52    1
    58    18    53    1
    59    20    54    1
    60    24    55    1
    61    24    56    1
    62    26    57    1
    63    27    58    1
    64    27    59    1
    65    28    60    1
    66    28    61    1
    67    31    62    1
    68    32    63    1
    69    34    64    1
    70    35    65    1
    71    36    66    1
    72    37    67    1
    73    37    68    1
    74    38    69    1
    75    38    70    1
