REMARK  4 active torsions:
REMARK  status: ('A' for Active; 'I' for Inactive)
REMARK    1  A    between atoms: C_2  and  C_4 
REMARK    2  A    between atoms: C_4  and  C_5 
REMARK       I    between atoms: C_5  and  N_7 
REMARK    3  A    between atoms: N_7  and  N_8 
REMARK       I    between atoms: N_8  and  C_9 
REMARK    4  A    between atoms: C_9  and  C_11 
ROOT
ATOM      1  N   UNL d   1       6.651   0.104   2.727  0.00  0.00    -0.263 N 
ATOM      2  C   UNL d   1       7.325   0.102   3.943  0.00  0.00     0.277 C 
ATOM      3  O   UNL d   1       6.695   0.079   5.008  0.00  0.00    -0.265 OA
ATOM      4  H   UNL d   1       7.126   0.013   1.830  0.00  0.00     0.190 HD
ENDROOT
BRANCH   1   5
ATOM      5  N   UNL d   1       5.225   0.075   2.682  0.00  0.00    -0.267 N 
ATOM      6  C   UNL d   1       4.622  -0.052   1.443  0.00  0.00     0.236 C 
ATOM      7  O   UNL d   1       5.307  -0.193   0.428  0.00  0.00    -0.272 OA
ATOM      8  H   UNL d   1       4.731   0.115   3.572  0.00  0.00     0.190 HD
BRANCH   6   9
ATOM      9  C   UNL d   1       3.084   0.001   1.424  0.00  0.00     0.108 C 
BRANCH   9  10
ATOM     10  C   UNL d   1       2.493  -0.042  -0.009  0.00  0.00    -0.014 C 
ATOM     11  C   UNL d   1       0.958  -0.079   0.001  0.00  0.00     0.010 C 
ATOM     12  C   UNL d   1       2.934   1.169  -0.838  0.00  0.00     0.010 C 
ENDBRANCH   9  10
ENDBRANCH   6   9
ENDBRANCH   1   5
BRANCH   2  13
ATOM     13  C   UNL d   1       8.785   0.145   3.860  0.00  0.00     0.074 A 
ATOM     14  C   UNL d   1       9.597   0.894   3.024  0.00  0.00     0.025 A 
ATOM     15  C   UNL d   1      10.991   0.696   3.272  0.00  0.00     0.009 A 
ATOM     16  C   UNL d   1      11.211  -0.213   4.282  0.00  0.00     0.050 A 
ATOM     17  S   UNL d   1       9.739  -0.783   4.951  0.00  0.00    -0.097 SA
ENDBRANCH   2  13
TORSDOF 4
