REMARK  5 active torsions:
REMARK  status: ('A' for Active; 'I' for Inactive)
REMARK    1  A    between atoms: O_2  and  C_3 
REMARK    2  A    between atoms: C_3  and  C_5 
REMARK    3  A    between atoms: C_13  and  N_14 
REMARK       I    between atoms: N_14  and  C_15 
REMARK       I    between atoms: C_15  and  N_17 
REMARK    4  A    between atoms: N_17  and  C_18 
REMARK    5  A    between atoms: C_22  and  C_21 
ROOT
ATOM      1  N   UNL d   1       3.325  10.244 -11.370  0.00  0.00    -0.325 N 
ATOM      2  C   UNL d   1       3.190  11.367 -10.566  0.00  0.00     0.321 C 
ATOM      3  O   UNL d   1       2.243  11.534  -9.813  0.00  0.00    -0.247 OA
ATOM      4  N   UNL d   1       4.206  12.327 -10.618  0.00  0.00    -0.309 N 
ATOM      5  H   UNL d   1       4.039  10.209 -12.078  0.00  0.00     0.165 HD
ATOM      6  H   UNL d   1       4.784  12.353 -11.449  0.00  0.00     0.170 HD
ENDROOT
BRANCH   4   7
ATOM      7  C   UNL d   1       4.161  13.480  -9.712  0.00  0.00     0.036 C 
ATOM      8  C   UNL d   1       4.444  14.790 -10.071  0.00  0.00     0.030 C 
ATOM      9  C   UNL d   1       4.351  15.885  -9.087  0.00  0.00     0.011 C 
ATOM     10  C   UNL d   1       3.779  15.797  -7.732  0.00  0.00    -0.036 C 
ATOM     11  C   UNL d   1       3.679  14.439  -7.388  0.00  0.00     0.011 C 
ATOM     12  C   UNL d   1       3.861  13.337  -8.347  0.00  0.00     0.030 C 
BRANCH  10  13
ATOM     13  C   UNL d   1       3.529  17.121  -6.606  0.00  0.00     0.117 C 
ATOM     14  C   UNL d   1       2.298  18.359  -6.216  0.00  0.00     0.011 C 
ATOM     15  C   UNL d   1       1.905  19.105  -7.277  0.00  0.00    -0.015 C 
ATOM     16  C   UNL d   1       1.131  20.137  -7.976  0.00  0.00     0.036 C 
ATOM     17  C   UNL d   1       2.968  18.556  -8.084  0.00  0.00     0.019 C 
ATOM     18  C   UNL d   1       0.781  19.764  -9.241  0.00  0.00     0.035 C 
ATOM     19 CL   UNL d   1      -0.444  20.511 -10.191  0.00  0.00    -0.084 Cl
ATOM     20  C   UNL d   1       1.293  18.533  -9.802  0.00  0.00     0.026 C 
ATOM     21  C   UNL d   1       2.323  17.906  -9.223  0.00  0.00     0.026 C 
ATOM     22  N   UNL d   1       4.049  18.209  -7.449  0.00  0.00    -0.280 NA
ATOM     23  H   UNL d   1       4.415  18.808  -6.690  0.00  0.00     0.128 HD
ENDBRANCH  10  13
ENDBRANCH   4   7
BRANCH   1  24
ATOM     24  C   UNL d   1       2.352   9.121 -11.443  0.00  0.00     0.189 C 
ATOM     25  S   UNL d   1       1.564   8.734  -9.844  0.00  0.00    -0.129 SA
ATOM     26  C   UNL d   1      -0.084   9.289 -10.371  0.00  0.00     0.079 C 
ATOM     27  C   UNL d   1      -0.601  10.569  -9.710  0.00  0.00     0.020 C 
ATOM     28  C   UNL d   1       0.000   9.495 -11.866  0.00  0.00    -0.051 C 
ATOM     29  C   UNL d   1      -1.968  10.908 -10.308  0.00  0.00     0.002 C 
ATOM     30  C   UNL d   1      -1.840  11.153 -11.816  0.00  0.00     0.004 C 
ATOM     31  C   UNL d   1      -1.281   9.920 -12.536  0.00  0.00     0.036 C 
ATOM     32  C   UNL d   1       1.231   9.373 -12.407  0.00  0.00     0.053 C 
BRANCH  32  33
ATOM     33  C   UNL d   1       1.479   9.469 -13.856  0.00  0.00     0.292 C 
ATOM     34  O   UNL d   1       1.012  10.365 -14.573  0.00  0.00    -0.260 OA
BRANCH  33  35
ATOM     35  O   UNL d   1       2.264   8.460 -14.306  0.00  0.00    -0.323 OA
ATOM     36  C   UNL d   1       2.502   8.488 -15.727  0.00  0.00     0.213 C 
ENDBRANCH  33  35
ENDBRANCH  32  33
ENDBRANCH   1  24
TORSDOF 5
