@<TRIPOS>MOLECULE
*****
 53 55 0 0 0
SMALL
GASTEIGER

@<TRIPOS>ATOM
      1 C           2.0595   -0.0616   -0.4784 C.3     1  UNL1       -0.0379
      2 C           0.6686    0.1622   -0.1564 C.ar    1  UNL1       -0.0285
      3 C           0.0061   -1.0600    0.0013 C.ar    1  UNL1       -0.0450
      4 C          -1.3542   -1.0958    0.0448 C.ar    1  UNL1        0.0371
      5 C          -1.9331   -2.4730    0.0502 C.2     1  UNL1        0.2443
      6 O          -1.1769   -3.4391    0.0669 O.2     1  UNL1       -0.2702
      7 N          -3.2975   -2.5737    0.0229 N.am    1  UNL1       -0.3085
      8 C          -4.0611   -3.8085   -0.0160 C.3     1  UNL1        0.0234
      9 C          -4.7982   -3.9604   -1.3411 C.3     1  UNL1       -0.0345
     10 C          -5.2907   -5.4013   -1.3262 C.3     1  UNL1       -0.0513
     11 C          -4.2866   -6.1808   -0.4803 C.3     1  UNL1       -0.0513
     12 C          -3.3284   -5.1461    0.0991 C.3     1  UNL1       -0.0345
     13 C          -2.0054    0.1444    0.0119 C.ar    1  UNL1       -0.0479
     14 C          -1.2895    1.3936   -0.0230 C.ar    1  UNL1       -0.0395
     15 C           0.1002    1.4346   -0.0696 C.ar    1  UNL1        0.0377
     16 N           0.8796    2.6826   -0.1396 N.am    1  UNL1       -0.2692
     17 C           2.1493    2.8340    0.4555 C.2     1  UNL1        0.3041
     18 O           2.5022    2.1937    1.4449 O.2     1  UNL1       -0.2525
     19 N           3.0592    3.6583   -0.2096 N.am    1  UNL1       -0.2950
     20 C           4.5835    3.5947   -0.0088 C.3     1  UNL1        0.0385
     21 C           5.3424    2.2262    0.0212 C.ar    1  UNL1       -0.0239
     22 C           6.7238    2.0645    0.0764 C.ar    1  UNL1       -0.0567
     23 C           7.3030    0.7637    0.0814 C.ar    1  UNL1       -0.0550
     24 C           6.5435   -0.4071    0.1260 C.ar    1  UNL1        0.0156
     25 C           5.1806   -0.3069    0.1402 C.ar    1  UNL1        0.2735
     26 N           4.4601   -1.6237    0.2632 N.pl3   1  UNL1        0.0796
     27 O           4.9326   -2.5794   -0.3750 O.2     1  UNL1        0.0414
     28 O           3.5202   -1.7504    1.0608 O.co2   1  UNL1       -0.5760
     29 C           4.6565    1.0057   -0.0156 C.ar    1  UNL1        0.0203
     30 H           2.2666   -1.0524   -0.8831 H       1  UNL1        0.0278
     31 H           2.5105    0.0601    0.5080 H       1  UNL1        0.0278
     32 H           2.3513    0.6195   -1.2750 H       1  UNL1        0.0278
     33 H           0.5934   -1.9846    0.0137 H       1  UNL1        0.0628
     34 H          -3.8333   -1.7229    0.0103 H       1  UNL1        0.1493
     35 H          -4.7881   -3.7245    0.8014 H       1  UNL1        0.0498
     36 H          -4.1111   -3.8059   -2.1826 H       1  UNL1        0.0283
     37 H          -5.6183   -3.2433   -1.4484 H       1  UNL1        0.0283
     38 H          -5.3696   -5.8062   -2.3397 H       1  UNL1        0.0266
     39 H          -6.2836   -5.4601   -0.8664 H       1  UNL1        0.0266
     40 H          -3.7346   -6.9037   -1.0915 H       1  UNL1        0.0266
     41 H          -4.7930   -6.7409    0.3123 H       1  UNL1        0.0266
     42 H          -2.4295   -5.1804   -0.5231 H       1  UNL1        0.0283
     43 H          -3.0348   -5.3725    1.1291 H       1  UNL1        0.0283
     44 H          -3.0858    0.1775    0.0113 H       1  UNL1        0.0626
     45 H          -1.8668    2.3102   -0.0130 H       1  UNL1        0.0636
     46 H           0.3226    3.5279   -0.1660 H       1  UNL1        0.1564
     47 H           2.7305    4.6208   -0.2171 H       1  UNL1        0.1506
     48 H           4.8186    4.1728    0.8959 H       1  UNL1        0.0512
     49 H           4.9914    4.1712   -0.8551 H       1  UNL1        0.0512
     50 H           7.3953    2.9183    0.0748 H       1  UNL1        0.0621
     51 H           8.3789    0.6358    0.0483 H       1  UNL1        0.0620
     52 H           7.0021   -1.3911    0.1131 H       1  UNL1        0.0685
     53 H           3.6674    1.2273   -0.2905 H       1  UNL1        0.0688
@<TRIPOS>UNITY_ATOM_ATTR
26 1
charge 1
28 1
charge -1
@<TRIPOS>BOND
     1     1     2    1
     2     2     3   ar
     3     3     4   ar
     4     4     5    1
     5     5     6    2
     6     5     7   am
     7     7     8    1
     8     8     9    1
     9     9    10    1
    10    10    11    1
    11    11    12    1
    12     8    12    1
    13     4    13   ar
    14    13    14   ar
    15    14    15   ar
    16     2    15   ar
    17    15    16    1
    18    16    17   am
    19    17    18    2
    20    17    19   am
    21    19    20    1
    22    20    21    1
    23    21    22   ar
    24    22    23   ar
    25    23    24   ar
    26    24    25   ar
    27    25    26    1
    28    26    27    2
    29    26    28    1
    30    25    29   ar
    31    21    29   ar
    32     1    30    1
    33     1    31    1
    34     1    32    1
    35     3    33    1
    36     7    34    1
    37     8    35    1
    38     9    36    1
    39     9    37    1
    40    10    38    1
    41    10    39    1
    42    11    40    1
    43    11    41    1
    44    12    42    1
    45    12    43    1
    46    13    44    1
    47    14    45    1
    48    16    46    1
    49    19    47    1
    50    20    48    1
    51    20    49    1
    52    22    50    1
    53    23    51    1
    54    24    52    1
    55    29    53    1
