@<TRIPOS>MOLECULE
*****
 53 55 0 0 0
SMALL
GASTEIGER

@<TRIPOS>ATOM
      1 C           1.3128    0.0035    0.0645 C.3     1  UNL1       -0.0377
      2 C           2.8332   -0.0776    0.0490 C.ar    1  UNL1       -0.0168
      3 C           3.5931   -1.2842    0.0526 C.ar    1  UNL1        0.0807
      4 C           3.2877   -2.7453    0.0756 C.2     1  UNL1        0.2643
      5 O           2.1541   -3.2236    0.0655 O.2     1  UNL1       -0.2683
      6 N           4.4258   -3.6077    0.1168 N.am    1  UNL1       -0.2491
      7 N           4.3305   -5.0188    0.0171 N.3     1  UNL1       -0.2541
      8 S           5.2668   -0.9389   -0.0001 S.2     1  UNL1       -0.0653
      9 C           5.0506    0.7048   -0.0343 C.ar    1  UNL1        0.0979
     10 C           3.7454    1.1262    0.0174 C.ar    1  UNL1        0.0741
     11 C           3.5444    2.6118    0.0180 C.ar    1  UNL1        0.2651
     12 O           2.4291    3.1236    0.0500 O.2     1  UNL1       -0.2668
     13 N           4.7506    3.3683    0.0340 N.ar    1  UNL1       -0.2601
     14 C           4.7266    4.8661    0.0509 C.3     1  UNL1        0.0333
     15 C           6.1177    5.5965   -0.0335 C.3     1  UNL1       -0.0284
     16 C           6.8884    5.2109   -1.3002 C.3     1  UNL1       -0.0610
     17 C           6.0370    7.1195    0.0320 C.3     1  UNL1       -0.0610
     18 C           5.9236    2.7649    0.4704 C.ar    1  UNL1        0.3332
     19 O           6.7023    3.2952    1.2704 O.2     1  UNL1       -0.2462
     20 N           6.1896    1.4968   -0.0104 N.ar    1  UNL1       -0.2784
     21 C           7.5802    0.9557    0.0806 C.3     1  UNL1        0.1051
     22 C           8.7541    1.9581   -0.0381 C.2     1  UNL1        0.2372
     23 O           8.5913    3.1137   -0.4216 O.2     1  UNL1       -0.2735
     24 N          10.0465    1.4933    0.1935 N.am    1  UNL1       -0.2840
     25 C          11.0868    2.4683    0.1494 C.ar    1  UNL1        0.0335
     26 C          12.1580    2.3397   -0.7344 C.ar    1  UNL1       -0.0394
     27 C          13.1240    3.3560   -0.8077 C.ar    1  UNL1       -0.0460
     28 C          13.0301    4.4820    0.0139 C.ar    1  UNL1        0.0180
     29 BR         14.3673    5.8172   -0.0550 Br      1  UNL1       -0.0503
     30 C          11.9596    4.6251    0.8877 C.ar    1  UNL1       -0.0460
     31 C          10.9899    3.6228    0.9468 C.ar    1  UNL1       -0.0394
     32 H           0.8398   -0.9862    0.0647 H       1  UNL1        0.0278
     33 H           0.9313    0.5330   -0.8178 H       1  UNL1        0.0278
     34 H           0.9380    0.5329    0.9495 H       1  UNL1        0.0278
     35 H           5.3575   -3.1984    0.0409 H       1  UNL1        0.1690
     36 H           3.3349   -5.2655    0.0389 H       1  UNL1        0.1405
     37 H           4.7323   -5.4438    0.8587 H       1  UNL1        0.1405
     38 H           4.2007    5.1851    0.9586 H       1  UNL1        0.0497
     39 H           4.1172    5.2001   -0.7997 H       1  UNL1        0.0497
     40 H           6.7137    5.3611    0.8540 H       1  UNL1        0.0313
     41 H           6.4079    5.6159   -2.1919 H       1  UNL1        0.0233
     42 H           6.9346    4.1341   -1.4591 H       1  UNL1        0.0233
     43 H           7.9196    5.5837   -1.2556 H       1  UNL1        0.0233
     44 H           5.5220    7.5282   -0.8390 H       1  UNL1        0.0233
     45 H           7.0535    7.5397    0.0545 H       1  UNL1        0.0233
     46 H           5.5339    7.4484    0.9452 H       1  UNL1        0.0233
     47 H           7.6937    0.2913   -0.7873 H       1  UNL1        0.0589
     48 H           7.6717    0.3688    1.0001 H       1  UNL1        0.0589
     49 H          10.2647    0.5558   -0.1213 H       1  UNL1        0.1549
     50 H          12.2172    1.5093   -1.4309 H       1  UNL1        0.0636
     51 H          13.9415    3.2718   -1.5191 H       1  UNL1        0.0629
     52 H          11.8568    5.5062    1.5160 H       1  UNL1        0.0629
     53 H          10.1358    3.7633    1.6073 H       1  UNL1        0.0636
@<TRIPOS>BOND
     1     1     2    1
     2     2     3   ar
     3     3     4    1
     4     4     5    2
     5     4     6   am
     6     6     7    1
     7     3     8   ar
     8     8     9   ar
     9     9    10   ar
    10     2    10   ar
    11    10    11   ar
    12    11    12    2
    13    11    13   ar
    14    13    14    1
    15    14    15    1
    16    15    16    1
    17    15    17    1
    18    13    18   ar
    19    18    19    2
    20    18    20   ar
    21     9    20   ar
    22    20    21    1
    23    21    22    1
    24    22    23    2
    25    22    24   am
    26    24    25    1
    27    25    26   ar
    28    26    27   ar
    29    27    28   ar
    30    28    29    1
    31    28    30   ar
    32    30    31   ar
    33    25    31   ar
    34     1    32    1
    35     1    33    1
    36     1    34    1
    37     6    35    1
    38     7    36    1
    39     7    37    1
    40    14    38    1
    41    14    39    1
    42    15    40    1
    43    16    41    1
    44    16    42    1
    45    16    43    1
    46    17    44    1
    47    17    45    1
    48    17    46    1
    49    21    47    1
    50    21    48    1
    51    24    49    1
    52    26    50    1
    53    27    51    1
    54    30    52    1
    55    31    53    1
