REMARK  10 active torsions:
REMARK  status: ('A' for Active; 'I' for Inactive)
REMARK    1  A    between atoms: C_2  and  C_3 
REMARK    2  A    between atoms: C_3  and  C_4 
REMARK    3  A    between atoms: C_4  and  C_5 
REMARK    4  A    between atoms: C_5  and  C_6 
REMARK    5  A    between atoms: C_6  and  C_7 
REMARK    6  A    between atoms: C_11  and  C_12 
REMARK    7  A    between atoms: N_14  and  N_15 
REMARK       I    between atoms: N_15  and  C_16 
REMARK    8  A    between atoms: C_16  and  C_18 
REMARK    9  A    between atoms: C_21  and  N_22 
REMARK   10  A    between atoms: C_32  and  O_33 
ROOT
ATOM      1  C   UNL d   1       6.980   1.763  -3.955  0.00  0.00    -0.024 A 
ATOM      2  C   UNL d   1       7.501   0.930  -4.962  0.00  0.00     0.024 A 
ATOM      3  C   UNL d   1       7.870   1.470  -6.198  0.00  0.00    -0.000 A 
ATOM      4  C   UNL d   1       8.416   0.666  -7.285  0.00  0.00     0.034 A 
ATOM      5  C   UNL d   1       8.752   1.194  -8.481  0.00  0.00     0.066 A 
ATOM      6  C   UNL d   1       8.552   2.666  -8.696  0.00  0.00     0.300 A 
ATOM      7  O   UNL d   1       8.810   3.252  -9.741  0.00  0.00    -0.259 OA
ATOM      8  O   UNL d   1       8.040   3.405  -7.633  0.00  0.00    -0.274 OA
ATOM      9  C   UNL d   1       7.698   2.828  -6.405  0.00  0.00     0.092 A 
ATOM     10  C   UNL d   1       7.184   3.675  -5.430  0.00  0.00     0.075 A 
ATOM     11  C   UNL d   1       6.839   3.135  -4.202  0.00  0.00     0.074 A 
ENDROOT
BRANCH   5  12
ATOM     12  C   UNL d   1       9.317   0.322  -9.603  0.00  0.00     0.067 C 
ATOM     13  C   UNL d   1       9.516  -1.168  -9.367  0.00  0.00     0.073 C 
ATOM     14  N   UNL d   1       9.624   0.851 -10.757  0.00  0.00    -0.176 NA
BRANCH  14  15
ATOM     15  N   UNL d   1      10.130   0.093 -11.789  0.00  0.00    -0.243 N 
ATOM     16  C   UNL d   1      10.502   0.719 -12.976  0.00  0.00     0.271 C 
ATOM     17  O   UNL d   1      10.405   1.921 -13.218  0.00  0.00    -0.266 OA
ATOM     18  H   UNL d   1      10.318  -0.890 -11.649  0.00  0.00     0.192 HD
BRANCH  16  19
ATOM     19  C   UNL d   1      11.101  -0.146 -14.034  0.00  0.00     0.033 A 
ATOM     20  C   UNL d   1      12.222   0.337 -14.732  0.00  0.00     0.019 A 
ATOM     21  C   UNL d   1      12.770  -0.385 -15.800  0.00  0.00     0.037 A 
ATOM     22  C   UNL d   1      12.230  -1.631 -16.137  0.00  0.00     0.102 A 
ATOM     23  C   UNL d   1      11.093  -2.112 -15.467  0.00  0.00     0.037 A 
ATOM     24  C   UNL d   1      10.525  -1.364 -14.421  0.00  0.00     0.019 A 
BRANCH  22  25
ATOM     25  N   UNL d   1      12.901  -2.467 -17.147  0.00  0.00    -0.116 N 
ATOM     26  O   UNL d   1      13.924  -2.017 -17.682  0.00  0.00    -0.532 OA
ATOM     27  O   UNL d   1      12.425  -3.588 -17.374  0.00  0.00    -0.532 OA
ENDBRANCH  22  25
ENDBRANCH  16  19
ENDBRANCH  14  15
ENDBRANCH   5  12
BRANCH   1  28
ATOM     28  C   UNL d   1       6.497   1.173  -2.655  0.00  0.00     0.041 C 
BRANCH  28  29
ATOM     29  C   UNL d   1       4.971   1.149  -2.637  0.00  0.00     0.005 C 
BRANCH  29  30
ATOM     30  C   UNL d   1       4.457   0.596  -1.320  0.00  0.00     0.000 C 
BRANCH  30  31
ATOM     31  C   UNL d   1       2.935   0.599  -1.313  0.00  0.00    -0.000 C 
BRANCH  31  32
ATOM     32  C   UNL d   1       2.408   0.042   0.002  0.00  0.00    -0.005 C 
ATOM     33  C   UNL d   1       0.892   0.041   0.007  0.00  0.00     0.005 C 
ENDBRANCH  31  32
ENDBRANCH  30  31
ENDBRANCH  29  30
ENDBRANCH  28  29
ENDBRANCH   1  28
BRANCH  11  34
ATOM     34  O   UNL d   1       6.337   3.936  -3.216  0.00  0.00    -0.360 OA
ATOM     35  H   UNL d   1       6.267   4.847  -3.546  0.00  0.00     0.217 HD
ENDBRANCH  11  34
TORSDOF 10
