@<TRIPOS>MOLECULE
*****
 46 47 0 0 0
SMALL
GASTEIGER

@<TRIPOS>ATOM
      1 C           6.5435   -0.7187   -1.7523 C.3     1  UNL1        0.0622
      2 O           7.1804    0.3361   -1.0432 O.3     1  UNL1       -0.2819
      3 N           6.9142    0.1764    0.3290 N.am    1  UNL1       -0.1787
      4 C           7.3217    1.1550    1.1710 C.2     1  UNL1        0.3230
      5 O           7.9828    2.1514    0.8627 O.2     1  UNL1       -0.2507
      6 N           6.9716    0.9895    2.4699 N.am    1  UNL1       -0.2912
      7 C           6.3361   -0.1709    3.0923 C.3     1  UNL1        0.0472
      8 C           4.8188   -0.1273    2.8827 C.3     1  UNL1       -0.0424
      9 C           6.5884   -0.2409    4.5759 C.ar    1  UNL1       -0.0238
     10 C           6.6342   -1.4478    5.2850 C.ar    1  UNL1       -0.0531
     11 C           6.6676   -1.4380    6.6846 C.ar    1  UNL1       -0.0160
     12 C           6.7299   -0.2229    7.3817 C.ar    1  UNL1        0.1623
     13 O           6.8898   -0.3612    8.7384 O.3     1  UNL1       -0.4852
     14 C           7.0996    0.7888    9.5581 C.3     1  UNL1        0.1004
     15 C           8.2907    1.6895    9.1863 C.3     1  UNL1       -0.0158
     16 C           7.8982    3.0615    9.7270 C.3     1  UNL1       -0.0496
     17 C           6.3731    3.0702    9.9509 C.3     1  UNL1       -0.0496
     18 C           5.8462    1.6612    9.6975 C.3     1  UNL1       -0.0158
     19 C           6.6472    0.9774    6.6536 C.ar    1  UNL1        0.1618
     20 O           6.5577    2.1743    7.2816 O.3     1  UNL1       -0.4914
     21 C           6.5911    3.4116    6.6001 C.3     1  UNL1        0.0790
     22 C           6.5977    0.9512    5.2833 C.ar    1  UNL1       -0.0114
     23 H           6.8305   -0.6488   -2.8027 H       1  UNL1        0.0547
     24 H           5.4556   -0.6249   -1.6717 H       1  UNL1        0.0547
     25 H           6.8642   -1.6911   -1.3621 H       1  UNL1        0.0547
     26 H           6.1972   -0.4800    0.5930 H       1  UNL1        0.1840
     27 H           7.2659    1.7836    3.0217 H       1  UNL1        0.1509
     28 H           6.7650   -1.0621    2.6253 H       1  UNL1        0.0546
     29 H           4.3669    0.7399    3.3826 H       1  UNL1        0.0251
     30 H           4.3431   -1.0262    3.2899 H       1  UNL1        0.0251
     31 H           4.5574   -0.0539    1.8253 H       1  UNL1        0.0251
     32 H           6.6215   -2.4001    4.7601 H       1  UNL1        0.0622
     33 H           6.6290   -2.3800    7.2314 H       1  UNL1        0.0655
     34 H           7.3197    0.4099   10.5647 H       1  UNL1        0.0733
     35 H           8.5263    1.7409    8.1187 H       1  UNL1        0.0301
     36 H           9.2373    1.3255    9.5981 H       1  UNL1        0.0301
     37 H           8.2109    3.8568    9.0380 H       1  UNL1        0.0266
     38 H           8.4115    3.2451   10.6735 H       1  UNL1        0.0266
     39 H           5.8710    3.7885    9.2918 H       1  UNL1        0.0266
     40 H           6.1371    3.3911   10.9670 H       1  UNL1        0.0266
     41 H           5.1847    1.6242    8.8232 H       1  UNL1        0.0301
     42 H           5.1800    1.3096   10.4890 H       1  UNL1        0.0301
     43 H           6.6198    4.2037    7.3516 H       1  UNL1        0.0660
     44 H           5.6724    3.5437    6.0280 H       1  UNL1        0.0660
     45 H           7.5005    3.5093    6.0040 H       1  UNL1        0.0660
     46 H           6.5109    1.8908    4.7607 H       1  UNL1        0.0659
@<TRIPOS>BOND
     1     1     2    1
     2     2     3    1
     3     3     4   am
     4     4     5    2
     5     4     6   am
     6     7     9    1
     7     9    10   ar
     8    10    11   ar
     9    11    12   ar
    10    12    13    1
    11    13    14    1
    12    14    15    1
    13    15    16    1
    14    16    17    1
    15    17    18    1
    16    14    18    1
    17    12    19   ar
    18    19    20    1
    19    20    21    1
    20    19    22   ar
    21     9    22   ar
    22     7     8    1
    23     7     6    1
    24     1    23    1
    25     1    24    1
    26     1    25    1
    27     3    26    1
    28     6    27    1
    29     7    28    1
    30     8    29    1
    31     8    30    1
    32     8    31    1
    33    10    32    1
    34    11    33    1
    35    14    34    1
    36    15    35    1
    37    15    36    1
    38    16    37    1
    39    16    38    1
    40    17    39    1
    41    17    40    1
    42    18    41    1
    43    18    42    1
    44    21    43    1
    45    21    44    1
    46    21    45    1
    47    22    46    1
