@<TRIPOS>MOLECULE
*****
 56 58 0 0 0
SMALL
GASTEIGER

@<TRIPOS>ATOM
      1 O           1.0239   -0.0501    0.0892 O.2     1  UNL1       -0.2705
      2 C           2.2522   -0.0534   -0.0138 C.2     1  UNL1        0.2667
      3 C           2.9659   -0.1033   -1.3760 C.3     1  UNL1        0.1666
      4 O           2.0328   -0.0959   -2.4617 O.3     1  UNL1       -0.4827
      5 C           2.5657   -0.1678   -3.7212 C.ar    1  UNL1        0.1213
      6 C           3.5907   -1.0403   -4.0884 C.ar    1  UNL1       -0.0185
      7 C           4.0482   -1.0723   -5.4123 C.ar    1  UNL1       -0.0399
      8 C           3.4713   -0.2423   -6.3718 C.ar    1  UNL1        0.0412
      9 CL          4.0582   -0.2683   -7.9893 Cl      1  UNL1       -0.0835
     10 C           2.4206    0.6020   -6.0246 C.ar    1  UNL1       -0.0399
     11 C           1.9628    0.6294   -4.7013 C.ar    1  UNL1       -0.0185
     12 N           3.0260   -0.0236    1.1334 N.am    1  UNL1       -0.2313
     13 N           4.4355   -0.0039    1.1927 N.am    1  UNL1       -0.2303
     14 C           5.0628   -0.0270    2.4366 C.2     1  UNL1        0.2601
     15 O           4.4468   -0.0603    3.5036 O.2     1  UNL1       -0.2687
     16 C           6.5647    0.0110    2.4392 C.ar    1  UNL1        0.0382
     17 C           7.3050   -0.7146    3.3830 C.ar    1  UNL1       -0.0489
     18 C           8.7136   -0.5747    3.4580 C.ar    1  UNL1       -0.0489
     19 C           9.4230    0.2451    2.5550 C.ar    1  UNL1        0.0382
     20 C          10.9461    0.2682    2.5876 C.2     1  UNL1        0.2601
     21 O          11.5546   -0.4113    3.4155 O.2     1  UNL1       -0.2687
     22 N          11.6219    1.0383    1.6408 N.am    1  UNL1       -0.2303
     23 N          13.0561    1.0487    1.5874 N.am    1  UNL1       -0.2313
     24 C          13.6717    1.8452    0.6194 C.2     1  UNL1        0.2667
     25 O          12.9874    2.5003   -0.1719 O.2     1  UNL1       -0.2705
     26 C          15.2281    1.8444    0.5977 C.3     1  UNL1        0.1666
     27 O          15.7268    2.7394   -0.4121 O.3     1  UNL1       -0.4827
     28 C          17.0863    2.8246   -0.5718 C.ar    1  UNL1        0.1213
     29 C          17.9462    1.7263   -0.6005 C.ar    1  UNL1       -0.0185
     30 C          19.3216    1.9086   -0.8156 C.ar    1  UNL1       -0.0399
     31 C          19.8377    3.1879   -1.0152 C.ar    1  UNL1        0.0412
     32 CL         21.5300    3.4048   -1.2453 Cl      1  UNL1       -0.0835
     33 C          18.9847    4.2869   -1.0322 C.ar    1  UNL1       -0.0399
     34 C          17.6104    4.1008   -0.8226 C.ar    1  UNL1       -0.0185
     35 C           8.6651    0.9782    1.6308 C.ar    1  UNL1       -0.0489
     36 C           7.2576    0.8636    1.5731 C.ar    1  UNL1       -0.0489
     37 H           3.5686   -1.0166   -1.3832 H       1  UNL1        0.0795
     38 H           3.6065    0.7825   -1.4540 H       1  UNL1        0.0795
     39 H           4.0247   -1.7339   -3.3772 H       1  UNL1        0.0654
     40 H           4.8454   -1.7565   -5.6916 H       1  UNL1        0.0633
     41 H           1.9524    1.2343   -6.7751 H       1  UNL1        0.0633
     42 H           1.1319    1.2801   -4.4377 H       1  UNL1        0.0654
     43 H           2.5292    0.0073    2.0275 H       1  UNL1        0.1729
     44 H           4.9674   -0.0739    0.3349 H       1  UNL1        0.1731
     45 H           6.7972   -1.3959    4.0673 H       1  UNL1        0.0625
     46 H           9.2496   -1.1112    4.2429 H       1  UNL1        0.0625
     47 H          11.1737    1.6009    0.9224 H       1  UNL1        0.1731
     48 H          13.5412    0.4769    2.2766 H       1  UNL1        0.1729
     49 H          15.5579    0.8182    0.4075 H       1  UNL1        0.0795
     50 H          15.5896    2.1818    1.5761 H       1  UNL1        0.0795
     51 H          17.5722    0.7141   -0.4974 H       1  UNL1        0.0654
     52 H          19.9844    1.0468   -0.8369 H       1  UNL1        0.0633
     53 H          19.3796    5.2847   -1.2102 H       1  UNL1        0.0633
     54 H          16.9496    4.9642   -0.8534 H       1  UNL1        0.0654
     55 H           9.1348    1.6749    0.9452 H       1  UNL1        0.0625
     56 H           6.7143    1.4846    0.8656 H       1  UNL1        0.0625
@<TRIPOS>BOND
     1     1     2    2
     2     2     3    1
     3     3     4    1
     4     4     5    1
     5     5     6   ar
     6     6     7   ar
     7     7     8   ar
     8     8     9    1
     9     8    10   ar
    10    10    11   ar
    11     5    11   ar
    12     2    12   am
    13    12    13    1
    14    13    14   am
    15    14    15    2
    16    14    16    1
    17    16    17   ar
    18    17    18   ar
    19    18    19   ar
    20    19    20    1
    21    20    21    2
    22    20    22   am
    23    22    23    1
    24    23    24   am
    25    24    25    2
    26    24    26    1
    27    26    27    1
    28    27    28    1
    29    28    29   ar
    30    29    30   ar
    31    30    31   ar
    32    31    32    1
    33    31    33   ar
    34    33    34   ar
    35    28    34   ar
    36    19    35   ar
    37    35    36   ar
    38    16    36   ar
    39     3    37    1
    40     3    38    1
    41     6    39    1
    42     7    40    1
    43    10    41    1
    44    11    42    1
    45    12    43    1
    46    13    44    1
    47    17    45    1
    48    18    46    1
    49    22    47    1
    50    23    48    1
    51    26    49    1
    52    26    50    1
    53    29    51    1
    54    30    52    1
    55    33    53    1
    56    34    54    1
    57    35    55    1
    58    36    56    1
