@<TRIPOS>MOLECULE
*****
 59 62 0 0 0
SMALL
GASTEIGER

@<TRIPOS>ATOM
      1 C           1.1105   -0.0198   -0.0589 C.3     1  UNL1        0.0788
      2 O           2.5365    0.0134   -0.0090 O.3     1  UNL1       -0.4951
      3 C           3.1373   -1.2112   -0.1494 C.ar    1  UNL1        0.1208
      4 C           2.7390   -2.1574   -1.0927 C.ar    1  UNL1       -0.0180
      5 C           3.4027   -3.3823   -1.2270 C.ar    1  UNL1       -0.0343
      6 C           4.4928   -3.6234   -0.3915 C.ar    1  UNL1        0.0493
      7 N           5.3233   -4.7261   -0.3050 N.ar    1  UNL1       -0.3487
      8 C           6.2649   -4.5164    0.6625 C.ar    1  UNL1        0.1293
      9 C           7.3178   -5.3768    1.1014 C.ar    1  UNL1        0.2787
     10 O           7.4906   -6.4921    0.6030 O.2     1  UNL1       -0.2653
     11 N           8.1200   -4.8302    2.1439 N.ar    1  UNL1       -0.2869
     12 C           9.1980   -5.7646    2.5641 C.3     1  UNL1        0.0286
     13 C          10.0919   -5.2588    3.6716 C.3     1  UNL1       -0.0344
     14 C          11.1982   -6.1594    4.1522 C.3     1  UNL1       -0.0432
     15 C          11.9535   -5.4490    5.2886 C.3     1  UNL1        0.0242
     16 C          13.1200   -6.3018    5.7552 C.2     1  UNL1        0.2156
     17 O          13.4112   -7.3570    5.1955 O.2     1  UNL1       -0.2756
     18 N          13.9168   -5.7473    6.7396 N.am    1  UNL1       -0.3014
     19 C          15.3529   -6.0007    6.7315 C.3     1  UNL1        0.0154
     20 C          15.7922   -6.8441    7.9218 C.3     1  UNL1       -0.0260
     21 C          15.3097   -6.2181    9.2438 C.3     1  UNL1        0.0382
     22 C          16.1247   -4.9604    9.5718 C.2     1  UNL1        0.2137
     23 N          15.4562   -3.8006    9.8254 N.am    1  UNL1       -0.3291
     24 O          17.3521   -4.9629    9.6098 O.2     1  UNL1       -0.2757
     25 C          13.7918   -5.9916    9.1810 C.3     1  UNL1       -0.0260
     26 C          13.3898   -5.1530    7.9539 C.3     1  UNL1        0.0154
     27 C           7.8784   -3.5359    2.6869 C.ar    1  UNL1        0.1611
     28 S           8.6291   -2.6312    3.8941 S.2     1  UNL1       -0.0128
     29 N           6.8355   -2.8210    2.1712 N.ar    1  UNL1       -0.3329
     30 C           6.0339   -3.2798    1.1821 C.ar    1  UNL1        0.0794
     31 C           4.9294   -2.6847    0.5467 C.ar    1  UNL1        0.0273
     32 C           4.2508   -1.4533    0.6631 C.ar    1  UNL1       -0.0088
     33 H           0.7469    1.0086    0.0290 H       1  UNL1        0.0660
     34 H           0.7132   -0.5950    0.7839 H       1  UNL1        0.0660
     35 H           0.7252   -0.4097   -1.0056 H       1  UNL1        0.0660
     36 H           1.9167   -1.9560   -1.7704 H       1  UNL1        0.0655
     37 H           3.0814   -4.1082   -1.9648 H       1  UNL1        0.0639
     38 H           5.2484   -5.5633   -0.8679 H       1  UNL1        0.1661
     39 H           9.8022   -6.0067    1.6774 H       1  UNL1        0.0493
     40 H           8.7264   -6.7100    2.8705 H       1  UNL1        0.0493
     41 H           9.4588   -5.0659    4.5429 H       1  UNL1        0.0283
     42 H          10.5758   -4.3450    3.3122 H       1  UNL1        0.0283
     43 H          11.8750   -6.3778    3.3195 H       1  UNL1        0.0270
     44 H          10.7788   -7.1028    4.5135 H       1  UNL1        0.0270
     45 H          11.2659   -5.2157    6.1078 H       1  UNL1        0.0358
     46 H          12.3589   -4.4940    4.9206 H       1  UNL1        0.0358
     47 H          15.8396   -5.0188    6.7743 H       1  UNL1        0.0465
     48 H          15.6557   -6.4647    5.7871 H       1  UNL1        0.0465
     49 H          16.8835   -6.9494    7.9091 H       1  UNL1        0.0288
     50 H          15.3720   -7.8533    7.8214 H       1  UNL1        0.0288
     51 H          15.5243   -6.9283   10.0550 H       1  UNL1        0.0395
     52 H          14.4543   -3.6954    9.8530 H       1  UNL1        0.1449
     53 H          16.0043   -2.9649    9.9807 H       1  UNL1        0.1449
     54 H          13.4386   -5.5203   10.1052 H       1  UNL1        0.0288
     55 H          13.2952   -6.9703    9.1296 H       1  UNL1        0.0288
     56 H          13.8025   -4.1428    7.9884 H       1  UNL1        0.0465
     57 H          12.3032   -5.0569    7.9307 H       1  UNL1        0.0465
     58 H           6.6780   -1.9036    2.5691 H       1  UNL1        0.1679
     59 H           4.5765   -0.7035    1.3790 H       1  UNL1        0.0661
@<TRIPOS>BOND
     1     1     2    1
     2     2     3    1
     3     3     4   ar
     4     4     5   ar
     5     5     6   ar
     6     6     7   ar
     7     7     8   ar
     8     8     9   ar
     9     9    10    2
    10     9    11   ar
    11    11    12    1
    12    12    13    1
    13    13    14    1
    14    14    15    1
    15    15    16    1
    16    16    17    2
    17    16    18   am
    18    18    19    1
    19    19    20    1
    20    20    21    1
    21    21    22    1
    22    22    23   am
    23    22    24    2
    24    21    25    1
    25    25    26    1
    26    18    26    1
    27    11    27   ar
    28    27    28    2
    29    27    29   ar
    30    29    30   ar
    31     8    30   ar
    32    30    31   ar
    33     6    31   ar
    34    31    32   ar
    35     3    32   ar
    36     1    33    1
    37     1    34    1
    38     1    35    1
    39     4    36    1
    40     5    37    1
    41     7    38    1
    42    12    39    1
    43    12    40    1
    44    13    41    1
    45    13    42    1
    46    14    43    1
    47    14    44    1
    48    15    45    1
    49    15    46    1
    50    19    47    1
    51    19    48    1
    52    20    49    1
    53    20    50    1
    54    21    51    1
    55    23    52    1
    56    23    53    1
    57    25    54    1
    58    25    55    1
    59    26    56    1
    60    26    57    1
    61    29    58    1
    62    32    59    1
