REMARK  4 active torsions:
REMARK  status: ('A' for Active; 'I' for Inactive)
REMARK    1  A    between atoms: N_1  and  N_2 
REMARK       I    between atoms: N_2  and  C_3 
REMARK    2  A    between atoms: C_3  and  C_5 
REMARK    3  A    between atoms: C_8  and  C_9 
REMARK    4  A    between atoms: C_13  and  C_14 
ROOT
ATOM      1  C   UNL d   1       4.717  -0.250   1.201  0.00  0.00     0.144 A 
ATOM      2  C   UNL d   1       5.511   0.704   0.585  0.00  0.00     0.046 A 
ATOM      3  C   UNL d   1       6.855   0.345   0.820  0.00  0.00     0.041 A 
ATOM      4  C   UNL d   1       6.837  -0.827   1.542  0.00  0.00     0.086 A 
ATOM      5  O   UNL d   1       5.536  -1.194   1.796  0.00  0.00    -0.304 OA
ENDROOT
BRANCH   4   6
ATOM      6  C   UNL d   1       7.922  -1.631   2.098  0.00  0.00    -0.002 A 
ATOM      7  C   UNL d   1       8.087  -2.984   1.782  0.00  0.00     0.014 A 
ATOM      8  C   UNL d   1       9.137  -3.725   2.342  0.00  0.00     0.002 A 
ATOM      9  C   UNL d   1      10.074  -3.107   3.170  0.00  0.00     0.016 A 
ATOM     10  C   UNL d   1       9.952  -1.746   3.474  0.00  0.00     0.048 A 
ATOM     11  C   UNL d   1       8.881  -1.019   2.922  0.00  0.00     0.030 A 
BRANCH  10  12
ATOM     12  C   UNL d   1      10.922  -1.095   4.427  0.00  0.00     0.417 C 
ATOM     13  F   UNL d   1      10.909  -1.685   5.654  0.00  0.00    -0.166 F 
ATOM     14  F   UNL d   1      12.213  -1.158   3.996  0.00  0.00    -0.166 F 
ATOM     15  F   UNL d   1      10.667   0.225   4.645  0.00  0.00    -0.166 F 
ENDBRANCH  10  12
ENDBRANCH   4   6
BRANCH   1  16
ATOM     16  C   UNL d   1       3.265  -0.325   1.309  0.00  0.00     0.289 C 
ATOM     17  N   UNL d   1       2.586   0.025   0.126  0.00  0.00    -0.288 N 
ATOM     18  H   UNL d   1       3.119   0.122  -0.735  0.00  0.00     0.183 HD
ATOM     19  O   UNL d   1       2.668  -0.606   2.353  0.00  0.00    -0.264 OA
BRANCH  17  20
ATOM     20  N   UNL d   1       1.170  -0.037   0.054  0.00  0.00    -0.247 NA
ATOM     21  H   UNL d   1       0.839   0.236  -0.872  0.00  0.00     0.143 HD
ATOM     22  H   UNL d   1       0.786   0.647   0.715  0.00  0.00     0.143 HD
ENDBRANCH  17  20
ENDBRANCH   1  16
TORSDOF 4
