@<TRIPOS>MOLECULE
*****
 55 57 0 0 0
SMALL
GASTEIGER

@<TRIPOS>ATOM
      1 C           0.9550    0.0059    0.1154 C.3     1  UNL1       -0.0307
      2 C           2.4850    0.0397    0.2122 C.3     1  UNL1        0.0868
      3 O           2.8862    0.9345    1.2820 O.3     1  UNL1       -0.4922
      4 C           4.1948    1.3611    1.3712 C.ar    1  UNL1        0.1212
      5 C           4.8047    1.4568    2.6083 C.ar    1  UNL1       -0.0199
      6 C           6.1587    1.8562    2.6850 C.ar    1  UNL1       -0.0576
      7 C           6.9362    2.1608    1.5311 C.ar    1  UNL1       -0.0494
      8 C           6.3132    2.3287    0.2784 C.ar    1  UNL1        0.0405
      9 C           7.3074    2.8017   -1.0406 C.2     1  UNL1        0.2496
     10 O           8.4705    3.0905   -0.7355 O.2     1  UNL1       -0.2698
     11 N           6.9315    2.7077   -2.5407 N.am    1  UNL1       -0.2636
     12 C           7.7535    2.5842   -3.7351 C.2     1  UNL1        0.1411
     13 S           9.2652    3.2840   -3.8859 S.2     1  UNL1       -0.0182
     14 N           7.1363    1.7240   -4.7570 N.am    1  UNL1       -0.2960
     15 C           7.8062    1.4117   -6.0065 C.ar    1  UNL1        0.0448
     16 C           7.2563    1.9371   -7.2034 C.ar    1  UNL1       -0.0398
     17 C           7.9697    1.8802   -8.4120 C.ar    1  UNL1       -0.0600
     18 C           9.2435    1.3229   -8.4305 C.ar    1  UNL1       -0.0609
     19 C           9.7590    0.7268   -7.2717 C.ar    1  UNL1       -0.0478
     20 C           9.0354    0.7177   -6.0590 C.ar    1  UNL1        0.0578
     21 C           9.6806   -0.0275   -4.8957 C.2     1  UNL1        0.2459
     22 O          10.8349   -0.3564   -4.9374 O.2     1  UNL1       -0.2701
     23 N           8.8585   -0.3188   -3.8078 N.am    1  UNL1       -0.3088
     24 C           9.3917   -0.6382   -2.4708 C.3     1  UNL1        0.0382
     25 C           8.2580   -0.5944   -1.4248 C.3     1  UNL1        0.0742
     26 C           7.1596   -1.6462   -1.4393 C.3     1  UNL1       -0.0231
     27 C           5.9418   -0.9353   -0.8811 C.3     1  UNL1       -0.0271
     28 C           6.1036    0.2498   -1.7206 C.3     1  UNL1        0.0482
     29 O           7.4774    0.5009   -1.8697 O.3     1  UNL1       -0.3750
     30 C           4.9076    1.9055    0.2845 C.ar    1  UNL1       -0.0078
     31 H           0.6042   -0.7609   -0.5887 H       1  UNL1        0.0262
     32 H           0.5668    0.9710   -0.2292 H       1  UNL1        0.0262
     33 H           0.5062   -0.1924    1.0930 H       1  UNL1        0.0262
     34 H           2.8638    0.3223   -0.7769 H       1  UNL1        0.0694
     35 H           2.8385   -0.9727    0.4424 H       1  UNL1        0.0694
     36 H           4.2372    1.2571    3.5173 H       1  UNL1        0.0654
     37 H           6.6066    1.9892    3.6715 H       1  UNL1        0.0619
     38 H           8.0179    2.2742    1.6533 H       1  UNL1        0.0625
     39 H           6.1449    2.1359   -2.7530 H       1  UNL1        0.1568
     40 H           6.1317    1.5747   -4.8167 H       1  UNL1        0.1539
     41 H           6.3253    2.5009   -7.2019 H       1  UNL1        0.0636
     42 H           7.5638    2.3172   -9.3258 H       1  UNL1        0.0618
     43 H           9.8456    1.3597   -9.3378 H       1  UNL1        0.0618
     44 H          10.7550    0.2889   -7.3103 H       1  UNL1        0.0626
     45 H           7.9927    0.1947   -3.7618 H       1  UNL1        0.1491
     46 H          10.1408    0.1371   -2.2381 H       1  UNL1        0.0487
     47 H           9.8864   -1.6057   -2.4910 H       1  UNL1        0.0487
     48 H           8.6608   -0.4127   -0.4122 H       1  UNL1        0.0611
     49 H           7.3878   -2.5532   -0.9034 H       1  UNL1        0.0291
     50 H           6.9360   -1.8449   -2.4948 H       1  UNL1        0.0291
     51 H           6.0152   -0.7312    0.1962 H       1  UNL1        0.0288
     52 H           4.9515   -1.3223   -1.1160 H       1  UNL1        0.0288
     53 H           5.7472    1.1428   -1.3409 H       1  UNL1        0.0560
     54 H           5.4760    0.2890   -2.6106 H       1  UNL1        0.0560
     55 H           4.3215    1.8514   -0.6238 H       1  UNL1        0.0662
@<TRIPOS>BOND
     1     1     2    1
     2     2     3    1
     3     3     4    1
     4     4     5   ar
     5     5     6   ar
     6     6     7   ar
     7     7     8   ar
     8     8     9    1
     9     9    10    2
    10     9    11   am
    11    11    12    1
    12    12    13    2
    13    12    14    1
    14    14    15    1
    15    15    16   ar
    16    16    17   ar
    17    17    18   ar
    18    18    19   ar
    19    19    20   ar
    20    15    20   ar
    21    20    21    1
    22    21    22    2
    23    21    23   am
    24    23    24    1
    25    24    25    1
    26    25    26    1
    27    26    27    1
    28    27    28    1
    29    28    29    1
    30    25    29    1
    31     8    30   ar
    32     4    30   ar
    33     1    31    1
    34     1    32    1
    35     1    33    1
    36     2    34    1
    37     2    35    1
    38     5    36    1
    39     6    37    1
    40     7    38    1
    41    11    39    1
    42    14    40    1
    43    16    41    1
    44    17    42    1
    45    18    43    1
    46    19    44    1
    47    23    45    1
    48    24    46    1
    49    24    47    1
    50    25    48    1
    51    26    49    1
    52    26    50    1
    53    27    51    1
    54    27    52    1
    55    28    53    1
    56    28    54    1
    57    30    55    1
