@<TRIPOS>MOLECULE
*****
 31 32 0 0 0
SMALL
GASTEIGER

@<TRIPOS>ATOM
      1 O           0.9964    0.0849   -0.1125 O.2     1  UNL1       -0.2755
      2 C           2.2197    0.0270   -0.1490 C.2     1  UNL1        0.2161
      3 N           2.9397   -1.0106   -0.6951 N.am    1  UNL1       -0.3148
      4 C           2.2648   -2.1212   -1.3330 C.3     1  UNL1        0.0156
      5 C           3.2287   -3.1406   -1.9367 C.3     1  UNL1       -0.0119
      6 C           2.5382   -4.3213   -2.5802 C.ar    1  UNL1       -0.0422
      7 C           1.4786   -4.1741   -3.4933 C.ar    1  UNL1       -0.0548
      8 C           0.8894   -5.2944   -4.0972 C.ar    1  UNL1       -0.0163
      9 C           1.3769   -6.5642   -3.8033 C.ar    1  UNL1        0.1582
     10 O           0.8558   -7.6925   -4.3733 O.3     1  UNL1       -0.5033
     11 C           2.4326   -6.7142   -2.9096 C.ar    1  UNL1        0.1585
     12 O           2.9425   -7.9469   -2.6168 O.3     1  UNL1       -0.5033
     13 C           3.0070   -5.6105   -2.2967 C.ar    1  UNL1       -0.0133
     14 C           3.0495    1.1041    0.4498 C.3     1  UNL1        0.0356
     15 C           4.2409    1.6106   -0.3365 C.3     1  UNL1       -0.0412
     16 C           3.0726    2.5172   -0.0915 C.3     1  UNL1       -0.0412
     17 H           3.9510   -0.9871   -0.6550 H       1  UNL1        0.1487
     18 H           1.6122   -1.6973   -2.1030 H       1  UNL1        0.0465
     19 H           1.6242   -2.5984   -0.5827 H       1  UNL1        0.0465
     20 H           3.8949   -3.4992   -1.1397 H       1  UNL1        0.0328
     21 H           3.8798   -2.6662   -2.6818 H       1  UNL1        0.0328
     22 H           1.0987   -3.1862   -3.7487 H       1  UNL1        0.0621
     23 H           0.0667   -5.1471   -4.7906 H       1  UNL1        0.0655
     24 H           0.1289   -7.4303   -4.9644 H       1  UNL1        0.2923
     25 H           2.4249   -8.5735   -3.1569 H       1  UNL1        0.2923
     26 H           3.8255   -5.7656   -1.6000 H       1  UNL1        0.0658
     27 H           3.0848    1.0566    1.5343 H       1  UNL1        0.0394
     28 H           4.3728    1.2581   -1.3547 H       1  UNL1        0.0273
     29 H           5.1686    1.7626    0.1993 H       1  UNL1        0.0273
     30 H           2.4183    2.7658   -0.9192 H       1  UNL1        0.0273
     31 H           3.2233    3.3424    0.5983 H       1  UNL1        0.0273
@<TRIPOS>BOND
     1     1     2    2
     2     2     3   am
     3     3     4    1
     4     4     5    1
     5     5     6    1
     6     6     7   ar
     7     7     8   ar
     8     8     9   ar
     9     9    10    1
    10     9    11   ar
    11    11    12    1
    12    11    13   ar
    13     6    13   ar
    14     2    14    1
    15    14    15    1
    16    15    16    1
    17    14    16    1
    18     3    17    1
    19     4    18    1
    20     4    19    1
    21     5    20    1
    22     5    21    1
    23     7    22    1
    24     8    23    1
    25    10    24    1
    26    12    25    1
    27    13    26    1
    28    14    27    1
    29    15    28    1
    30    15    29    1
    31    16    30    1
    32    16    31    1
