REMARK  8 active torsions:
REMARK  status: ('A' for Active; 'I' for Inactive)
REMARK    1  A    between atoms: C_2  and  C_3 
REMARK       I    between atoms: C_3  and  N_5 
REMARK    2  A    between atoms: N_5  and  C_6 
REMARK    3  A    between atoms: C_9  and  N_10 
REMARK    4  A    between atoms: N_10  and  C_11 
REMARK    5  A    between atoms: C_11  and  C_12 
REMARK       I    between atoms: C_12  and  N_14 
REMARK    6  A    between atoms: N_14  and  C_15 
REMARK    7  A    between atoms: C_18  and  N_19 
REMARK       I    between atoms: N_19  and  C_20 
REMARK    8  A    between atoms: C_20  and  C_22 
ROOT
ATOM      1  C   UNL d   1       6.624   9.472   0.664  0.00  0.00     0.239 C 
ATOM      2  O   UNL d   1       7.546   9.496  -0.156  0.00  0.00    -0.271 OA
ATOM      3  N   UNL d   1       6.205  10.580   1.410  0.00  0.00    -0.326 N 
ATOM      4  H   UNL d   1       5.564  10.459   2.183  0.00  0.00     0.169 HD
ENDROOT
BRANCH   3   5
ATOM      5  C   UNL d   1       6.741  11.876   1.198  0.00  0.00     0.034 A 
ATOM      6  C   UNL d   1       6.949  12.787   2.241  0.00  0.00     0.032 A 
ATOM      7  C   UNL d   1       7.471  14.082   1.974  0.00  0.00     0.032 A 
ATOM      8  C   UNL d   1       7.805  14.465   0.666  0.00  0.00     0.035 A 
ATOM      9  C   UNL d   1       7.536  13.554  -0.353  0.00  0.00     0.032 A 
ATOM     10  C   UNL d   1       7.028  12.285  -0.095  0.00  0.00     0.032 A 
BRANCH   8  11
ATOM     11  N   UNL d   1       8.424  15.722   0.395  0.00  0.00    -0.323 N 
ATOM     12  C   UNL d   1       8.810  16.155  -0.870  0.00  0.00     0.256 C 
ATOM     13  O   UNL d   1       8.645  15.556  -1.941  0.00  0.00    -0.267 OA
ATOM     14  H   UNL d   1       8.615  16.325   1.186  0.00  0.00     0.169 HD
BRANCH  12  15
ATOM     15  C   UNL d   1       9.503  17.452  -1.007  0.00  0.00     0.032 A 
ATOM     16  C   UNL d   1       9.209  18.238  -2.135  0.00  0.00     0.017 A 
ATOM     17  C   UNL d   1       9.989  19.349  -2.445  0.00  0.00     0.002 A 
ATOM     18  C   UNL d   1      11.036  19.712  -1.601  0.00  0.00     0.007 A 
ATOM     19  C   UNL d   1      11.341  18.934  -0.475  0.00  0.00    -0.061 A 
ATOM     20  C   UNL d   1      12.528  19.267   0.377  0.00  0.00     0.048 C 
ATOM     21  C   UNL d   1      10.573  17.796  -0.180  0.00  0.00     0.023 A 
ENDBRANCH  12  15
ENDBRANCH   8  11
ENDBRANCH   3   5
BRANCH   1  22
ATOM     22  C   UNL d   1       5.881   8.152   0.945  0.00  0.00     0.223 C 
BRANCH  22  23
ATOM     23  N   UNL d   1       6.547   7.033   0.251  0.00  0.00    -0.381 N 
ATOM     24  H   UNL d   1       7.197   7.328  -0.480  0.00  0.00     0.160 HD
BRANCH  23  25
ATOM     25  C   UNL d   1       5.993   5.766   0.159  0.00  0.00     0.028 A 
ATOM     26  C   UNL d   1       6.579   4.774  -0.646  0.00  0.00     0.031 A 
ATOM     27  C   UNL d   1       6.037   3.471  -0.736  0.00  0.00     0.032 A 
ATOM     28  C   UNL d   1       4.914   3.129   0.018  0.00  0.00     0.034 A 
ATOM     29  C   UNL d   1       4.361   4.096   0.856  0.00  0.00     0.032 A 
ATOM     30  C   UNL d   1       4.901   5.382   0.933  0.00  0.00     0.031 A 
BRANCH  28  31
ATOM     31  N   UNL d   1       4.366   1.823  -0.020  0.00  0.00    -0.327 N 
ATOM     32  C   UNL d   1       2.995   1.604   0.035  0.00  0.00     0.221 C 
ATOM     33  O   UNL d   1       2.157   2.506   0.043  0.00  0.00    -0.273 OA
ATOM     34  H   UNL d   1       4.987   1.055  -0.245  0.00  0.00     0.169 HD
BRANCH  32  35
ATOM     35  C   UNL d   1       2.562   0.146   0.048  0.00  0.00     0.098 C 
ATOM     36  C   UNL d   1       1.035   0.063   0.049  0.00  0.00     0.014 C 
ENDBRANCH  32  35
ENDBRANCH  28  31
ENDBRANCH  23  25
ENDBRANCH  22  23
ENDBRANCH   1  22
TORSDOF 8
