@<TRIPOS>MOLECULE
*****
 39 41 0 0 0
SMALL
GASTEIGER

@<TRIPOS>ATOM
      1 O           1.1478   -0.0005    0.0501 O.2     1  UNL1       -0.2507
      2 C           2.3795    0.0616    0.0251 C.2     1  UNL1        0.3228
      3 N           3.1085    1.2054   -0.1060 N.am    1  UNL1       -0.1781
      4 O           2.4016    2.4159   -0.2515 O.3     1  UNL1       -0.2740
      5 C           3.3048    3.5183   -0.4070 C.3     1  UNL1        0.0983
      6 C           2.5436    4.8185   -0.5425 C.ar    1  UNL1       -0.0197
      7 C           3.2270    6.0448   -0.5839 C.ar    1  UNL1       -0.0563
      8 C           2.5177    7.2503   -0.5627 C.ar    1  UNL1       -0.0614
      9 C           1.1240    7.2443   -0.5886 C.ar    1  UNL1       -0.0617
     10 C           0.4366    6.0352   -0.6009 C.ar    1  UNL1       -0.0614
     11 C           1.1416    4.8338   -0.5735 C.ar    1  UNL1       -0.0563
     12 N           3.1131   -1.0933    0.1416 N.am    1  UNL1       -0.2944
     13 C           4.5374   -1.2254    0.2533 C.3     1  UNL1        0.0321
     14 C           5.3620   -1.6509   -0.9324 C.3     1  UNL1       -0.0254
     15 C           5.1636   -2.5999    0.2228 C.3     1  UNL1        0.0044
     16 C           6.3233   -3.0767    1.0846 C.ar    1  UNL1       -0.0398
     17 C           7.3153   -2.2784    1.6836 C.ar    1  UNL1       -0.0581
     18 C           8.3821   -2.8511    2.4066 C.ar    1  UNL1       -0.0588
     19 C           8.4396   -4.2278    2.6149 C.ar    1  UNL1       -0.0264
     20 C           7.4595   -5.0262    2.0568 C.ar    1  UNL1        0.1237
     21 F           7.5015   -6.3544    2.2264 F       1  UNL1       -0.2055
     22 C           6.4335   -4.4672    1.3016 C.ar    1  UNL1       -0.0229
     23 H           4.1138    1.2118   -0.1476 H       1  UNL1        0.1841
     24 H           3.9295    3.3568   -1.2928 H       1  UNL1        0.0634
     25 H           3.9370    3.5780    0.4879 H       1  UNL1        0.0634
     26 H           4.3141    6.0763   -0.6133 H       1  UNL1        0.0621
     27 H           3.0491    8.1974   -0.5090 H       1  UNL1        0.0618
     28 H           0.5715    8.1796   -0.5992 H       1  UNL1        0.0618
     29 H          -0.6495    6.0171   -0.6075 H       1  UNL1        0.0618
     30 H           0.5809    3.9006   -0.5591 H       1  UNL1        0.0621
     31 H           2.5285   -1.9119    0.2774 H       1  UNL1        0.1506
     32 H           4.9764   -0.4930    0.9223 H       1  UNL1        0.0505
     33 H           6.3074   -1.1447   -1.0864 H       1  UNL1        0.0290
     34 H           4.8657   -1.9129   -1.8632 H       1  UNL1        0.0290
     35 H           4.4482   -3.3985    0.0231 H       1  UNL1        0.0367
     36 H           7.2800   -1.1946    1.5992 H       1  UNL1        0.0620
     37 H           9.1765   -2.2229    2.8048 H       1  UNL1        0.0619
     38 H           9.2317   -4.6814    3.2026 H       1  UNL1        0.0646
     39 H           5.6979   -5.1430    0.8737 H       1  UNL1        0.0649
@<TRIPOS>BOND
     1     1     2    2
     2     2     3   am
     3     3     4    1
     4     4     5    1
     5     5     6    1
     6     6     7   ar
     7     7     8   ar
     8     8     9   ar
     9     9    10   ar
    10    10    11   ar
    11     6    11   ar
    12     2    12   am
    13    12    13    1
    14    13    14    1
    15    14    15    1
    16    13    15    1
    17    16    17   ar
    18    17    18   ar
    19    18    19   ar
    20    19    20   ar
    21    20    21    1
    22    20    22   ar
    23    16    22   ar
    24    15    16    1
    25     3    23    1
    26     5    24    1
    27     5    25    1
    28     7    26    1
    29     8    27    1
    30     9    28    1
    31    10    29    1
    32    11    30    1
    33    12    31    1
    34    13    32    1
    35    14    33    1
    36    14    34    1
    37    15    35    1
    38    17    36    1
    39    18    37    1
    40    19    38    1
    41    22    39    1
