@<TRIPOS>MOLECULE
*****
 61 63 0 0 0
SMALL
GASTEIGER

@<TRIPOS>ATOM
      1 C           1.0185   -0.0881   -0.1018 C.3     1  UNL1       -0.0570
      2 C           2.5420   -0.0649   -0.0485 C.3     1  UNL1        0.0215
      3 C           2.9730    0.3500    1.3357 C.2     1  UNL1        0.2169
      4 O           2.1399    0.5825    2.2134 O.2     1  UNL1       -0.2755
      5 N           4.3385    0.4802    1.5160 N.am    1  UNL1       -0.2855
      6 C           4.8828    0.7110    2.7917 C.ar    1  UNL1        0.0334
      7 C           6.0487    1.4528    2.9626 C.ar    1  UNL1       -0.0398
      8 C           6.6595    1.4556    4.2316 C.ar    1  UNL1       -0.0478
      9 C           6.0992    0.7077    5.3119 C.ar    1  UNL1        0.0383
     10 C           6.8164    0.4638    6.6157 C.2     1  UNL1        0.2601
     11 O           7.9693    0.9035    6.6446 O.2     1  UNL1       -0.2687
     12 N           6.0987   -0.1570    7.7408 N.am    1  UNL1       -0.2311
     13 N           6.6281   -0.1967    9.2545 N.am    1  UNL1       -0.2453
     14 C           5.6827   -0.1982   10.3519 C.2     1  UNL1        0.1533
     15 S           4.0541   -0.5008   10.0827 S.2     1  UNL1       -0.0170
     16 N           6.2668    0.0448   11.6646 N.am    1  UNL1       -0.2626
     17 C           5.5965    0.0409   12.9474 C.2     1  UNL1        0.2531
     18 O           4.5228   -0.4968   13.1288 O.2     1  UNL1       -0.2697
     19 C           6.2409    0.5876   14.2254 C.ar    1  UNL1        0.0786
     20 C           6.2411   -0.3635   15.2822 C.ar    1  UNL1       -0.0461
     21 C           6.4896   -0.0099   16.6191 C.ar    1  UNL1       -0.0608
     22 C           6.8409    1.2921   16.9337 C.ar    1  UNL1       -0.0583
     23 C           6.8551    2.2495   15.9245 C.ar    1  UNL1       -0.0192
     24 C           6.5102    1.9337   14.5887 C.ar    1  UNL1        0.1326
     25 O           6.4196    3.1041   13.8626 O.3     1  UNL1       -0.4909
     26 C           6.2143    2.9201   12.4869 C.3     1  UNL1        0.0936
     27 C           6.3433    4.2046   11.6395 C.3     1  UNL1        0.0066
     28 C           5.9847    3.9420   10.2113 C.ar    1  UNL1       -0.0442
     29 C           5.4141    4.7908    9.2560 C.ar    1  UNL1       -0.0585
     30 C           5.0360    4.3192    7.9825 C.ar    1  UNL1       -0.0615
     31 C           5.4602    3.0896    7.5845 C.ar    1  UNL1       -0.0617
     32 C           6.3763    2.5190    8.4225 C.ar    1  UNL1       -0.0615
     33 C           6.5034    2.7902    9.7372 C.ar    1  UNL1       -0.0585
     34 C           4.8589    0.1290    5.1463 C.ar    1  UNL1       -0.0478
     35 C           4.2758    0.1086    3.8969 C.ar    1  UNL1       -0.0398
     36 H           0.6588   -0.3641   -1.0941 H       1  UNL1        0.0234
     37 H           0.6096    0.8975    0.1530 H       1  UNL1        0.0234
     38 H           0.6141   -0.8033    0.6254 H       1  UNL1        0.0234
     39 H           2.9325    0.6543   -0.7740 H       1  UNL1        0.0356
     40 H           2.9399   -1.0596   -0.2754 H       1  UNL1        0.0356
     41 H           4.9765    0.4176    0.7317 H       1  UNL1        0.1548
     42 H           6.4683    2.0382    2.1427 H       1  UNL1        0.0636
     43 H           7.5822    2.0278    4.3533 H       1  UNL1        0.0626
     44 H           5.0764   -0.1346    7.7500 H       1  UNL1        0.1731
     45 H           7.5043    0.3044    9.3583 H       1  UNL1        0.1718
     46 H           7.2186    0.3689   11.6936 H       1  UNL1        0.1569
     47 H           5.9676   -1.3994   15.0796 H       1  UNL1        0.0626
     48 H           6.3716   -0.7432   17.4157 H       1  UNL1        0.0618
     49 H           7.0675    1.5735   17.9601 H       1  UNL1        0.0619
     50 H           7.0798    3.2831   16.1897 H       1  UNL1        0.0654
     51 H           5.2362    2.4539   12.3172 H       1  UNL1        0.0700
     52 H           7.0382    2.2683   12.1960 H       1  UNL1        0.0700
     53 H           7.4029    4.4883   11.6461 H       1  UNL1        0.0346
     54 H           5.7304    5.0037   12.0403 H       1  UNL1        0.0346
     55 H           5.3349    5.8496    9.4467 H       1  UNL1        0.0620
     56 H           4.5308    4.9210    7.2367 H       1  UNL1        0.0618
     57 H           5.2382    2.7118    6.5969 H       1  UNL1        0.0618
     58 H           7.1524    1.8553    8.1531 H       1  UNL1        0.0618
     59 H           7.1590    2.1550   10.3088 H       1  UNL1        0.0620
     60 H           4.3421   -0.3744    5.9478 H       1  UNL1        0.0626
     61 H           3.3639   -0.4720    3.8032 H       1  UNL1        0.0636
@<TRIPOS>BOND
     1     1     2    1
     2     2     3    1
     3     3     4    2
     4     3     5   am
     5     5     6    1
     6     6     7   ar
     7     7     8   ar
     8     8     9   ar
     9     9    10    1
    10    10    11    2
    11    10    12   am
    12    12    13    1
    13    13    14    1
    14    14    15    2
    15    14    16    1
    16    16    17   am
    17    17    18    2
    18    17    19    1
    19    19    20   ar
    20    20    21   ar
    21    21    22   ar
    22    22    23   ar
    23    23    24   ar
    24    19    24   ar
    25    24    25    1
    26    25    26    1
    27    26    27    1
    28    27    28    1
    29    28    29   ar
    30    29    30   ar
    31    30    31   ar
    32    31    32   ar
    33    32    33   ar
    34    28    33   ar
    35     9    34   ar
    36    34    35   ar
    37     6    35   ar
    38     1    36    1
    39     1    37    1
    40     1    38    1
    41     2    39    1
    42     2    40    1
    43     5    41    1
    44     7    42    1
    45     8    43    1
    46    12    44    1
    47    13    45    1
    48    16    46    1
    49    20    47    1
    50    21    48    1
    51    22    49    1
    52    23    50    1
    53    26    51    1
    54    26    52    1
    55    27    53    1
    56    27    54    1
    57    29    55    1
    58    30    56    1
    59    31    57    1
    60    32    58    1
    61    33    59    1
    62    34    60    1
    63    35    61    1
