REMARK  3 active torsions:
REMARK  status: ('A' for Active; 'I' for Inactive)
REMARK    1  A    between atoms: C_5  and  C_6 
REMARK    2  A    between atoms: C_6  and  N_8 
REMARK       I    between atoms: N_8  and  C_9 
REMARK    3  A    between atoms: C_9  and  C_11 
ROOT
ATOM      1  N   UNL d   1      -4.096  -0.280   0.079  0.00  0.00    -0.348 N 
ATOM      2  C   UNL d   1      -5.446   0.017   0.102  0.00  0.00     0.253 C 
ATOM      3  O   UNL d   1      -5.893   1.161   0.114  0.00  0.00    -0.268 OA
ATOM      4  H   UNL d   1      -3.833  -1.249   0.003  0.00  0.00     0.163 HD
ENDROOT
BRANCH   2   5
ATOM      5  C   UNL d   1      -6.394  -1.130   0.081  0.00  0.00     0.046 A 
ATOM      6  C   UNL d   1      -6.225  -2.244   0.923  0.00  0.00     0.018 A 
ATOM      7  C   UNL d   1      -7.167  -3.282   0.944  0.00  0.00     0.003 A 
ATOM      8  C   UNL d   1      -8.300  -3.256   0.124  0.00  0.00     0.032 A 
ATOM      9  C   UNL d   1      -8.452  -2.144  -0.707  0.00  0.00     0.062 A 
ATOM     10  N   UNL d   1      -9.433  -1.818  -1.607  0.00  0.00    -0.278 N 
ATOM     11  C   UNL d   1      -7.543  -1.086  -0.742  0.00  0.00     0.027 A 
ATOM     12  N   UNL d   1      -9.238  -0.644  -2.227  0.00  0.00    -0.186 NA
ATOM     13  H   UNL d   1     -10.258  -2.358  -1.847  0.00  0.00     0.189 HD
ATOM     14  C   UNL d   1      -8.099  -0.194  -1.690  0.00  0.00     0.153 A 
ENDBRANCH   2   5
BRANCH   1  15
ATOM     15  C   UNL d   1      -3.038   0.750   0.021  0.00  0.00     0.121 C 
ATOM     16  C   UNL d   1      -3.202   1.641  -1.217  0.00  0.00     0.038 C 
BRANCH  15  17
ATOM     17  C   UNL d   1      -1.653   0.093   0.028  0.00  0.00     0.005 A 
ATOM     18  C   UNL d   1      -1.306  -1.247   0.004  0.00  0.00     0.018 A 
ATOM     19  C   UNL d   1       0.098  -1.472  -0.001  0.00  0.00     0.015 A 
ATOM     20  C   UNL d   1       0.820  -0.302   0.016  0.00  0.00    -0.021 A 
ATOM     21  C   UNL d   1       2.307  -0.159   0.015  0.00  0.00     0.056 C 
ATOM     22  S   UNL d   1      -0.213   1.062   0.062  0.00  0.00    -0.098 SA
ENDBRANCH  15  17
ENDBRANCH   1  15
TORSDOF 3
