@<TRIPOS>MOLECULE
*****
 70 72 0 0 0
SMALL
GASTEIGER

@<TRIPOS>ATOM
      1 C           1.0696    0.0609   -0.0136 C.3     1  UNL1       -0.0653
      2 C           2.5871    0.0543   -0.0052 C.3     1  UNL1       -0.0559
      3 C           3.1145   -0.8317    1.1184 C.3     1  UNL1       -0.0532
      4 C           4.6377   -0.8448    1.1292 C.3     1  UNL1       -0.0500
      5 C           5.1644   -1.7425    2.2429 C.3     1  UNL1       -0.0186
      6 C           6.6860   -1.7615    2.2414 C.3     1  UNL1        0.0896
      7 O           7.1243   -2.6907    3.2347 O.3     1  UNL1       -0.4920
      8 C           8.4742   -2.7049    3.4509 C.ar    1  UNL1        0.1207
      9 C           9.0483   -3.9303    3.7962 C.ar    1  UNL1       -0.0165
     10 C          10.4002   -3.9968    4.1682 C.ar    1  UNL1       -0.0165
     11 C          11.1864   -2.8385    4.1499 C.ar    1  UNL1        0.1209
     12 O          12.4923   -2.9312    4.5447 O.3     1  UNL1       -0.4886
     13 C          13.2776   -1.7077    4.4359 C.3     1  UNL1        0.1235
     14 C          14.7108   -2.0735    4.7886 C.3     1  UNL1        0.1237
     15 O          15.7317   -1.1448    4.4195 O.3     1  UNL1       -0.4849
     16 C          17.0673   -1.5153    4.5278 C.ar    1  UNL1        0.1621
     17 C          17.8396   -0.5539    5.2272 C.ar    1  UNL1       -0.0157
     18 C          19.2542   -0.6099    5.2938 C.ar    1  UNL1       -0.0494
     19 C          19.9396   -1.6776    4.7185 C.ar    1  UNL1       -0.0018
     20 C          21.4227   -1.8475    4.8737 C.2     1  UNL1        0.0529
     21 N          22.0339   -2.8793    4.3741 N.2     1  UNL1       -0.1877
     22 N          23.3904   -3.0479    4.5691 N.am    1  UNL1       -0.2067
     23 C          23.9794   -4.1903    3.9914 C.2     1  UNL1        0.2386
     24 O          23.3410   -4.9849    3.3230 O.2     1  UNL1       -0.2737
     25 C          25.4914   -4.3495    4.2266 C.3     1  UNL1        0.0761
     26 C          25.9383   -5.6509    3.6150 C.ar    1  UNL1        0.1125
     27 N          25.6886   -6.8356    4.1350 N.ar    1  UNL1       -0.1442
     28 N          26.0819   -7.8669    3.3062 N.ar    1  UNL1       -0.1262
     29 C          26.6853   -7.4472    2.2178 C.ar    1  UNL1        0.1790
     30 N          27.1704   -8.2659    1.2683 N.pl3   1  UNL1       -0.3361
     31 S          26.8264   -5.7299    2.1375 S.2     1  UNL1       -0.0354
     32 C          19.1966   -2.6226    4.0151 C.ar    1  UNL1       -0.0077
     33 C          17.7851   -2.5541    3.8855 C.ar    1  UNL1        0.1621
     34 O          17.4103   -3.5661    3.0324 O.3     1  UNL1       -0.4914
     35 C          16.0471   -3.8296    2.9251 C.3     1  UNL1        0.0790
     36 C          10.6077   -1.6343    3.7691 C.ar    1  UNL1       -0.0165
     37 C           9.2624   -1.5609    3.4408 C.ar    1  UNL1       -0.0165
     38 H           0.6965    0.6970   -0.8211 H       1  UNL1        0.0230
     39 H           0.6784    0.4432    0.9346 H       1  UNL1        0.0230
     40 H           0.6784   -0.9505   -0.1635 H       1  UNL1        0.0230
     41 H           2.9567    1.0787    0.1211 H       1  UNL1        0.0263
     42 H           2.9564   -0.3079   -0.9718 H       1  UNL1        0.0263
     43 H           2.7386   -1.8542    0.9904 H       1  UNL1        0.0265
     44 H           2.7412   -0.4679    2.0835 H       1  UNL1        0.0265
     45 H           5.0147    0.1770    1.2625 H       1  UNL1        0.0266
     46 H           5.0105   -1.2025    0.1617 H       1  UNL1        0.0266
     47 H           4.7820   -2.7633    2.1300 H       1  UNL1        0.0298
     48 H           4.8041   -1.3878    3.2176 H       1  UNL1        0.0298
     49 H           7.0268   -0.7395    2.4369 H       1  UNL1        0.0696
     50 H           7.0615   -2.0889    1.2653 H       1  UNL1        0.0696
     51 H           8.4381   -4.8312    3.7844 H       1  UNL1        0.0655
     52 H          10.8149   -4.9503    4.4902 H       1  UNL1        0.0655
     53 H          12.8916   -0.9365    5.1013 H       1  UNL1        0.0731
     54 H          13.2609   -1.3709    3.3861 H       1  UNL1        0.0731
     55 H          14.7040   -2.8694    4.1017 H       1  UNL1        0.0731
     56 H          14.8597   -2.5396    5.7654 H       1  UNL1        0.0731
     57 H          17.3343    0.2741    5.7264 H       1  UNL1        0.0655
     58 H          19.7950    0.1932    5.7885 H       1  UNL1        0.0625
     59 H          21.9583   -1.0745    5.4491 H       1  UNL1        0.0851
     60 H          23.9063   -2.3777    5.1239 H       1  UNL1        0.1772
     61 H          25.7021   -4.3781    5.3022 H       1  UNL1        0.0429
     62 H          26.0296   -3.4969    3.7979 H       1  UNL1        0.0429
     63 H          26.9323   -9.2508    1.3143 H       1  UNL1        0.1442
     64 H          27.5559   -7.9292    0.3973 H       1  UNL1        0.1442
     65 H          19.7161   -3.4428    3.5160 H       1  UNL1        0.0662
     66 H          15.7732   -4.6429    2.2558 H       1  UNL1        0.0660
     67 H          15.5740   -2.9335    2.5010 H       1  UNL1        0.0660
     68 H          15.7332   -4.1948    3.9120 H       1  UNL1        0.0660
     69 H          11.1692   -0.7095    3.7529 H       1  UNL1        0.0655
     70 H           8.8676   -0.5773    3.2243 H       1  UNL1        0.0655
@<TRIPOS>BOND
     1     1     2    1
     2     2     3    1
     3     3     4    1
     4     4     5    1
     5     5     6    1
     6     6     7    1
     7     7     8    1
     8     8     9   ar
     9     9    10   ar
    10    10    11   ar
    11    11    12    1
    12    12    13    1
    13    13    14    1
    14    14    15    1
    15    15    16    1
    16    16    17   ar
    17    17    18   ar
    18    18    19   ar
    19    19    20    1
    20    20    21    2
    21    21    22    1
    22    22    23   am
    23    23    24    2
    24    23    25    1
    25    25    26    1
    26    26    27   ar
    27    27    28   ar
    28    28    29   ar
    29    29    30    1
    30    29    31   ar
    31    26    31   ar
    32    19    32   ar
    33    32    33   ar
    34    16    33   ar
    35    33    34    1
    36    34    35    1
    37    11    36   ar
    38    36    37   ar
    39     8    37   ar
    40     1    38    1
    41     1    39    1
    42     1    40    1
    43     2    41    1
    44     2    42    1
    45     3    43    1
    46     3    44    1
    47     4    45    1
    48     4    46    1
    49     5    47    1
    50     5    48    1
    51     6    49    1
    52     6    50    1
    53     9    51    1
    54    10    52    1
    55    13    53    1
    56    13    54    1
    57    14    55    1
    58    14    56    1
    59    17    57    1
    60    18    58    1
    61    20    59    1
    62    22    60    1
    63    25    61    1
    64    25    62    1
    65    30    63    1
    66    30    64    1
    67    32    65    1
    68    35    66    1
    69    35    67    1
    70    35    68    1
    71    36    69    1
    72    37    70    1
