@<TRIPOS>MOLECULE
*****
 55 56 0 0 0
SMALL
GASTEIGER

@<TRIPOS>ATOM
      1 C           1.0928   -0.0249   -0.0512 C.3     1  UNL1        0.0366
      2 O           2.5183    0.0012   -0.0251 O.3     1  UNL1       -0.3796
      3 C           3.0033    0.9880    0.8927 C.3     1  UNL1        0.0815
      4 C           4.5336    1.0153    0.9161 C.3     1  UNL1        0.1173
      5 O           5.0171    2.0109    1.8569 O.3     1  UNL1       -0.4479
      6 C           6.3824    2.0570    1.9370 C.2     1  UNL1        0.4046
      7 O           7.1033    1.3199    1.2635 O.2     1  UNL1       -0.2261
      8 N           6.8305    2.9547    2.8960 N.am    1  UNL1       -0.2511
      9 C           8.2028    3.2576    3.0971 C.ar    1  UNL1        0.0382
     10 C           8.7492    3.5454    4.3398 C.ar    1  UNL1       -0.0403
     11 C          10.1131    3.8887    4.4361 C.ar    1  UNL1       -0.0583
     12 C          10.9389    3.9385    3.2932 C.ar    1  UNL1       -0.0404
     13 C          10.3896    3.6879    2.0353 C.ar    1  UNL1        0.0351
     14 N          11.1618    3.8115    0.8385 N.am    1  UNL1       -0.2854
     15 C          10.6242    3.6590   -0.4380 C.2     1  UNL1        0.2187
     16 O           9.4424    3.4266   -0.6865 O.2     1  UNL1       -0.2754
     17 C          11.5583    3.8252   -1.6126 C.3     1  UNL1        0.0397
     18 C          10.7158    3.5626   -2.8766 C.3     1  UNL1        0.0174
     19 N          11.5140    3.5834   -4.0843 N.pl3   1  UNL1       -0.3434
     20 C          10.9207    3.5031   -5.3363 C.ar    1  UNL1        0.0276
     21 C          11.6002    2.8302   -6.3561 C.ar    1  UNL1       -0.0379
     22 C          11.0986    2.7908   -7.6642 C.ar    1  UNL1       -0.0485
     23 C          11.9390    2.3030   -8.8029 C.3     1  UNL1       -0.0396
     24 C           9.8387    3.3264   -7.9352 C.ar    1  UNL1       -0.0558
     25 C           9.1316    3.9901   -6.9349 C.ar    1  UNL1       -0.0485
     26 C           7.8471    4.6929   -7.2512 C.3     1  UNL1       -0.0396
     27 C           9.6754    4.0654   -5.6423 C.ar    1  UNL1       -0.0379
     28 C           9.0364    3.3381    1.9872 C.ar    1  UNL1       -0.0191
     29 H           0.7601   -0.7867   -0.7632 H       1  UNL1        0.0524
     30 H           0.6990    0.9444   -0.3728 H       1  UNL1        0.0524
     31 H           0.6980   -0.2796    0.9374 H       1  UNL1        0.0524
     32 H           2.6254    0.7615    1.8955 H       1  UNL1        0.0593
     33 H           2.6227    1.9718    0.5983 H       1  UNL1        0.0593
     34 H           4.9062    1.2342   -0.0937 H       1  UNL1        0.0721
     35 H           4.9038    0.0218    1.2024 H       1  UNL1        0.0721
     36 H           6.1419    3.3935    3.4898 H       1  UNL1        0.1582
     37 H           8.1599    3.4366    5.2454 H       1  UNL1        0.0636
     38 H          10.5359    4.1208    5.4132 H       1  UNL1        0.0619
     39 H          11.9925    4.1767    3.4201 H       1  UNL1        0.0636
     40 H          12.1359    4.0705    0.9374 H       1  UNL1        0.1548
     41 H          12.3843    3.1129   -1.5415 H       1  UNL1        0.0374
     42 H          11.9513    4.8468   -1.6245 H       1  UNL1        0.0374
     43 H           9.9008    4.2968   -2.9191 H       1  UNL1        0.0466
     44 H          10.2520    2.5681   -2.8118 H       1  UNL1        0.0466
     45 H          12.4729    3.9043   -4.0486 H       1  UNL1        0.1461
     46 H          12.5347    2.3257   -6.1227 H       1  UNL1        0.0639
     47 H          12.9158    1.9507   -8.4600 H       1  UNL1        0.0278
     48 H          12.1147    3.1418   -9.4876 H       1  UNL1        0.0278
     49 H          11.4380    1.4976   -9.3455 H       1  UNL1        0.0278
     50 H           9.4306    3.2596   -8.9415 H       1  UNL1        0.0623
     51 H           7.5653    4.5578   -8.3010 H       1  UNL1        0.0278
     52 H           7.9651    5.7678   -7.0768 H       1  UNL1        0.0278
     53 H           7.0378    4.3067   -6.6262 H       1  UNL1        0.0278
     54 H           9.1241    4.6200   -4.8888 H       1  UNL1        0.0639
     55 H           8.5481    3.1511    1.0475 H       1  UNL1        0.0655
@<TRIPOS>BOND
     1     1     2    1
     2     2     3    1
     3     3     4    1
     4     4     5    1
     5     5     6    1
     6     6     7    2
     7     6     8   am
     8     8     9    1
     9     9    10   ar
    10    10    11   ar
    11    11    12   ar
    12    12    13   ar
    13    13    14    1
    14    14    15   am
    15    15    16    2
    16    15    17    1
    17    17    18    1
    18    18    19    1
    19    19    20    1
    20    20    21   ar
    21    21    22   ar
    22    22    23    1
    23    22    24   ar
    24    24    25   ar
    25    25    26    1
    26    25    27   ar
    27    20    27   ar
    28    13    28   ar
    29     9    28   ar
    30     1    29    1
    31     1    30    1
    32     1    31    1
    33     3    32    1
    34     3    33    1
    35     4    34    1
    36     4    35    1
    37     8    36    1
    38    10    37    1
    39    11    38    1
    40    12    39    1
    41    14    40    1
    42    17    41    1
    43    17    42    1
    44    18    43    1
    45    18    44    1
    46    19    45    1
    47    21    46    1
    48    23    47    1
    49    23    48    1
    50    23    49    1
    51    24    50    1
    52    26    51    1
    53    26    52    1
    54    26    53    1
    55    27    54    1
    56    28    55    1
