@<TRIPOS>MOLECULE
*****
 57 60 0 0 0
SMALL
GASTEIGER

@<TRIPOS>ATOM
      1 O           0.9792   -0.0145    0.3168 O.2     1  UNL1       -0.2698
      2 C           2.2012    0.0788    0.1745 C.2     1  UNL1        0.2503
      3 N           2.9013    1.2857    0.2628 N.am    1  UNL1       -0.2812
      4 C           2.2561    2.5199    0.5393 C.ar    1  UNL1        0.0402
      5 C           2.7009    3.7149   -0.0117 C.ar    1  UNL1       -0.0383
      6 C           2.0625    4.9321    0.3226 C.ar    1  UNL1       -0.0323
      7 C           0.9421    5.0154    1.1931 C.ar    1  UNL1        0.1083
      8 N           0.3177    6.2501    1.3409 N.pl3   1  UNL1       -0.3146
      9 C           0.0668    6.9047    2.6423 C.3     1  UNL1        0.0526
     10 C          -1.4103    7.3841    2.7237 C.3     1  UNL1       -0.0175
     11 N          -1.7292    8.2665    1.5364 N.4     1  UNL1        0.2292
     12 C          -1.4605    7.5596    0.2265 C.3     1  UNL1       -0.0175
     13 C           0.0071    7.0737    0.1569 C.3     1  UNL1        0.0526
     14 C           0.5387    3.7821    1.7670 C.ar    1  UNL1        0.2957
     15 N          -0.5746    3.6240    2.7248 N.pl3   1  UNL1        0.0816
     16 O          -1.2614    4.6021    3.0243 O.2     1  UNL1        0.0415
     17 O          -0.7770    2.5027    3.2111 O.co2   1  UNL1       -0.5760
     18 C           1.1775    2.5710    1.4158 C.ar    1  UNL1        0.0387
     19 C           2.9665   -1.1439   -0.1933 C.ar    1  UNL1        0.0644
     20 C           4.1188   -1.4508    0.5616 C.ar    1  UNL1        0.0295
     21 C           4.8971   -2.5648    0.2139 C.ar    1  UNL1        0.2740
     22 N           6.2323   -2.7436    0.8044 N.pl3   1  UNL1        0.0796
     23 O           6.6005   -1.9114    1.6448 O.2     1  UNL1        0.0414
     24 O           6.9306   -3.6764    0.3826 O.co2   1  UNL1       -0.5760
     25 C           4.4678   -3.4462   -0.7772 C.ar    1  UNL1        0.0174
     26 C           3.2870   -3.1692   -1.4717 C.ar    1  UNL1       -0.0335
     27 C           2.5168   -2.0131   -1.2251 C.ar    1  UNL1        0.0424
     28 N           1.4294   -1.8115   -2.0521 N.pl3   1  UNL1       -0.3293
     29 C           1.0959   -0.5489   -2.6917 C.3     1  UNL1        0.0123
     30 C          -0.3994   -0.3938   -2.4583 C.3     1  UNL1       -0.0358
     31 C          -0.9065   -1.8259   -2.5303 C.3     1  UNL1       -0.0358
     32 C           0.2492   -2.6849   -1.9899 C.3     1  UNL1        0.0123
     33 H           3.8779    1.3107   -0.0115 H       1  UNL1        0.1551
     34 H           3.4979    3.7248   -0.7541 H       1  UNL1        0.0637
     35 H           2.4796    5.8445   -0.1072 H       1  UNL1        0.0639
     36 H           0.7157    7.7879    2.7096 H       1  UNL1        0.0516
     37 H           0.3356    6.2783    3.4985 H       1  UNL1        0.0516
     38 H          -1.5983    7.9723    3.6253 H       1  UNL1        0.0829
     39 H          -2.1509    6.5853    2.6671 H       1  UNL1        0.0829
     40 H          -1.1788    9.1306    1.5969 H       1  UNL1        0.2015
     41 H          -2.7209    8.5340    1.5837 H       1  UNL1        0.2015
     42 H          -1.6868    8.2737   -0.5695 H       1  UNL1        0.0829
     43 H          -2.1606    6.7181    0.1756 H       1  UNL1        0.0829
     44 H           0.6784    7.9411    0.1379 H       1  UNL1        0.0516
     45 H           0.1418    6.5219   -0.7799 H       1  UNL1        0.0516
     46 H           0.8333    1.6397    1.8620 H       1  UNL1        0.0705
     47 H           4.3955   -0.8348    1.4155 H       1  UNL1        0.0693
     48 H           5.0453   -4.3301   -1.0444 H       1  UNL1        0.0686
     49 H           2.9993   -3.8336   -2.2865 H       1  UNL1        0.0638
     50 H           1.2868   -0.6737   -3.7641 H       1  UNL1        0.0464
     51 H           1.6747    0.3147   -2.3585 H       1  UNL1        0.0464
     52 H          -0.8655    0.2607   -3.2004 H       1  UNL1        0.0281
     53 H          -0.6133    0.0266   -1.4712 H       1  UNL1        0.0281
     54 H          -1.1197   -2.0900   -3.5726 H       1  UNL1        0.0281
     55 H          -1.8321   -1.9640   -1.9611 H       1  UNL1        0.0281
     56 H           0.3910   -3.5574   -2.6379 H       1  UNL1        0.0464
     57 H           0.0285   -3.0340   -0.9746 H       1  UNL1        0.0464
@<TRIPOS>UNITY_ATOM_ATTR
11 1
charge 1
15 1
charge 1
17 1
charge -1
22 1
charge 1
24 1
charge -1
@<TRIPOS>BOND
     1     1     2    2
     2     2     3   am
     3     3     4    1
     4     4     5   ar
     5     5     6   ar
     6     6     7   ar
     7     7     8    1
     8     8     9    1
     9     9    10    1
    10    10    11    1
    11    11    12    1
    12    12    13    1
    13     8    13    1
    14     7    14   ar
    15    14    15    1
    16    15    16    2
    17    15    17    1
    18    14    18   ar
    19     4    18   ar
    20     2    19    1
    21    19    20   ar
    22    20    21   ar
    23    21    22    1
    24    22    23    2
    25    22    24    1
    26    21    25   ar
    27    25    26   ar
    28    26    27   ar
    29    19    27   ar
    30    27    28    1
    31    28    29    1
    32    29    30    1
    33    30    31    1
    34    31    32    1
    35    28    32    1
    36     3    33    1
    37     5    34    1
    38     6    35    1
    39     9    36    1
    40     9    37    1
    41    10    38    1
    42    10    39    1
    43    11    40    1
    44    11    41    1
    45    12    42    1
    46    12    43    1
    47    13    44    1
    48    13    45    1
    49    18    46    1
    50    20    47    1
    51    25    48    1
    52    26    49    1
    53    29    50    1
    54    29    51    1
    55    30    52    1
    56    30    53    1
    57    31    54    1
    58    31    55    1
    59    32    56    1
    60    32    57    1
