REMARK  10 active torsions:
REMARK  status: ('A' for Active; 'I' for Inactive)
REMARK    1  A    between atoms: C_2  and  C_3 
REMARK       I    between atoms: C_2  and  N_10 
REMARK    2  A    between atoms: C_3  and  C_4 
REMARK    3  A    between atoms: N_10  and  N_11 
REMARK    4  A    between atoms: N_11  and  C_12 
REMARK    5  A    between atoms: C_12  and  N_14 
REMARK       I    between atoms: N_14  and  C_15 
REMARK    6  A    between atoms: C_15  and  C_17 
REMARK    7  A    between atoms: C_20  and  O_21 
REMARK    8  A    between atoms: O_21  and  C_22 
REMARK    9  A    between atoms: C_22  and  C_23 
REMARK   10  A    between atoms: C_23  and  C_24 
ROOT
ATOM      1  N   UNL d   1       6.539   1.305  -2.354  0.00  0.00    -0.298 N 
ATOM      2  C   UNL d   1       7.341   1.882  -3.360  0.00  0.00     0.257 C 
ATOM      3  O   UNL d   1       6.921   2.439  -4.378  0.00  0.00    -0.267 OA
ATOM      4  H   UNL d   1       7.026   0.915  -1.559  0.00  0.00     0.171 HD
ENDROOT
BRANCH   2   5
ATOM      5  C   UNL d   1       8.824   1.826  -3.271  0.00  0.00     0.033 A 
ATOM      6  C   UNL d   1       9.586   2.897  -3.767  0.00  0.00     0.020 A 
ATOM      7  C   UNL d   1      10.976   2.778  -3.922  0.00  0.00     0.039 A 
ATOM      8  C   UNL d   1      11.653   1.608  -3.538  0.00  0.00     0.086 A 
ATOM      9  C   UNL d   1      10.871   0.521  -3.079  0.00  0.00     0.045 A 
ATOM     10 BR   UNL d   1      11.452  -1.252  -2.654  0.00  0.00    -0.048 Br
ATOM     11  C   UNL d   1       9.473   0.643  -2.946  0.00  0.00     0.039 A 
BRANCH   8  12
ATOM     12  O   UNL d   1      13.020   1.741  -3.671  0.00  0.00    -0.349 OA
BRANCH  12  13
ATOM     13  C   UNL d   1      13.800   0.656  -3.193  0.00  0.00     0.180 C 
BRANCH  13  14
ATOM     14  C   UNL d   1      15.313   0.861  -3.282  0.00  0.00     0.065 C 
BRANCH  14  15
ATOM     15  C   UNL d   1      16.019  -0.384  -2.770  0.00  0.00    -0.056 A 
ATOM     16  C   UNL d   1      15.628  -1.667  -3.194  0.00  0.00     0.007 A 
ATOM     17  C   UNL d   1      16.127  -2.811  -2.573  0.00  0.00     0.001 A 
ATOM     18  C   UNL d   1      17.118  -2.693  -1.605  0.00  0.00     0.000 A 
ATOM     19  C   UNL d   1      17.576  -1.431  -1.230  0.00  0.00     0.001 A 
ATOM     20  C   UNL d   1      17.023  -0.281  -1.801  0.00  0.00     0.007 A 
ENDBRANCH  14  15
ENDBRANCH  13  14
ENDBRANCH  12  13
ENDBRANCH   8  12
ENDBRANCH   2   5
BRANCH   1  21
ATOM     21  C   UNL d   1       5.128   1.281  -2.325  0.00  0.00     0.193 C 
ATOM     22  S   UNL d   1       4.122   1.889  -3.536  0.00  0.00    -0.039 SA
BRANCH  21  23
ATOM     23  N   UNL d   1       4.568   0.687  -1.175  0.00  0.00    -0.273 N 
ATOM     24  H   UNL d   1       5.107   0.308  -0.406  0.00  0.00     0.189 HD
BRANCH  23  25
ATOM     25  N   UNL d   1       3.142   0.644  -1.079  0.00  0.00    -0.268 N 
ATOM     26  C   UNL d   1       2.353   0.133  -0.075  0.00  0.00     0.240 C 
ATOM     27  O   UNL d   1       1.128   0.190  -0.192  0.00  0.00    -0.272 OA
ATOM     28  H   UNL d   1       2.632   1.043  -1.871  0.00  0.00     0.190 HD
BRANCH  26  29
ATOM     29  C   UNL d   1       3.045  -0.467   1.125  0.00  0.00     0.143 C 
BRANCH  29  30
ATOM     30  C   UNL d   1       2.125  -1.014   2.194  0.00  0.00    -0.049 A 
ATOM     31  C   UNL d   1       1.367  -0.155   3.004  0.00  0.00     0.007 A 
ATOM     32  C   UNL d   1       0.637  -0.661   4.082  0.00  0.00     0.001 A 
ATOM     33  C   UNL d   1       0.590  -2.035   4.309  0.00  0.00     0.000 A 
ATOM     34  C   UNL d   1       1.293  -2.902   3.475  0.00  0.00     0.001 A 
ATOM     35  C   UNL d   1       2.061  -2.394   2.426  0.00  0.00     0.007 A 
ENDBRANCH  29  30
ENDBRANCH  26  29
ENDBRANCH  23  25
ENDBRANCH  21  23
ENDBRANCH   1  21
TORSDOF 10
