@<TRIPOS>MOLECULE
*****
 31 32 0 0 0
SMALL
GASTEIGER

@<TRIPOS>ATOM
      1 C           2.4891    1.1834   -0.0007 C.3     1  UNL1       -0.0396
      2 C           1.2470    0.3383    0.0044 C.ar    1  UNL1       -0.0470
      3 C           1.2985   -1.0578    0.0187 C.ar    1  UNL1       -0.0579
      4 C           0.1180   -1.8246    0.0012 C.ar    1  UNL1       -0.0458
      5 C          -1.1470   -1.2152   -0.0198 C.ar    1  UNL1        0.0795
      6 C          -2.4264   -2.0183   -0.0615 C.2     1  UNL1        0.2637
      7 O          -3.5075   -1.4247   -0.0785 O.2     1  UNL1       -0.2685
      8 N          -2.3482   -3.4082   -0.0858 N.am    1  UNL1       -0.2300
      9 N          -3.5326   -4.1933   -0.1897 N.am    1  UNL1       -0.2300
     10 C          -3.4329   -5.5783   -0.1331 C.2     1  UNL1        0.2632
     11 O          -2.3433   -6.1491   -0.0243 O.2     1  UNL1       -0.2686
     12 C          -4.6881   -6.3157   -0.1964 C.ar    1  UNL1        0.0757
     13 C          -5.8411   -6.1052   -1.0129 C.ar    1  UNL1       -0.0117
     14 C          -6.7303   -7.1152   -0.7189 C.ar    1  UNL1        0.0924
     15 O          -6.2114   -7.9374    0.2261 O.2     1  UNL1       -0.4703
     16 C          -4.9728   -7.4629    0.5245 C.ar    1  UNL1        0.1038
     17 C          -1.1827    0.1946   -0.0115 C.ar    1  UNL1        0.1292
     18 O          -2.3389    0.9328   -0.0051 O.3     1  UNL1       -0.5060
     19 C          -0.0056    0.9565   -0.0066 C.ar    1  UNL1       -0.0165
     20 H           3.4000    0.5758    0.0031 H       1  UNL1        0.0278
     21 H           2.5110    1.8283    0.8844 H       1  UNL1        0.0278
     22 H           2.5117    1.8137   -0.8966 H       1  UNL1        0.0278
     23 H           2.2602   -1.5687    0.0405 H       1  UNL1        0.0620
     24 H           0.2342   -2.9022    0.0037 H       1  UNL1        0.0626
     25 H          -1.4833   -3.9425   -0.0737 H       1  UNL1        0.1731
     26 H          -4.4208   -3.6986   -0.1455 H       1  UNL1        0.1731
     27 H          -5.9915   -5.3407   -1.7609 H       1  UNL1        0.0656
     28 H          -7.7132   -7.3851   -1.0847 H       1  UNL1        0.1029
     29 H          -4.4297   -8.0403    1.2616 H       1  UNL1        0.1037
     30 H          -3.1002    0.3147   -0.0002 H       1  UNL1        0.2922
     31 H          -0.0707    2.0437   -0.0121 H       1  UNL1        0.0657
@<TRIPOS>BOND
     1     1     2    1
     2     2     3   ar
     3     3     4   ar
     4     4     5   ar
     5     5     6    1
     6     6     7    2
     7     6     8   am
     8     8     9    1
     9     9    10   am
    10    10    11    2
    11    10    12    1
    12    12    13   ar
    13    13    14   ar
    14    14    15   ar
    15    15    16   ar
    16    12    16   ar
    17     5    17   ar
    18    17    18    1
    19    17    19   ar
    20     2    19   ar
    21     1    20    1
    22     1    21    1
    23     1    22    1
    24     3    23    1
    25     4    24    1
    26     8    25    1
    27     9    26    1
    28    13    27    1
    29    14    28    1
    30    16    29    1
    31    18    30    1
    32    19    31    1
