@<TRIPOS>MOLECULE
*****
 58 60 0 0 0
SMALL
GASTEIGER

@<TRIPOS>ATOM
      1 C           0.6772   -0.2390    0.2980 C.3     1  UNL1       -0.0307
      2 C           2.1837   -0.3954    0.3136 C.3     1  UNL1        0.0870
      3 O           2.8662   -0.0266    1.5191 O.3     1  UNL1       -0.4886
      4 C           4.2560    0.0574    1.5470 C.ar    1  UNL1        0.1623
      5 C           4.8217   -0.7039    2.5940 C.ar    1  UNL1       -0.0081
      6 C           6.1717   -0.5450    2.9826 C.ar    1  UNL1        0.0007
      7 C           6.6661   -1.1456    4.2698 C.3     1  UNL1       -0.0075
      8 N           8.0719   -0.7388    4.5725 N.4     1  UNL1        0.2314
      9 C           8.6061   -1.2740    5.8430 C.3     1  UNL1       -0.0175
     10 C          10.0570   -0.8204    6.0276 C.3     1  UNL1        0.0491
     11 N          10.6330   -1.4619    7.1827 N.pl3   1  UNL1       -0.3388
     12 C          11.8703   -1.0917    7.6799 C.ar    1  UNL1        0.0277
     13 C          12.6566   -2.0810    8.2827 C.ar    1  UNL1       -0.0344
     14 C          13.9051   -1.7792    8.8314 C.ar    1  UNL1        0.0173
     15 C          14.4043   -0.4769    8.7181 C.ar    1  UNL1        0.2733
     16 N          15.7674   -0.1856    9.1758 N.pl3   1  UNL1        0.0796
     17 O          16.4228   -1.1010    9.6651 O.2     1  UNL1        0.0414
     18 O          16.1835    0.9813    9.0095 O.co2   1  UNL1       -0.5760
     19 C          13.6368    0.5232    8.1182 C.ar    1  UNL1        0.0173
     20 C          12.3789    0.2092    7.5972 C.ar    1  UNL1       -0.0344
     21 C           7.0048    0.2762    2.2177 C.ar    1  UNL1       -0.0499
     22 C           6.4789    1.0297    1.1955 C.ar    1  UNL1       -0.0158
     23 C           5.1215    0.9710    0.8776 C.ar    1  UNL1        0.1624
     24 O           4.8983    1.9524   -0.0673 O.3     1  UNL1       -0.4837
     25 C           3.6571    1.7647   -0.6570 C.3     1  UNL1        0.1162
     26 C           3.2270    2.5974   -1.7917 C.ar    1  UNL1        0.0078
     27 C           3.2832    3.9685   -1.6609 C.ar    1  UNL1       -0.0511
     28 C           3.0121    4.7265   -2.7743 C.ar    1  UNL1       -0.0244
     29 C           2.6069    4.0703   -3.9277 C.ar    1  UNL1        0.1292
     30 CL          2.4198    4.9363   -5.3893 Cl      1  UNL1       -0.0620
     31 N           2.3788    2.7440   -4.0293 N.ar    1  UNL1       -0.2432
     32 C           2.6804    2.0250   -2.9422 C.ar    1  UNL1        0.0356
     33 H           0.3553   -0.1763   -0.7576 H       1  UNL1        0.0262
     34 H           0.3927    0.7212    0.7499 H       1  UNL1        0.0262
     35 H           0.1562   -1.0562    0.7793 H       1  UNL1        0.0262
     36 H           2.2518    0.3902   -0.3876 H       1  UNL1        0.0694
     37 H           2.6198   -1.2560   -0.1989 H       1  UNL1        0.0694
     38 H           4.1762   -1.3872    3.1496 H       1  UNL1        0.0660
     39 H           6.6418   -2.2379    4.2404 H       1  UNL1        0.0866
     40 H           6.0620   -0.7687    5.1035 H       1  UNL1        0.0866
     41 H           8.1115    0.2909    4.5899 H       1  UNL1        0.2017
     42 H           8.6689   -1.0553    3.7967 H       1  UNL1        0.2017
     43 H           8.5346   -2.3639    5.7886 H       1  UNL1        0.0829
     44 H           7.9712   -0.8974    6.6512 H       1  UNL1        0.0829
     45 H          10.0782    0.2736    6.0880 H       1  UNL1        0.0514
     46 H          10.6430   -1.1108    5.1456 H       1  UNL1        0.0514
     47 H          10.0484   -1.9657    7.8477 H       1  UNL1        0.1463
     48 H          12.3160   -3.1154    8.2930 H       1  UNL1        0.0638
     49 H          14.4720   -2.5648    9.3241 H       1  UNL1        0.0686
     50 H          13.9985    1.5482    8.0487 H       1  UNL1        0.0686
     51 H          11.8026    1.0154    7.1549 H       1  UNL1        0.0638
     52 H           8.0632    0.4194    2.4045 H       1  UNL1        0.0623
     53 H           7.1216    1.7316    0.6644 H       1  UNL1        0.0655
     54 H           2.9274    1.9914    0.1321 H       1  UNL1        0.0748
     55 H           3.7435    0.7639   -1.0969 H       1  UNL1        0.0748
     56 H           3.5708    4.4075   -0.7097 H       1  UNL1        0.0623
     57 H           3.1593    5.7950   -2.7395 H       1  UNL1        0.0648
     58 H           2.4789    0.9556   -3.0271 H       1  UNL1        0.0834
@<TRIPOS>UNITY_ATOM_ATTR
8 1
charge 1
16 1
charge 1
18 1
charge -1
@<TRIPOS>BOND
     1     1     2    1
     2     2     3    1
     3     3     4    1
     4     4     5   ar
     5     5     6   ar
     6     6     7    1
     7     7     8    1
     8     8     9    1
     9     9    10    1
    10    10    11    1
    11    11    12    1
    12    12    13   ar
    13    13    14   ar
    14    14    15   ar
    15    15    16    1
    16    16    17    2
    17    16    18    1
    18    15    19   ar
    19    19    20   ar
    20    12    20   ar
    21     6    21   ar
    22    21    22   ar
    23    22    23   ar
    24     4    23   ar
    25    23    24    1
    26    24    25    1
    27    25    26    1
    28    26    27   ar
    29    27    28   ar
    30    28    29   ar
    31    29    30    1
    32    29    31   ar
    33    31    32   ar
    34    26    32   ar
    35     1    33    1
    36     1    34    1
    37     1    35    1
    38     2    36    1
    39     2    37    1
    40     5    38    1
    41     7    39    1
    42     7    40    1
    43     8    41    1
    44     8    42    1
    45     9    43    1
    46     9    44    1
    47    10    45    1
    48    10    46    1
    49    11    47    1
    50    13    48    1
    51    14    49    1
    52    19    50    1
    53    20    51    1
    54    21    52    1
    55    22    53    1
    56    25    54    1
    57    25    55    1
    58    27    56    1
    59    28    57    1
    60    32    58    1
