@<TRIPOS>MOLECULE
*****
 42 43 0 0 0
SMALL
GASTEIGER

@<TRIPOS>ATOM
      1 C           2.9130   -0.0402    0.0050 C.3     1  UNL1       -0.0397
      2 C           1.4147   -0.0538    0.0019 C.ar    1  UNL1       -0.0487
      3 C           0.6792   -1.2283    0.0023 C.ar    1  UNL1       -0.0585
      4 C          -0.7149   -1.1660   -0.0008 C.ar    1  UNL1       -0.0568
      5 C          -1.4025    0.0732   -0.0029 C.ar    1  UNL1       -0.0292
      6 C          -2.9064    0.0258   -0.0017 C.3     1  UNL1       -0.0380
      7 C          -0.6595    1.2764   -0.0050 C.ar    1  UNL1        0.0366
      8 N          -1.2919    2.5636   -0.0106 N.am    1  UNL1       -0.2837
      9 C          -0.6241    3.7956   -0.0133 C.2     1  UNL1        0.2373
     10 O           0.6013    3.9491   -0.0350 O.2     1  UNL1       -0.2734
     11 C          -1.4924    5.0791    0.0101 C.3     1  UNL1        0.0972
     12 C          -2.3525    5.1070    1.2661 C.3     1  UNL1       -0.0381
     13 N          -0.5732    6.2445   -0.0331 N.am    1  UNL1       -0.3003
     14 C          -1.0060    7.5512   -0.0326 C.2     1  UNL1        0.2447
     15 O          -2.1945    7.8673   -0.0270 O.2     1  UNL1       -0.2702
     16 C           0.0204    8.6293    0.0013 C.ar    1  UNL1        0.0368
     17 C           1.1319    8.6098   -0.8476 C.ar    1  UNL1       -0.0483
     18 C           2.0393    9.6794   -0.8365 C.ar    1  UNL1       -0.0427
     19 C           1.8403   10.7610    0.0235 C.ar    1  UNL1        0.0410
     20 CL          2.9748   12.0558    0.0490 Cl      1  UNL1       -0.0835
     21 C           0.7268   10.7978    0.8595 C.ar    1  UNL1       -0.0427
     22 C          -0.1867    9.7363    0.8422 C.ar    1  UNL1       -0.0483
     23 C           0.7374    1.1696   -0.0001 C.ar    1  UNL1       -0.0373
     24 H           3.3232   -1.0528   -0.0037 H       1  UNL1        0.0278
     25 H           3.2799    0.4719    0.9013 H       1  UNL1        0.0278
     26 H           3.2843    0.4875   -0.8806 H       1  UNL1        0.0278
     27 H           1.1834   -2.1911    0.0057 H       1  UNL1        0.0620
     28 H          -1.2641   -2.1071   -0.0017 H       1  UNL1        0.0621
     29 H          -3.2790   -1.0073    0.0007 H       1  UNL1        0.0278
     30 H          -3.3038    0.5090   -0.8985 H       1  UNL1        0.0278
     31 H          -3.3028    0.5121    0.8941 H       1  UNL1        0.0278
     32 H          -2.3049    2.5621   -0.0110 H       1  UNL1        0.1549
     33 H          -2.1033    5.1125   -0.8980 H       1  UNL1        0.0592
     34 H          -1.7277    5.0530    2.1646 H       1  UNL1        0.0252
     35 H          -3.0547    4.2696    1.2887 H       1  UNL1        0.0252
     36 H          -2.9419    6.0250    1.3317 H       1  UNL1        0.0252
     37 H           0.4204    6.0214    0.0111 H       1  UNL1        0.1498
     38 H           1.2793    7.7927   -1.5478 H       1  UNL1        0.0625
     39 H           2.8936    9.6708   -1.5091 H       1  UNL1        0.0632
     40 H           0.5602   11.6487    1.5164 H       1  UNL1        0.0632
     41 H          -1.0650    9.7779    1.4841 H       1  UNL1        0.0625
     42 H           1.3745    2.0431    0.0030 H       1  UNL1        0.0639
@<TRIPOS>BOND
     1     1     2    1
     2     2     3   ar
     3     3     4   ar
     4     4     5   ar
     5     5     6    1
     6     5     7   ar
     7     7     8    1
     8     8     9   am
     9     9    10    2
    10     9    11    1
    11    11    12    1
    12    11    13    1
    13    13    14   am
    14    14    15    2
    15    14    16    1
    16    16    17   ar
    17    17    18   ar
    18    18    19   ar
    19    19    20    1
    20    19    21   ar
    21    21    22   ar
    22    16    22   ar
    23     7    23   ar
    24     2    23   ar
    25     1    24    1
    26     1    25    1
    27     1    26    1
    28     3    27    1
    29     4    28    1
    30     6    29    1
    31     6    30    1
    32     6    31    1
    33     8    32    1
    34    11    33    1
    35    12    34    1
    36    12    35    1
    37    12    36    1
    38    13    37    1
    39    17    38    1
    40    18    39    1
    41    21    40    1
    42    22    41    1
    43    23    42    1
