REMARK  3 active torsions:
REMARK  status: ('A' for Active; 'I' for Inactive)
REMARK       I    between atoms: N_1  and  C_2 
REMARK    1  A    between atoms: C_2  and  C_4 
REMARK    2  A    between atoms: C_7  and  C_8 
REMARK       I    between atoms: C_8  and  N_10 
REMARK    3  A    between atoms: N_10  and  C_11 
ROOT
ATOM      1  C   UNL d   1       3.268   0.826   0.924  0.00  0.00     0.031 A 
ATOM      2  C   UNL d   1       4.484   1.436   0.606  0.00  0.00     0.018 A 
ATOM      3  C   UNL d   1       5.264   2.010   1.623  0.00  0.00     0.018 A 
ATOM      4  C   UNL d   1       4.807   2.056   2.957  0.00  0.00     0.032 A 
ATOM      5  C   UNL d   1       3.584   1.448   3.258  0.00  0.00     0.018 A 
ATOM      6  C   UNL d   1       2.820   0.842   2.249  0.00  0.00     0.018 A 
ENDROOT
BRANCH   4   7
ATOM      7  C   UNL d   1       5.624   2.815   3.967  0.00  0.00     0.257 C 
ATOM      8  O   UNL d   1       6.680   3.318   3.588  0.00  0.00    -0.267 OA
ATOM      9  N   UNL d   1       5.153   2.908   5.274  0.00  0.00    -0.307 N 
ATOM     10  H   UNL d   1       4.500   2.229   5.630  0.00  0.00     0.170 HD
BRANCH   9  11
ATOM     11  C   UNL d   1       5.897   3.558   6.275  0.00  0.00     0.130 A 
ATOM     12  C   UNL d   1       6.460   4.809   6.038  0.00  0.00     0.052 A 
ATOM     13  C   UNL d   1       7.275   5.391   7.007  0.00  0.00     0.029 A 
ATOM     14  C   UNL d   1       7.517   4.699   8.182  0.00  0.00     0.051 A 
ATOM     15 CL   UNL d   1       8.584   5.338   9.366  0.00  0.00    -0.083 Cl
ATOM     16  C   UNL d   1       6.874   3.483   8.365  0.00  0.00     0.142 A 
ATOM     17  N   UNL d   1       6.029   2.916   7.456  0.00  0.00    -0.242 NA
ENDBRANCH   9  11
ENDBRANCH   4   7
BRANCH   1  18
ATOM     18  C   UNL d   1       2.540   0.028  -0.095  0.00  0.00     0.249 C 
ATOM     19  N   UNL d   1       1.177   0.007  -0.030  0.00  0.00    -0.366 N 
ATOM     20  H   UNL d   1       0.686  -0.572  -0.702  0.00  0.00     0.159 HD
ATOM     21  H   UNL d   1       0.629   0.598   0.579  0.00  0.00     0.159 HD
ATOM     22  O   UNL d   1       3.148  -0.626  -0.942  0.00  0.00    -0.268 OA
ENDBRANCH   1  18
TORSDOF 3
