REMARK  13 active torsions:
REMARK  status: ('A' for Active; 'I' for Inactive)
REMARK    1  A    between atoms: C_2  and  C_3 
REMARK    2  A    between atoms: C_3  and  C_4 
REMARK    3  A    between atoms: C_4  and  N_5 
REMARK       I    between atoms: N_5  and  C_6 
REMARK    4  A    between atoms: C_8  and  C_6 
REMARK    5  A    between atoms: C_8  and  N_18 
REMARK    6  A    between atoms: C_8  and  C_9 
REMARK    7  A    between atoms: C_10  and  O_11 
REMARK    8  A    between atoms: C_13  and  O_14 
REMARK    9  A    between atoms: C_16  and  O_17 
REMARK       I    between atoms: N_18  and  C_19 
REMARK   10  A    between atoms: N_18  and  C_25 
REMARK   11  A    between atoms: C_19  and  C_21 
REMARK   12  A    between atoms: C_21  and  C_22 
REMARK   13  A    between atoms: C_22  and  C_23 
ROOT
ATOM      1  C   UNL d   1       6.909  -3.192   3.125  0.00  0.00     0.218 C 
ENDROOT
BRANCH   1   2
ATOM      2  N   UNL d   1       8.527  -3.142   3.116  0.00  0.00    -0.330 N 
ATOM      3  C   UNL d   1       9.470  -2.559   2.167  0.00  0.00     0.221 C 
ATOM      4  O   UNL d   1      10.684  -2.675   2.322  0.00  0.00    -0.273 OA
BRANCH   3   5
ATOM      5  C   UNL d   1       8.999  -1.623   1.036  0.00  0.00     0.103 C 
BRANCH   5   6
ATOM      6  C   UNL d   1       9.877  -0.695   0.187  0.00  0.00     0.009 C 
BRANCH   6   7
ATOM      7  C   UNL d   1       9.029   0.269  -0.695  0.00  0.00    -0.004 C 
ATOM      8  C   UNL d   1       9.896   1.111  -1.593  0.00  0.00     0.005 C 
ENDBRANCH   6   7
ENDBRANCH   5   6
ENDBRANCH   3   5
BRANCH   2   9
ATOM      9  C   UNL d   1       9.206  -3.883   4.275  0.00  0.00     0.088 C 
ATOM     10  C   UNL d   1       8.882  -3.347   5.691  0.00  0.00     0.025 C 
ATOM     11  C   UNL d   1       9.431  -4.267   6.802  0.00  0.00     0.002 C 
ATOM     12  C   UNL d   1       8.961  -5.713   6.657  0.00  0.00     0.000 C 
ATOM     13  C   UNL d   1       9.394  -6.265   5.312  0.00  0.00     0.002 C 
ATOM     14  C   UNL d   1       8.879  -5.369   4.217  0.00  0.00     0.025 C 
ENDBRANCH   2   9
ENDBRANCH   1   2
BRANCH   1  15
ATOM     15  C   UNL d   1       6.174  -2.079   2.382  0.00  0.00     0.040 C 
ATOM     16  C   UNL d   1       6.691  -0.812   2.389  0.00  0.00     0.080 C 
ATOM     17  C   UNL d   1       6.472   0.009   1.273  0.00  0.00     0.073 C 
ATOM     18  C   UNL d   1       5.529  -0.312   0.316  0.00  0.00     0.071 C 
ATOM     19  C   UNL d   1       4.636  -1.294   0.638  0.00  0.00     0.073 C 
ATOM     20  C   UNL d   1       4.955  -2.154   1.694  0.00  0.00     0.080 C 
BRANCH  16  21
ATOM     21  O   UNL d   1       7.622  -0.426   3.325  0.00  0.00    -0.360 OA
ATOM     22  H   UNL d   1       8.129  -1.209   3.627  0.00  0.00     0.217 HD
ENDBRANCH  16  21
BRANCH  18  23
ATOM     23  O   UNL d   1       5.392   0.346  -0.863  0.00  0.00    -0.361 OA
ATOM     24  H   UNL d   1       6.187   0.877  -1.042  0.00  0.00     0.217 HD
ENDBRANCH  18  23
BRANCH  20  25
ATOM     25  O   UNL d   1       3.955  -2.960   2.141  0.00  0.00    -0.360 OA
ATOM     26  H   UNL d   1       3.116  -2.689   1.735  0.00  0.00     0.217 HD
ENDBRANCH  20  25
ENDBRANCH   1  15
BRANCH   1  27
ATOM     27  C   UNL d   1       6.132  -4.570   3.041  0.00  0.00     0.245 C 
ATOM     28  N   UNL d   1       6.686  -5.661   2.385  0.00  0.00    -0.359 N 
ATOM     29  H   UNL d   1       7.670  -5.708   2.179  0.00  0.00     0.162 HD
ATOM     30  O   UNL d   1       5.036  -4.697   3.562  0.00  0.00    -0.271 OA
BRANCH  28  31
ATOM     31  C   UNL d   1       5.917  -6.888   2.423  0.00  0.00     0.122 C 
BRANCH  31  32
ATOM     32  C   UNL d   1       6.717  -8.153   2.166  0.00  0.00     0.019 C 
BRANCH  32  33
ATOM     33  C   UNL d   1       5.743  -9.316   1.971  0.00  0.00    -0.003 C 
ATOM     34  C   UNL d   1       6.476 -10.604   1.655  0.00  0.00     0.005 C 
ENDBRANCH  32  33
ENDBRANCH  31  32
ENDBRANCH  28  31
ENDBRANCH   1  27
TORSDOF 13
