@<TRIPOS>MOLECULE
*****
 49 50 0 0 0
SMALL
GASTEIGER

@<TRIPOS>ATOM
      1 C           1.0397   -0.0553   -0.0731 C.2     1  UNL1       -0.1012
      2 C           2.3823   -0.0525   -0.0397 C.2     1  UNL1       -0.0742
      3 C           3.1538    0.0166    1.2460 C.3     1  UNL1        0.0300
      4 N           4.5853    0.0031    1.0105 N.am    1  UNL1       -0.3078
      5 C           5.4659   -0.0061    2.0803 C.2     1  UNL1        0.2443
      6 O           5.0963   -0.0041    3.2565 O.2     1  UNL1       -0.2702
      7 C           6.9282    0.0093    1.7802 C.ar    1  UNL1        0.0368
      8 C           7.8525   -0.6888    2.5752 C.ar    1  UNL1       -0.0479
      9 C           9.2526   -0.5441    2.3723 C.ar    1  UNL1       -0.0397
     10 C           9.7471    0.2612    1.3323 C.ar    1  UNL1        0.0348
     11 N          11.1543    0.3350    1.0373 N.am    1  UNL1       -0.2695
     12 C          11.6935    1.0377   -0.0330 C.2     1  UNL1        0.3039
     13 O          11.0601    1.7210   -0.8353 O.2     1  UNL1       -0.2525
     14 N          13.0597    0.9444   -0.1958 N.am    1  UNL1       -0.2977
     15 C          13.6748    1.7009   -1.3032 C.3     1  UNL1        0.0285
     16 C          15.1979    1.5494   -1.4253 C.3     1  UNL1        0.0247
     17 N          15.7791    2.4163   -2.4504 N.pl3   1  UNL1       -0.3423
     18 C          17.1066    2.3195   -2.8423 C.ar    1  UNL1        0.0276
     19 C          17.7922    3.4816   -3.2310 C.ar    1  UNL1       -0.0344
     20 C          19.1326    3.4411   -3.6430 C.ar    1  UNL1        0.0173
     21 C          19.8244    2.2275   -3.6083 C.ar    1  UNL1        0.2733
     22 N          21.2619    2.1907   -3.9093 N.pl3   1  UNL1        0.0796
     23 O          21.8170    3.2572   -4.2096 O.2     1  UNL1        0.0414
     24 O          21.8416    1.0981   -3.8220 O.co2   1  UNL1       -0.5760
     25 C          19.1648    1.0564   -3.2276 C.ar    1  UNL1        0.0173
     26 C          17.8186    1.1140   -2.8427 C.ar    1  UNL1       -0.0344
     27 C           8.7970    0.9660    0.5820 C.ar    1  UNL1       -0.0397
     28 C           7.4165    0.8441    0.7861 C.ar    1  UNL1       -0.0479
     29 H           0.4944   -0.1086   -1.0116 H       1  UNL1        0.0532
     30 H           0.4472   -0.0047    0.8372 H       1  UNL1        0.0532
     31 H           2.9148   -0.1060   -0.9846 H       1  UNL1        0.0582
     32 H           2.9044   -0.8398    1.8821 H       1  UNL1        0.0506
     33 H           2.9089    0.9398    1.7834 H       1  UNL1        0.0506
     34 H           4.9381   -0.0706    0.0660 H       1  UNL1        0.1493
     35 H           7.4823   -1.3475    3.3612 H       1  UNL1        0.0626
     36 H           9.9219   -1.0611    3.0577 H       1  UNL1        0.0636
     37 H          11.7723   -0.2287    1.6046 H       1  UNL1        0.1564
     38 H          13.6309    0.3821    0.4162 H       1  UNL1        0.1503
     39 H          13.4129    2.7592   -1.1717 H       1  UNL1        0.0478
     40 H          13.1972    1.3788   -2.2393 H       1  UNL1        0.0478
     41 H          15.4179    0.4951   -1.6148 H       1  UNL1        0.0476
     42 H          15.6525    1.8236   -0.4677 H       1  UNL1        0.0476
     43 H          15.1591    2.9133   -3.0860 H       1  UNL1        0.1461
     44 H          17.2947    4.4483   -3.1698 H       1  UNL1        0.0638
     45 H          19.6181    4.3587   -3.9689 H       1  UNL1        0.0686
     46 H          19.6748    0.0954   -3.2220 H       1  UNL1        0.0686
     47 H          17.3308    0.1843   -2.5670 H       1  UNL1        0.0638
     48 H           9.0866    1.6683   -0.1879 H       1  UNL1        0.0636
     49 H           6.7526    1.4513    0.1795 H       1  UNL1        0.0626
@<TRIPOS>UNITY_ATOM_ATTR
22 1
charge 1
24 1
charge -1
@<TRIPOS>BOND
     1     1     2    2
     2     2     3    1
     3     3     4    1
     4     4     5   am
     5     5     6    2
     6     5     7    1
     7     7     8   ar
     8     8     9   ar
     9     9    10   ar
    10    10    11    1
    11    11    12   am
    12    12    13    2
    13    12    14   am
    14    14    15    1
    15    15    16    1
    16    16    17    1
    17    17    18    1
    18    18    19   ar
    19    19    20   ar
    20    20    21   ar
    21    21    22    1
    22    22    23    2
    23    22    24    1
    24    21    25   ar
    25    25    26   ar
    26    18    26   ar
    27    10    27   ar
    28    27    28   ar
    29     7    28   ar
    30     1    29    1
    31     1    30    1
    32     2    31    1
    33     3    32    1
    34     3    33    1
    35     4    34    1
    36     8    35    1
    37     9    36    1
    38    11    37    1
    39    14    38    1
    40    15    39    1
    41    15    40    1
    42    16    41    1
    43    16    42    1
    44    17    43    1
    45    19    44    1
    46    20    45    1
    47    25    46    1
    48    26    47    1
    49    27    48    1
    50    28    49    1
