REMARK  16 active torsions:
REMARK  status: ('A' for Active; 'I' for Inactive)
REMARK       I    between atoms: C_2  and  N_3 
REMARK    1  A    between atoms: C_2  and  O_32 
REMARK    2  A    between atoms: N_3  and  C_4 
REMARK    3  A    between atoms: C_4  and  C_5 
REMARK    4  A    between atoms: C_5  and  C_6 
REMARK    5  A    between atoms: C_6  and  C_7 
REMARK    6  A    between atoms: C_8  and  C_7 
REMARK    7  A    between atoms: C_8  and  C_20 
REMARK    8  A    between atoms: C_8  and  N_9 
REMARK       I    between atoms: N_9  and  C_10 
REMARK    9  A    between atoms: C_10  and  O_12 
REMARK   10  A    between atoms: O_12  and  C_13 
REMARK   11  A    between atoms: C_13  and  C_14 
REMARK   12  A    between atoms: C_20  and  O_22 
REMARK   13  A    between atoms: O_22  and  C_23 
REMARK   14  A    between atoms: C_26  and  N_27 
REMARK   15  A    between atoms: O_32  and  C_33 
REMARK   16  A    between atoms: C_33  and  C_34 
ROOT
ATOM      1  C   UNL d   1       2.860  -2.210   7.150  0.00  0.00     0.187 C 
ENDROOT
BRANCH   1   2
ATOM      2  C   UNL d   1       3.928  -2.507   8.238  0.00  0.00     0.287 C 
ATOM      3  O   UNL d   1       5.128  -2.340   8.046  0.00  0.00    -0.263 OA
BRANCH   2   4
ATOM      4  O   UNL d   1       3.365  -2.911   9.471  0.00  0.00    -0.277 OA
BRANCH   4   5
ATOM      5  C   UNL d   1       4.219  -3.122  10.596  0.00  0.00     0.079 A 
ATOM      6  C   UNL d   1       3.944  -4.177  11.477  0.00  0.00     0.040 A 
ATOM      7  C   UNL d   1       4.739  -4.363  12.626  0.00  0.00     0.039 A 
ATOM      8  C   UNL d   1       5.856  -3.541  12.842  0.00  0.00     0.103 A 
ATOM      9  C   UNL d   1       6.117  -2.476  11.975  0.00  0.00     0.039 A 
ATOM     10  C   UNL d   1       5.282  -2.256  10.873  0.00  0.00     0.040 A 
BRANCH   8  11
ATOM     11  N   UNL d   1       6.790  -3.827  13.944  0.00  0.00    -0.116 N 
ATOM     12  O   UNL d   1       6.535  -4.788  14.683  0.00  0.00    -0.532 OA
ATOM     13  O   UNL d   1       7.790  -3.102  14.057  0.00  0.00    -0.532 OA
ENDBRANCH   8  11
ENDBRANCH   4   5
ENDBRANCH   2   4
ENDBRANCH   1   2
BRANCH   1  14
ATOM     14  N   UNL d   1       3.500  -1.773   5.840  0.00  0.00    -0.323 N 
ATOM     15  C   UNL d   1       3.802  -2.580   4.767  0.00  0.00     0.361 C 
ATOM     16  O   UNL d   1       3.708  -3.806   4.774  0.00  0.00    -0.238 OA
ATOM     17  H   UNL d   1       4.077  -0.936   5.880  0.00  0.00     0.165 HD
BRANCH  15  18
ATOM     18  O   UNL d   1       4.112  -1.944   3.612  0.00  0.00    -0.299 OA
BRANCH  18  19
ATOM     19  C   UNL d   1       3.946  -2.869   2.493  0.00  0.00     0.219 C 
BRANCH  19  20
ATOM     20  C   UNL d   1       4.697  -2.364   1.309  0.00  0.00    -0.034 C 
ATOM     21  C   UNL d   1       5.616  -3.171   0.624  0.00  0.00     0.009 C 
ATOM     22  C   UNL d   1       6.467  -2.583  -0.303  0.00  0.00     0.001 C 
ATOM     23  C   UNL d   1       6.315  -1.233  -0.623  0.00  0.00     0.000 C 
ATOM     24  C   UNL d   1       5.337  -0.458  -0.002  0.00  0.00     0.001 C 
ATOM     25  C   UNL d   1       4.522  -1.027   0.957  0.00  0.00     0.009 C 
ENDBRANCH  19  20
ENDBRANCH  18  19
ENDBRANCH  15  18
ENDBRANCH   1  14
BRANCH   1  26
ATOM     26  C   UNL d   1       1.790  -3.350   7.098  0.00  0.00     0.035 C 
BRANCH  26  27
ATOM     27  C   UNL d   1       1.378  -3.768   5.706  0.00  0.00     0.004 C 
BRANCH  27  28
ATOM     28  C   UNL d   1       0.120  -4.510   5.406  0.00  0.00     0.020 C 
BRANCH  28  29
ATOM     29  C   UNL d   1       0.074  -4.767   3.888  0.00  0.00     0.125 C 
BRANCH  29  30
ATOM     30  N   UNL d   1      -1.120  -5.511   3.585  0.00  0.00    -0.337 N 
ATOM     31  C   UNL d   1      -1.454  -5.870   2.307  0.00  0.00     0.360 C 
ATOM     32  O   UNL d   1      -0.761  -5.590   1.336  0.00  0.00    -0.239 OA
ATOM     33  H   UNL d   1      -1.691  -5.773   4.367  0.00  0.00     0.164 HD
BRANCH  31  34
ATOM     34  O   UNL d   1      -2.616  -6.564   2.163  0.00  0.00    -0.299 OA
BRANCH  34  35
ATOM     35  C   UNL d   1      -3.450  -6.901   3.280  0.00  0.00     0.219 C 
BRANCH  35  36
ATOM     36  C   UNL d   1      -4.646  -7.688   2.809  0.00  0.00    -0.034 A 
ATOM     37  C   UNL d   1      -5.935  -7.136   2.824  0.00  0.00     0.009 A 
ATOM     38  C   UNL d   1      -7.044  -7.925   2.504  0.00  0.00     0.001 A 
ATOM     39  C   UNL d   1      -6.867  -9.238   2.072  0.00  0.00     0.000 A 
ATOM     40  C   UNL d   1      -5.588  -9.784   2.019  0.00  0.00     0.001 A 
ATOM     41  C   UNL d   1      -4.484  -9.017   2.393  0.00  0.00     0.009 A 
ENDBRANCH  35  36
ENDBRANCH  34  35
ENDBRANCH  31  34
ENDBRANCH  29  30
ENDBRANCH  28  29
ENDBRANCH  27  28
ENDBRANCH  26  27
ENDBRANCH   1  26
TORSDOF 16
