@<TRIPOS>MOLECULE
*****
 65 70 0 0 0
SMALL
GASTEIGER

@<TRIPOS>ATOM
      1 C           1.0445   -0.0949   -0.0874 C.3     1  UNL1       -0.0570
      2 C           2.5685   -0.0511   -0.0348 C.3     1  UNL1        0.0215
      3 C           3.0077    0.9757    0.9856 C.2     1  UNL1        0.2169
      4 O           2.1857    1.6555    1.6009 O.2     1  UNL1       -0.2755
      5 N           4.3845    1.1070    1.1342 N.am    1  UNL1       -0.2855
      6 C           4.8779    2.0830    2.0182 C.ar    1  UNL1        0.0338
      7 C           5.8512    2.9797    1.6118 C.ar    1  UNL1       -0.0387
      8 C           6.1767    4.0453    2.4497 C.ar    1  UNL1       -0.0386
      9 C           5.5527    4.2333    3.6980 C.ar    1  UNL1        0.0337
     10 C           4.6762    3.2301    4.1485 C.ar    1  UNL1       -0.0231
     11 C           4.3344    2.1832    3.2974 C.ar    1  UNL1       -0.0355
     12 C           4.0322    3.2481    5.5133 C.3     1  UNL1       -0.0015
     13 C           4.7503    4.2014    6.4597 C.3     1  UNL1        0.1505
     14 C           3.8316    4.4963    7.6352 C.2     1  UNL1        0.2378
     15 O           2.7653    5.0949    7.4860 O.2     1  UNL1       -0.2741
     16 N           4.2753    4.2170    8.8913 N.am    1  UNL1       -0.2389
     17 C           5.4947    3.7120    9.2467 C.2     1  UNL1        0.3122
     18 O           5.8166    3.5507   10.3905 O.2     1  UNL1       -0.2520
     19 N           6.3346    3.4383    8.2099 N.am    1  UNL1       -0.2389
     20 C           6.0987    3.6074    6.8837 C.2     1  UNL1        0.2378
     21 O           7.0141    3.3080    6.1193 O.2     1  UNL1       -0.2741
     22 C           4.9111    5.5181    5.6591 C.3     1  UNL1        0.0862
     23 C           5.3872    6.6230    6.5983 C.3     1  UNL1       -0.0111
     24 N           5.8515    7.8418    5.8423 N.4     1  UNL1        0.2410
     25 C           6.4982    8.7784    6.7466 C.3     1  UNL1       -0.0057
     26 C           7.7359    8.2794    7.4190 C.ar    1  UNL1        0.0008
     27 C           8.4243    7.0317    7.3926 C.ar    1  UNL1       -0.0499
     28 C           9.5207    6.8309    8.2476 C.ar    1  UNL1       -0.0157
     29 C           9.6766    7.7973    9.2168 C.ar    1  UNL1        0.1663
     30 C           8.6394    8.6360    9.4512 C.ar    1  UNL1        0.1667
     31 C           8.0942    9.1847    8.3636 C.ar    1  UNL1       -0.0079
     32 O           8.7230    9.3320   10.6026 O.3     1  UNL1       -0.4526
     33 C          10.1185    9.5304   10.4634 C.3     1  UNL1        0.2332
     34 O          10.7314    8.2869    9.9463 O.3     1  UNL1       -0.4526
     35 C           6.7569    7.6186    4.6627 C.3     1  UNL1       -0.0154
     36 C           6.1819    6.5689    3.7487 C.3     1  UNL1        0.0528
     37 N           5.8347    5.3556    4.5025 N.pl3   1  UNL1       -0.3150
     38 H           0.6912   -0.8391   -0.8044 H       1  UNL1        0.0234
     39 H           0.6368    0.8813   -0.3768 H       1  UNL1        0.0234
     40 H           0.6289   -0.3410    0.8972 H       1  UNL1        0.0234
     41 H           2.9657    0.2177   -1.0190 H       1  UNL1        0.0356
     42 H           2.9587   -1.0325    0.2521 H       1  UNL1        0.0356
     43 H           4.9907    0.7806    0.3923 H       1  UNL1        0.1548
     44 H           6.3043    2.9381    0.6269 H       1  UNL1        0.0637
     45 H           6.9278    4.7308    2.0740 H       1  UNL1        0.0637
     46 H           3.6158    1.4394    3.6341 H       1  UNL1        0.0639
     47 H           4.0215    2.2386    5.9419 H       1  UNL1        0.0329
     48 H           2.9839    3.5517    5.3781 H       1  UNL1        0.0329
     49 H           3.6680    4.4463    9.6702 H       1  UNL1        0.1591
     50 H           7.2335    3.0408    8.4562 H       1  UNL1        0.1591
     51 H           3.9411    5.8549    5.2622 H       1  UNL1        0.0568
     52 H           6.1833    6.2405    7.2314 H       1  UNL1        0.0833
     53 H           4.6018    6.9649    7.2840 H       1  UNL1        0.0833
     54 H           5.0009    8.2884    5.4807 H       1  UNL1        0.2038
     55 H           6.6927    9.7085    6.1989 H       1  UNL1        0.0867
     56 H           5.7549    9.0118    7.5258 H       1  UNL1        0.0867
     57 H           8.1623    6.2140    6.7193 H       1  UNL1        0.0623
     58 H          10.1315    5.9373    8.1327 H       1  UNL1        0.0655
     59 H           7.8229   10.2294    8.3606 H       1  UNL1        0.0660
     60 H          10.5157    9.8704   11.4171 H       1  UNL1        0.1166
     61 H          10.1946   10.3777    9.7487 H       1  UNL1        0.1166
     62 H           7.7458    7.3035    5.0000 H       1  UNL1        0.0830
     63 H           6.8742    8.5803    4.1522 H       1  UNL1        0.0830
     64 H           6.9776    6.4057    3.0196 H       1  UNL1        0.0517
     65 H           5.2974    6.9595    3.2386 H       1  UNL1        0.0517
@<TRIPOS>UNITY_ATOM_ATTR
24 1
charge 1
@<TRIPOS>BOND
     1     1     2    1
     2     2     3    1
     3     3     4    2
     4     3     5   am
     5     5     6    1
     6     6     7   ar
     7     7     8   ar
     8     8     9   ar
     9     9    10   ar
    10    10    11   ar
    11     6    11   ar
    12    10    12    1
    13    12    13    1
    14    13    14    1
    15    14    15    2
    16    14    16   am
    17    16    17   am
    18    17    18    2
    19    17    19   am
    20    19    20   am
    21    13    20    1
    22    20    21    2
    23    13    22    1
    24    22    23    1
    25    23    24    1
    26    25    26    1
    27    26    27   ar
    28    27    28   ar
    29    28    29   ar
    30    29    30   ar
    31    30    31   ar
    32    26    31   ar
    33    30    32    1
    34    32    33    1
    35    33    34    1
    36    29    34    1
    37    24    35    1
    38    35    36    1
    39    36    37    1
    40     9    37    1
    41    22    37    1
    42    24    25    1
    43     1    38    1
    44     1    39    1
    45     1    40    1
    46     2    41    1
    47     2    42    1
    48     5    43    1
    49     7    44    1
    50     8    45    1
    51    11    46    1
    52    12    47    1
    53    12    48    1
    54    16    49    1
    55    19    50    1
    56    22    51    1
    57    23    52    1
    58    23    53    1
    59    24    54    1
    60    25    55    1
    61    25    56    1
    62    27    57    1
    63    28    58    1
    64    31    59    1
    65    33    60    1
    66    33    61    1
    67    35    62    1
    68    35    63    1
    69    36    64    1
    70    36    65    1
