REMARK  5 active torsions:
REMARK  status: ('A' for Active; 'I' for Inactive)
REMARK       I    between atoms: C_2  and  N_3 
REMARK    1  A    between atoms: C_2  and  C_10 
REMARK    2  A    between atoms: N_3  and  C_4 
REMARK    3  A    between atoms: C_15  and  N_16 
REMARK    4  A    between atoms: N_16  and  C_17 
REMARK    5  A    between atoms: C_21  and  C_22 
ROOT
ATOM      1  C   UNL d   1       3.086   0.673  -1.023  0.00  0.00     0.078 A 
ATOM      2  C   UNL d   1       2.676   1.909  -1.551  0.00  0.00     0.022 A 
ATOM      3  C   UNL d   1       3.298   2.448  -2.669  0.00  0.00     0.020 A 
ATOM      4  C   UNL d   1       4.304   1.711  -3.256  0.00  0.00     0.119 A 
ATOM      5  N   UNL d   1       4.705   0.496  -2.805  0.00  0.00    -0.242 NA
ATOM      6  C   UNL d   1       4.092  -0.031  -1.704  0.00  0.00     0.143 A 
ENDROOT
BRANCH   6   7
ATOM      7  N   UNL d   1       4.587  -1.279  -1.316  0.00  0.00    -0.340 N 
ATOM      8  H   UNL d   1       5.270  -1.629  -1.983  0.00  0.00     0.167 HD
BRANCH   7   9
ATOM      9  C   UNL d   1       3.982  -2.257  -0.519  0.00  0.00     0.034 A 
ATOM     10  C   UNL d   1       4.692  -2.782   0.560  0.00  0.00     0.029 A 
ATOM     11  C   UNL d   1       4.053  -3.641   1.454  0.00  0.00     0.003 A 
ATOM     12  C   UNL d   1       2.702  -3.998   1.259  0.00  0.00     0.016 A 
ATOM     13  C   UNL d   1       1.967  -3.502   0.161  0.00  0.00     0.050 A 
ATOM     14  C   UNL d   1       2.645  -2.639  -0.718  0.00  0.00     0.045 A 
BRANCH  13  15
ATOM     15  C   UNL d   1       0.477  -3.756  -0.099  0.00  0.00     0.417 C 
ATOM     16  F   UNL d   1       0.185  -5.079  -0.198  0.00  0.00    -0.166 F 
ATOM     17  F   UNL d   1      -0.419  -3.293   0.815  0.00  0.00    -0.166 F 
ATOM     18  F   UNL d   1       0.051  -3.182  -1.263  0.00  0.00    -0.166 F 
ENDBRANCH  13  15
ENDBRANCH   7   9
ENDBRANCH   6   7
BRANCH   1  19
ATOM     19  C   UNL d   1       2.267   0.178   0.117  0.00  0.00     0.261 C 
ATOM     20  O   UNL d   1       1.038   0.218  -0.081  0.00  0.00    -0.267 OA
ATOM     21  N   UNL d   1       2.860  -0.240   1.299  0.00  0.00    -0.307 N 
ATOM     22  H   UNL d   1       3.871  -0.246   1.375  0.00  0.00     0.170 HD
BRANCH  21  23
ATOM     23  C   UNL d   1       2.204  -0.924   2.368  0.00  0.00     0.129 C 
ATOM     24  C   UNL d   1       0.972  -1.534   2.180  0.00  0.00     0.050 C 
ATOM     25  C   UNL d   1       0.486  -2.480   3.099  0.00  0.00     0.005 C 
ATOM     26  C   UNL d   1       1.124  -2.646   4.298  0.00  0.00     0.019 C 
ATOM     27  C   UNL d   1       2.273  -1.903   4.480  0.00  0.00     0.119 C 
ATOM     28  N   UNL d   1       2.871  -1.119   3.526  0.00  0.00    -0.243 NA
ENDBRANCH  21  23
ENDBRANCH   1  19
TORSDOF 5
