@<TRIPOS>MOLECULE
*****
 52 54 0 0 0
SMALL
GASTEIGER

@<TRIPOS>ATOM
      1 C           0.3546   -2.3719   -0.0066 C.3     1  UNL1       -0.0385
      2 C           1.0360   -1.0345    0.0014 C.ar    1  UNL1       -0.0330
      3 C           2.4449   -1.0011   -0.0011 C.ar    1  UNL1       -0.0160
      4 C           3.1450    0.2000   -0.0005 C.ar    1  UNL1        0.1215
      5 O           4.5117    0.2928    0.0007 O.3     1  UNL1       -0.4828
      6 C           5.3290   -0.9114    0.0169 C.3     1  UNL1        0.1655
      7 C           6.8290   -0.4941    0.0286 C.2     1  UNL1        0.2561
      8 O           7.0842    0.7115    0.0279 O.2     1  UNL1       -0.2717
      9 N           7.8444   -1.4925    0.0388 N.am    1  UNL1       -0.2639
     10 C           9.2470   -1.2488    0.0491 C.2     1  UNL1        0.1531
     11 S           9.9644    0.2834    0.0519 S.2     1  UNL1       -0.0170
     12 N          10.0847   -2.3849    0.0540 N.am    1  UNL1       -0.2453
     13 N          11.5359   -2.1792    0.0803 N.am    1  UNL1       -0.2311
     14 C          12.4442   -3.2305    0.0124 C.2     1  UNL1        0.2601
     15 O          12.0993   -4.4067   -0.0492 O.2     1  UNL1       -0.2687
     16 C          13.9143   -2.8782    0.0496 C.ar    1  UNL1        0.0383
     17 C          14.8684   -3.6069   -0.6877 C.ar    1  UNL1       -0.0478
     18 C          16.2618   -3.3791   -0.5241 C.ar    1  UNL1       -0.0398
     19 C          16.7201   -2.3679    0.3312 C.ar    1  UNL1        0.0334
     20 N          18.1071   -2.0484    0.4108 N.am    1  UNL1       -0.2853
     21 C          18.6429   -0.9838    1.1286 C.2     1  UNL1        0.2203
     22 O          18.0300   -0.1959    1.8456 O.2     1  UNL1       -0.2752
     23 C          20.1164   -0.7866    1.0659 C.3     1  UNL1        0.0359
     24 C          20.9630   -1.1752   -0.1127 C.3     1  UNL1       -0.0412
     25 C          20.7079    0.2795    0.1617 C.3     1  UNL1       -0.0412
     26 C          15.7591   -1.6750    1.0719 C.ar    1  UNL1       -0.0398
     27 C          14.3829   -1.9116    0.9345 C.ar    1  UNL1       -0.0478
     28 C           2.4128    1.3987   -0.0029 C.ar    1  UNL1       -0.0189
     29 C           1.0077    1.3867    0.0032 C.ar    1  UNL1       -0.0441
     30 C           0.3222    0.1718    0.0053 C.ar    1  UNL1        0.0210
     31 BR         -1.5781    0.2105    0.0056 Br      1  UNL1       -0.0500
     32 H           1.0865   -3.1867   -0.0042 H       1  UNL1        0.0278
     33 H          -0.2539   -2.4822   -0.9090 H       1  UNL1        0.0278
     34 H          -0.2675   -2.4895    0.8854 H       1  UNL1        0.0278
     35 H           2.9804   -1.9420   -0.0069 H       1  UNL1        0.0657
     36 H           5.1248   -1.4924   -0.8880 H       1  UNL1        0.0795
     37 H           5.1078   -1.4821    0.9246 H       1  UNL1        0.0795
     38 H           7.5440   -2.4582    0.0403 H       1  UNL1        0.1566
     39 H           9.8000   -3.3627    0.0600 H       1  UNL1        0.1718
     40 H          11.8309   -1.2019    0.0548 H       1  UNL1        0.1731
     41 H          14.5351   -4.3591   -1.4014 H       1  UNL1        0.0626
     42 H          16.9613   -4.0128   -1.0690 H       1  UNL1        0.0636
     43 H          18.7426   -2.5950   -0.1581 H       1  UNL1        0.1548
     44 H          20.5607   -0.7988    2.0594 H       1  UNL1        0.0394
     45 H          20.4934   -1.5920   -0.9933 H       1  UNL1        0.0273
     46 H          21.9408   -1.5889    0.1057 H       1  UNL1        0.0273
     47 H          20.0499    0.8267   -0.5052 H       1  UNL1        0.0273
     48 H          21.5293    0.8837    0.5364 H       1  UNL1        0.0273
     49 H          16.0433   -0.9345    1.8100 H       1  UNL1        0.0636
     50 H          13.7116   -1.3429    1.5700 H       1  UNL1        0.0626
     51 H           2.9240    2.3603   -0.0108 H       1  UNL1        0.0654
     52 H           0.4556    2.3256    0.0044 H       1  UNL1        0.0630
@<TRIPOS>BOND
     1     1     2    1
     2     2     3   ar
     3     3     4   ar
     4     4     5    1
     5     5     6    1
     6     6     7    1
     7     7     8    2
     8     7     9   am
     9     9    10    1
    10    10    11    2
    11    10    12    1
    12    12    13    1
    13    13    14   am
    14    14    15    2
    15    14    16    1
    16    16    17   ar
    17    17    18   ar
    18    18    19   ar
    19    19    20    1
    20    20    21   am
    21    21    22    2
    22    21    23    1
    23    23    24    1
    24    24    25    1
    25    23    25    1
    26    19    26   ar
    27    26    27   ar
    28    16    27   ar
    29     4    28   ar
    30    28    29   ar
    31    29    30   ar
    32     2    30   ar
    33    30    31    1
    34     1    32    1
    35     1    33    1
    36     1    34    1
    37     3    35    1
    38     6    36    1
    39     6    37    1
    40     9    38    1
    41    12    39    1
    42    13    40    1
    43    17    41    1
    44    18    42    1
    45    20    43    1
    46    23    44    1
    47    24    45    1
    48    24    46    1
    49    25    47    1
    50    25    48    1
    51    26    49    1
    52    27    50    1
    53    28    51    1
    54    29    52    1
