@<TRIPOS>MOLECULE
*****
 42 44 0 0 0
SMALL
GASTEIGER

@<TRIPOS>ATOM
      1 C           1.0257   -0.0745   -0.0940 C.3     1  UNL1       -0.0222
      2 C           2.5432   -0.0913   -0.0933 C.ar    1  UNL1        0.0438
      3 C           3.1916    1.2514   -0.0937 C.ar    1  UNL1       -0.0194
      4 C           4.5336    1.2838   -0.0825 C.ar    1  UNL1        0.0453
      5 C           5.2618    2.5834   -0.0732 C.3     1  UNL1       -0.0221
      6 N           5.2513    0.0792   -0.0785 N.ar    1  UNL1       -0.2001
      7 N           6.6055   -0.1304   -0.0708 N.ar    1  UNL1       -0.1367
      8 C           6.6838   -1.4625   -0.0736 C.ar    1  UNL1        0.2113
      9 S           8.1761   -2.3809   -0.0694 S.3     1  UNL1       -0.0750
     10 C           9.6015   -1.2189   -0.0676 C.3     1  UNL1        0.0780
     11 C          10.9403   -2.0268   -0.0849 C.2     1  UNL1        0.2275
     12 O          10.9566   -3.2590   -0.0734 O.2     1  UNL1       -0.2746
     13 N          12.1338   -1.2808   -0.0669 N.am    1  UNL1       -0.2848
     14 C          13.4210   -1.9121   -0.0551 C.ar    1  UNL1        0.0335
     15 C          14.4482   -1.4418    0.7788 C.ar    1  UNL1       -0.0386
     16 C          15.6896   -2.1109    0.8394 C.ar    1  UNL1       -0.0336
     17 C          15.9288   -3.2200    0.0203 C.ar    1  UNL1        0.1051
     18 S          17.4812   -4.0866    0.1168 S.O2    1  UNL1        0.0559
     19 N          18.5652   -2.8860   -0.2935 N.3     1  UNL1       -0.2035
     20 O          17.7188   -4.4160    1.5062 O.2     1  UNL1       -0.1533
     21 O          17.5368   -5.0613   -0.9424 O.2     1  UNL1       -0.1533
     22 C          14.9358   -3.6661   -0.8491 C.ar    1  UNL1       -0.0336
     23 C          13.6908   -3.0185   -0.8734 C.ar    1  UNL1       -0.0386
     24 N           5.4708   -2.1118   -0.0808 N.ar    1  UNL1       -0.1835
     25 C           4.5719   -1.1491   -0.0839 C.ar    1  UNL1        0.2542
     26 N           3.1947   -1.2214   -0.0896 N.ar    1  UNL1       -0.2158
     27 H           0.6423    0.9534   -0.0951 H       1  UNL1        0.0293
     28 H           0.6420   -0.5712    0.8008 H       1  UNL1        0.0293
     29 H           0.6419   -0.5737   -0.9873 H       1  UNL1        0.0293
     30 H           2.5702    2.1376   -0.0998 H       1  UNL1        0.0653
     31 H           4.5576    3.4246   -0.0764 H       1  UNL1        0.0293
     32 H           5.8914    2.6807   -0.9614 H       1  UNL1        0.0293
     33 H           5.8755    2.6754    0.8269 H       1  UNL1        0.0293
     34 H           9.5701   -0.6009    0.8348 H       1  UNL1        0.0475
     35 H           9.5631   -0.5857   -0.9583 H       1  UNL1        0.0475
     36 H          12.0976   -0.3033    0.1932 H       1  UNL1        0.1548
     37 H          14.2821   -0.6093    1.4576 H       1  UNL1        0.0637
     38 H          16.4496   -1.7867    1.5486 H       1  UNL1        0.0638
     39 H          18.7778   -2.2054    0.4272 H       1  UNL1        0.1442
     40 H          18.5949   -2.6313   -1.2759 H       1  UNL1        0.1442
     41 H          15.1010   -4.5276   -1.4933 H       1  UNL1        0.0638
     42 H          12.9301   -3.3907   -1.5559 H       1  UNL1        0.0637
@<TRIPOS>BOND
     1     1     2    1
     2     2     3   ar
     3     3     4   ar
     4     4     5    1
     5     4     6   ar
     6     6     7   ar
     7     7     8   ar
     8     8     9    1
     9     9    10    1
    10    10    11    1
    11    11    12    2
    12    11    13   am
    13    13    14    1
    14    14    15   ar
    15    15    16   ar
    16    16    17   ar
    17    17    18    1
    18    18    19    1
    19    18    20    2
    20    18    21    2
    21    17    22   ar
    22    22    23   ar
    23    14    23   ar
    24     8    24   ar
    25    24    25   ar
    26     6    25   ar
    27    25    26   ar
    28     2    26   ar
    29     1    27    1
    30     1    28    1
    31     1    29    1
    32     3    30    1
    33     5    31    1
    34     5    32    1
    35     5    33    1
    36    10    34    1
    37    10    35    1
    38    13    36    1
    39    15    37    1
    40    16    38    1
    41    19    39    1
    42    19    40    1
    43    22    41    1
    44    23    42    1
