REMARK  3 active torsions:
REMARK  status: ('A' for Active; 'I' for Inactive)
REMARK    1  A    between atoms: C_2  and  C_5 
REMARK    2  A    between atoms: C_9  and  C_10 
REMARK       I    between atoms: C_10  and  N_12 
REMARK    3  A    between atoms: N_12  and  N_13 
ROOT
ATOM      1  C   UNL d   1       2.966  -1.197   0.835  0.00  0.00    -0.049 A 
ATOM      2  C   UNL d   1       2.549  -2.410   0.320  0.00  0.00     0.009 A 
ATOM      3  C   UNL d   1       2.822  -3.593   0.966  0.00  0.00     0.014 A 
ATOM      4  C   UNL d   1       3.542  -3.650   2.177  0.00  0.00    -0.003 A 
ATOM      5  C   UNL d   1       3.907  -4.767   3.035  0.00  0.00     0.051 A 
ATOM      6  C   UNL d   1       4.651  -4.312   4.114  0.00  0.00     0.068 A 
ATOM      7  S   UNL d   1       4.896  -2.627   4.126  0.00  0.00    -0.100 SA
ATOM      8  C   UNL d   1       4.007  -2.423   2.671  0.00  0.00     0.016 A 
ATOM      9  C   UNL d   1       3.738  -1.200   2.010  0.00  0.00     0.027 A 
ENDROOT
BRANCH   5  10
ATOM     10  C   UNL d   1       3.607  -6.206   2.878  0.00  0.00     0.267 C 
ATOM     11  O   UNL d   1       4.013  -7.047   3.687  0.00  0.00    -0.266 OA
ATOM     12  N   UNL d   1       2.857  -6.587   1.769  0.00  0.00    -0.290 N 
ATOM     13  H   UNL d   1       2.409  -5.903   1.194  0.00  0.00     0.183 HD
BRANCH  12  14
ATOM     14  N   UNL d   1       2.455  -7.913   1.534  0.00  0.00    -0.247 NA
ATOM     15  H   UNL d   1       2.892  -8.498   2.253  0.00  0.00     0.143 HD
ATOM     16  H   UNL d   1       2.858  -8.212   0.643  0.00  0.00     0.143 HD
ENDBRANCH  12  14
ENDBRANCH   5  10
BRANCH   1  17
ATOM     17  C   UNL d   1       2.501   0.053   0.101  0.00  0.00    -0.024 C 
ATOM     18  C   UNL d   1       0.954   0.061   0.096  0.00  0.00     0.019 C 
ATOM     19  C   UNL d   1       3.016   0.020  -1.354  0.00  0.00     0.019 C 
ATOM     20  C   UNL d   1       2.994   1.338   0.774  0.00  0.00     0.019 C 
ENDBRANCH   1  17
TORSDOF 3
