@<TRIPOS>MOLECULE
*****
 49 51 0 0 0
SMALL
GASTEIGER

@<TRIPOS>ATOM
      1 O           1.0637   -0.1400    0.1895 O.2     1  UNL1       -0.2758
      2 C           2.2939   -0.0857    0.1126 C.2     1  UNL1        0.2131
      3 C           3.0202    0.8544   -0.8286 C.3     1  UNL1        0.0254
      4 C           2.0473    1.6980   -1.6603 C.3     1  UNL1       -0.0292
      5 C           2.8082    2.6322   -2.5921 C.3     1  UNL1        0.0096
      6 N           1.9130    3.5319   -3.3035 N.pl3   1  UNL1       -0.3438
      7 C           2.3972    4.3286   -4.3314 C.ar    1  UNL1        0.0275
      8 C           1.9039    5.6306   -4.4958 C.ar    1  UNL1       -0.0344
      9 C           2.4193    6.4827   -5.4845 C.ar    1  UNL1        0.0173
     10 C           3.4764    6.0423   -6.2885 C.ar    1  UNL1        0.2733
     11 N           4.1398    6.9686   -7.2139 N.pl3   1  UNL1        0.0796
     12 O           3.7150    8.1306   -7.2729 O.2     1  UNL1        0.0414
     13 O           5.1059    6.5401   -7.8636 O.co2   1  UNL1       -0.5760
     14 C           3.9526    4.7365   -6.1694 C.ar    1  UNL1        0.0173
     15 C           3.4056    3.8937   -5.2003 C.ar    1  UNL1       -0.0344
     16 N           3.0464   -0.9037    0.9088 N.am    1  UNL1       -0.3149
     17 C           4.4965   -0.9990    0.9361 C.3     1  UNL1        0.0185
     18 C           5.0035   -2.1147    1.8448 C.3     1  UNL1        0.0230
     19 C           6.5020   -2.0340    1.9417 C.ar    1  UNL1        0.1336
     20 N           7.2577   -2.6221    1.0545 N.ar    1  UNL1       -0.1585
     21 N           8.5281   -2.3368    1.4497 N.ar    1  UNL1       -0.2543
     22 C           8.5136   -1.5640    2.6013 C.ar    1  UNL1        0.1758
     23 S           9.8915   -1.0666    3.3800 S.2     1  UNL1       -0.0114
     24 N           7.1765   -1.3439    2.8972 N.ar    1  UNL1       -0.3040
     25 C           6.6893   -0.5874    4.0189 C.3     1  UNL1        0.0381
     26 C           5.2744   -0.1260    4.2392 C.3     1  UNL1       -0.0301
     27 C           5.8317   -1.2556    5.0648 C.3     1  UNL1       -0.0301
     28 H           3.6554    0.2606   -1.4961 H       1  UNL1        0.0359
     29 H           3.6625    1.5148   -0.2343 H       1  UNL1        0.0359
     30 H           1.3929    2.2772   -0.9984 H       1  UNL1        0.0285
     31 H           1.3963    1.0393   -2.2496 H       1  UNL1        0.0285
     32 H           3.4066    2.0179   -3.2720 H       1  UNL1        0.0461
     33 H           3.4984    3.2500   -2.0056 H       1  UNL1        0.0461
     34 H           0.9118    3.3603   -3.2760 H       1  UNL1        0.1461
     35 H           1.1535    6.0170   -3.8077 H       1  UNL1        0.0638
     36 H           2.0077    7.4838   -5.5939 H       1  UNL1        0.0686
     37 H           4.7504    4.3579   -6.8035 H       1  UNL1        0.0686
     38 H           3.7849    2.8786   -5.1412 H       1  UNL1        0.0638
     39 H           2.4886   -1.4943    1.5171 H       1  UNL1        0.1487
     40 H           4.8836   -0.0172    1.2347 H       1  UNL1        0.0466
     41 H           4.8410   -1.1771   -0.0871 H       1  UNL1        0.0466
     42 H           4.7139   -3.0941    1.4527 H       1  UNL1        0.0359
     43 H           4.5433   -2.0933    2.8312 H       1  UNL1        0.0359
     44 H           9.3446   -2.6859    0.9601 H       1  UNL1        0.1910
     45 H           7.4253    0.1301    4.3819 H       1  UNL1        0.0529
     46 H           4.4974   -0.2992    3.5151 H       1  UNL1        0.0286
     47 H           5.1135    0.8399    4.7047 H       1  UNL1        0.0286
     48 H           5.5383   -2.2834    4.8756 H       1  UNL1        0.0286
     49 H           6.0376   -1.0651    6.1115 H       1  UNL1        0.0286
@<TRIPOS>UNITY_ATOM_ATTR
11 1
charge 1
13 1
charge -1
@<TRIPOS>BOND
     1     1     2    2
     2     2     3    1
     3     3     4    1
     4     4     5    1
     5     5     6    1
     6     6     7    1
     7     7     8   ar
     8     8     9   ar
     9     9    10   ar
    10    10    11    1
    11    11    12    2
    12    11    13    1
    13    10    14   ar
    14    14    15   ar
    15     7    15   ar
    16     2    16   am
    17    16    17    1
    18    17    18    1
    19    18    19    1
    20    19    20   ar
    21    20    21   ar
    22    21    22   ar
    23    22    23    2
    24    22    24   ar
    25    19    24   ar
    26    24    25    1
    27    25    26    1
    28    26    27    1
    29    25    27    1
    30     3    28    1
    31     3    29    1
    32     4    30    1
    33     4    31    1
    34     5    32    1
    35     5    33    1
    36     6    34    1
    37     8    35    1
    38     9    36    1
    39    14    37    1
    40    15    38    1
    41    16    39    1
    42    17    40    1
    43    17    41    1
    44    18    42    1
    45    18    43    1
    46    21    44    1
    47    25    45    1
    48    26    46    1
    49    26    47    1
    50    27    48    1
    51    27    49    1
