REMARK  4 active torsions:
REMARK  status: ('A' for Active; 'I' for Inactive)
REMARK    1  A    between atoms: N_1  and  N_2 
REMARK       I    between atoms: N_2  and  C_3 
REMARK    2  A    between atoms: C_3  and  C_5 
REMARK    3  A    between atoms: C_5  and  C_6 
REMARK    4  A    between atoms: C_6  and  N_7 
ROOT
ATOM      1  N   UNL d   1       6.636   1.887   1.913  0.00  0.00    -0.345 N 
ATOM      2  C   UNL d   1       7.409   1.087   2.731  0.00  0.00     0.046 A 
ATOM      3  C   UNL d   1       7.036   0.132   3.690  0.00  0.00     0.032 A 
ATOM      4  C   UNL d   1       8.047  -0.547   4.371  0.00  0.00     0.026 A 
ATOM      5  C   UNL d   1       9.384  -0.277   4.103  0.00  0.00     0.035 A 
ATOM      6 CL   UNL d   1      10.605  -1.138   4.961  0.00  0.00    -0.084 Cl
ATOM      7  C   UNL d   1       9.753   0.678   3.150  0.00  0.00     0.038 A 
ATOM      8  C   UNL d   1       8.746   1.377   2.447  0.00  0.00     0.005 A 
ATOM      9  C   UNL d   1       8.761   2.390   1.434  0.00  0.00     0.005 A 
ATOM     10  C   UNL d   1       9.792   3.076   0.752  0.00  0.00     0.038 A 
ATOM     11  C   UNL d   1       9.455   4.035  -0.208  0.00  0.00     0.035 A 
ATOM     12 CL   UNL d   1      10.703   4.875  -1.048  0.00  0.00    -0.084 Cl
ATOM     13  C   UNL d   1       8.127   4.324  -0.500  0.00  0.00     0.026 A 
ATOM     14  C   UNL d   1       7.092   3.658   0.161  0.00  0.00     0.032 A 
ATOM     15  C   UNL d   1       7.432   2.693   1.123  0.00  0.00     0.046 A 
ENDROOT
BRANCH   1  16
ATOM     16  C   UNL d   1       5.179   1.879   1.894  0.00  0.00     0.139 C 
BRANCH  16  17
ATOM     17  C   UNL d   1       4.610   0.844   0.923  0.00  0.00     0.124 C 
BRANCH  17  18
ATOM     18  C   UNL d   1       3.096   0.894   0.951  0.00  0.00     0.233 C 
ATOM     19  N   UNL d   1       2.477   0.001   0.082  0.00  0.00    -0.294 N 
ATOM     20  H   UNL d   1       3.022  -0.677  -0.447  0.00  0.00     0.183 HD
ATOM     21  O   UNL d   1       2.480   1.685   1.667  0.00  0.00    -0.272 OA
BRANCH  19  22
ATOM     22  N   UNL d   1       1.068  -0.093   0.092  0.00  0.00    -0.247 NA
ATOM     23  H   UNL d   1       0.733  -0.735  -0.626  0.00  0.00     0.143 HD
ATOM     24  H   UNL d   1       0.685   0.832  -0.133  0.00  0.00     0.143 HD
ENDBRANCH  19  22
ENDBRANCH  17  18
ENDBRANCH  16  17
ENDBRANCH   1  16
TORSDOF 4
