@<TRIPOS>MOLECULE
*****
 43 47 0 0 0
SMALL
GASTEIGER

@<TRIPOS>ATOM
      1 C           0.8410    0.2804   -0.1563 C.3     1  UNL1       -0.0116
      2 N           2.2725    0.0880    0.1176 N.3     1  UNL1       -0.2862
      3 C           2.8323    1.3475    0.6426 C.3     1  UNL1        0.0650
      4 C           3.6902    1.1935    1.8231 C.ar    1  UNL1        0.1588
      5 N           4.2564    2.1732    2.6188 N.ar    1  UNL1       -0.2461
      6 C           4.9543    1.6218    3.6124 C.ar    1  UNL1        0.2427
      7 N           4.8456    0.2914    3.4649 N.ar    1  UNL1       -0.2471
      8 C           4.0541   -0.0013    2.3728 C.ar    1  UNL1        0.1479
      9 C           3.6807   -1.3266    1.8691 C.3     1  UNL1        0.0374
     10 C           2.5157   -1.2250    0.8386 C.3     1  UNL1        0.0974
     11 C           1.2440   -1.8472    1.4435 C.ar    1  UNL1        0.2454
     12 N           0.4514   -1.4306    2.4213 N.ar    1  UNL1       -0.1900
     13 C          -0.6897   -2.2242    2.2623 C.ar    1  UNL1        0.2021
     14 C          -1.8686   -2.2218    3.1581 C.ar    1  UNL1        0.0230
     15 C          -2.1886   -3.4057    3.8353 C.ar    1  UNL1       -0.0504
     16 C          -3.2749   -3.4795    4.7234 C.ar    1  UNL1       -0.0534
     17 C          -4.0908   -2.3692    4.9762 C.ar    1  UNL1       -0.0178
     18 C          -5.1342   -2.4353    5.9292 C.ar    1  UNL1       -0.0540
     19 C          -5.9478   -1.3329    6.1875 C.ar    1  UNL1       -0.0612
     20 C          -5.7442   -0.1604    5.4726 C.ar    1  UNL1       -0.0612
     21 C          -4.7165   -0.0864    4.5154 C.ar    1  UNL1       -0.0540
     22 C          -3.8452   -1.1756    4.2625 C.ar    1  UNL1       -0.0172
     23 C          -2.7357   -1.1232    3.3477 C.ar    1  UNL1       -0.0432
     24 N          -0.5620   -3.1159    1.2630 N.ar    1  UNL1       -0.0560
     25 O           0.6924   -2.8657    0.7203 O.2     1  UNL1       -0.3360
     26 H           0.6383    1.1803   -0.7407 H       1  UNL1        0.0391
     27 H           0.2976    0.3976    0.7883 H       1  UNL1        0.0391
     28 H           0.4347   -0.5687   -0.7147 H       1  UNL1        0.0391
     29 H           2.0440    2.0590    0.9161 H       1  UNL1        0.0513
     30 H           3.4266    1.8269   -0.1470 H       1  UNL1        0.0513
     31 H           4.1521    3.1788    2.4796 H       1  UNL1        0.3104
     32 H           5.5033    2.1387    4.3890 H       1  UNL1        0.1581
     33 H           5.2728   -0.3902    4.0799 H       1  UNL1        0.3104
     34 H           3.4081   -1.9568    2.7201 H       1  UNL1        0.0370
     35 H           4.5783   -1.7540    1.4028 H       1  UNL1        0.0370
     36 H           2.8267   -1.9012    0.0223 H       1  UNL1        0.0565
     37 H          -1.5902   -4.3012    3.6798 H       1  UNL1        0.0625
     38 H          -3.4762   -4.4237    5.2261 H       1  UNL1        0.0624
     39 H          -5.3119   -3.3480    6.4966 H       1  UNL1        0.0624
     40 H          -6.7336   -1.3921    6.9398 H       1  UNL1        0.0618
     41 H          -6.3809    0.7013    5.6675 H       1  UNL1        0.0618
     42 H          -4.5962    0.8498    3.9761 H       1  UNL1        0.0624
     43 H          -2.5807   -0.2077    2.7802 H       1  UNL1        0.0631
@<TRIPOS>UNITY_ATOM_ATTR
5 1
charge 1
@<TRIPOS>BOND
     1     1     2    1
     2     2     3    1
     3     3     4    1
     4     4     5   ar
     5     5     6   ar
     6     6     7   ar
     7     7     8   ar
     8     4     8   ar
     9     8     9    1
    10     9    10    1
    11     2    10    1
    12    11    12   ar
    13    12    13   ar
    14    13    14    1
    15    14    15   ar
    16    15    16   ar
    17    16    17   ar
    18    17    18   ar
    19    18    19   ar
    20    19    20   ar
    21    20    21   ar
    22    21    22   ar
    23    17    22   ar
    24    22    23   ar
    25    14    23   ar
    26    13    24   ar
    27    24    25   ar
    28    11    25   ar
    29    10    11    1
    30     1    26    1
    31     1    27    1
    32     1    28    1
    33     3    29    1
    34     3    30    1
    35     5    31    1
    36     6    32    1
    37     7    33    1
    38     9    34    1
    39     9    35    1
    40    10    36    1
    41    15    37    1
    42    16    38    1
    43    18    39    1
    44    19    40    1
    45    20    41    1
    46    21    42    1
    47    23    43    1
