REMARK  6 active torsions:
REMARK  status: ('A' for Active; 'I' for Inactive)
REMARK    1  A    between atoms: O_2  and  N_3 
REMARK       I    between atoms: N_3  and  C_4 
REMARK       I    between atoms: C_4  and  N_6 
REMARK    2  A    between atoms: C_7  and  N_6 
REMARK    3  A    between atoms: C_7  and  C_9 
REMARK    4  A    between atoms: C_12  and  O_13 
REMARK    5  A    between atoms: O_13  and  C_14 
REMARK    6  A    between atoms: C_19  and  O_20 
ROOT
ATOM      1  C   UNL d   1       6.588  -0.241   4.576  0.00  0.00    -0.033 A 
ATOM      2  C   UNL d   1       6.634  -1.448   5.285  0.00  0.00     0.012 A 
ATOM      3  C   UNL d   1       6.668  -1.438   6.685  0.00  0.00     0.040 A 
ATOM      4  C   UNL d   1       6.730  -0.223   7.382  0.00  0.00     0.102 A 
ATOM      5  C   UNL d   1       6.647   0.977   6.654  0.00  0.00     0.102 A 
ATOM      6  C   UNL d   1       6.598   0.951   5.283  0.00  0.00     0.049 A 
ENDROOT
BRANCH   1   7
ATOM      7  C   UNL d   1       6.336  -0.171   3.092  0.00  0.00     0.115 C 
ATOM      8  C   UNL d   1       4.819  -0.127   2.883  0.00  0.00     0.037 C 
BRANCH   7   9
ATOM      9  N   UNL d   1       6.972   0.990   2.470  0.00  0.00    -0.333 N 
ATOM     10  C   UNL d   1       7.322   1.155   1.171  0.00  0.00     0.340 C 
ATOM     11  N   UNL d   1       6.914   0.176   0.329  0.00  0.00    -0.217 N 
ATOM     12  O   UNL d   1       7.983   2.151   0.863  0.00  0.00    -0.245 OA
ATOM     13  H   UNL d   1       6.197  -0.480   0.593  0.00  0.00     0.199 HD
ATOM     14  H   UNL d   1       7.266   1.784   3.022  0.00  0.00     0.165 HD
BRANCH  11  15
ATOM     15  O   UNL d   1       7.180   0.336  -1.043  0.00  0.00    -0.281 OA
ATOM     16  C   UNL d   1       6.543  -0.719  -1.752  0.00  0.00     0.237 C 
ENDBRANCH  11  15
ENDBRANCH   7   9
ENDBRANCH   1   7
BRANCH   5  17
ATOM     17  O   UNL d   1       6.558   2.174   7.282  0.00  0.00    -0.353 OA
ATOM     18  C   UNL d   1       6.591   3.412   6.600  0.00  0.00     0.210 C 
ENDBRANCH   5  17
BRANCH   4  19
ATOM     19  O   UNL d   1       6.890  -0.361   8.738  0.00  0.00    -0.343 OA
BRANCH  19  20
ATOM     20  C   UNL d   1       7.100   0.789   9.558  0.00  0.00     0.129 C 
ATOM     21  C   UNL d   1       8.291   1.690   9.186  0.00  0.00     0.032 C 
ATOM     22  C   UNL d   1       7.898   3.062   9.727  0.00  0.00     0.002 C 
ATOM     23  C   UNL d   1       6.373   3.070   9.951  0.00  0.00     0.002 C 
ATOM     24  C   UNL d   1       5.846   1.661   9.697  0.00  0.00     0.032 C 
ENDBRANCH  19  20
ENDBRANCH   4  19
TORSDOF 6
