REMARK  10 active torsions:
REMARK  status: ('A' for Active; 'I' for Inactive)
REMARK    1  A    between atoms: C_2  and  N_3 
REMARK    2  A    between atoms: N_6  and  C_7 
REMARK    3  A    between atoms: C_10  and  C_11 
REMARK    4  A    between atoms: C_11  and  O_13 
REMARK    5  A    between atoms: C_16  and  N_17 
REMARK    6  A    between atoms: N_17  and  C_18 
REMARK    7  A    between atoms: C_18  and  N_20 
REMARK       I    between atoms: N_20  and  C_21 
REMARK    8  A    between atoms: C_21  and  C_23 
REMARK    9  A    between atoms: C_23  and  O_24 
REMARK   10  A    between atoms: O_24  and  C_25 
ROOT
ATOM      1  C   UNL d   1       2.194   5.438   1.367  0.00  0.00     0.052 C 
ATOM      2  C   UNL d   1       2.704   6.358   2.321  0.00  0.00     0.032 C 
ATOM      3  C   UNL d   1       1.911   7.310   2.989  0.00  0.00     0.020 C 
ATOM      4  C   UNL d   1       0.556   7.440   2.689  0.00  0.00     0.041 C 
ATOM      5  C   UNL d   1       0.021   6.590   1.696  0.00  0.00     0.043 C 
ATOM      6  C   UNL d   1       0.825   5.632   0.966  0.00  0.00     0.042 C 
ENDROOT
BRANCH   6   7
ATOM      7  N   UNL d   1       0.126   4.906  -0.156  0.00  0.00    -0.234 NA
ATOM      8  H   UNL d   1      -0.856   5.178  -0.065  0.00  0.00     0.136 HD
BRANCH   7   9
ATOM      9  C   UNL d   1       0.126   3.514  -0.261  0.00  0.00     0.157 C 
ATOM     10  S   UNL d   1      -0.331   2.685   1.120  0.00  0.00    -0.047 SA
BRANCH   9  11
ATOM     11  N   UNL d   1       0.111   2.941  -1.633  0.00  0.00    -0.306 N 
ATOM     12  C   UNL d   1       0.786   1.785  -2.268  0.00  0.00     0.247 C 
ATOM     13  O   UNL d   1       1.985   1.511  -2.281  0.00  0.00    -0.271 OA
ATOM     14  H   UNL d   1      -0.864   2.889  -1.893  0.00  0.00     0.170 HD
BRANCH  12  15
ATOM     15  C   UNL d   1       0.063   0.857  -3.176  0.00  0.00     0.278 C 
BRANCH  15  16
ATOM     16  O   UNL d   1       1.057  -0.118  -3.630  0.00  0.00    -0.342 OA
BRANCH  16  17
ATOM     17  C   UNL d   1       0.763  -0.909  -4.699  0.00  0.00     0.075 A 
ATOM     18  C   UNL d   1       1.256  -2.228  -4.675  0.00  0.00     0.037 A 
ATOM     19  C   UNL d   1       0.928  -3.114  -5.706  0.00  0.00     0.003 A 
ATOM     20  C   UNL d   1       0.092  -2.691  -6.734  0.00  0.00     0.001 A 
ATOM     21  C   UNL d   1      -0.324  -1.367  -6.794  0.00  0.00     0.009 A 
ATOM     22  C   UNL d   1       0.038  -0.457  -5.804  0.00  0.00    -0.029 A 
ATOM     23  C   UNL d   1      -0.409   0.956  -5.971  0.00  0.00     0.051 C 
ENDBRANCH  16  17
ENDBRANCH  15  16
ENDBRANCH  12  15
ENDBRANCH   9  11
ENDBRANCH   7   9
ENDBRANCH   6   7
BRANCH   1  24
ATOM     24  N   UNL d   1       3.067   4.436   0.954  0.00  0.00    -0.376 N 
ATOM     25  C   UNL d   1       3.322   4.141  -0.425  0.00  0.00     0.150 C 
ATOM     26  C   UNL d   1       2.982   2.684  -0.681  0.00  0.00     0.254 C 
ATOM     27  N   UNL d   1       3.287   1.518   0.247  0.00  0.00    -0.068 N 
ATOM     28  C   UNL d   1       3.212   1.996   1.695  0.00  0.00     0.254 C 
ATOM     29  H   UNL d   1       4.251   1.298  -0.015  0.00  0.00     0.280 HD
ATOM     30  C   UNL d   1       3.738   3.465   1.861  0.00  0.00     0.150 C 
BRANCH  27  31
ATOM     31  C   UNL d   1       2.560   0.095   0.027  0.00  0.00     0.230 C 
ATOM     32  C   UNL d   1       1.032  -0.075   0.128  0.00  0.00     0.034 C 
ENDBRANCH  27  31
ENDBRANCH   1  24
BRANCH   4  33
ATOM     33  C   UNL d   1      -0.192   8.560   3.391  0.00  0.00     0.293 C 
ATOM     34  O   UNL d   1       0.344   9.325   4.151  0.00  0.00    -0.259 OA
BRANCH  33  35
ATOM     35  O   UNL d   1      -1.507   8.623   3.015  0.00  0.00    -0.323 OA
ATOM     36  C   UNL d   1      -2.223   9.733   3.595  0.00  0.00     0.213 C 
ENDBRANCH  33  35
ENDBRANCH   4  33
TORSDOF 10
