@<TRIPOS>MOLECULE
*****
 35 36 0 0 0
SMALL
GASTEIGER

@<TRIPOS>ATOM
      1 C           1.0059    0.0505    0.0894 C.3     1  UNL1        0.0125
      2 C           2.5130    0.0358   -0.0422 C.2     1  UNL1        0.2141
      3 O           3.0521   -0.5311   -0.9876 O.2     1  UNL1       -0.2758
      4 N           3.1870    0.6490    0.9988 N.am    1  UNL1       -0.2842
      5 C           4.5994    0.5847    1.1521 C.ar    1  UNL1        0.0558
      6 C           5.3606    0.9468    0.0339 C.ar    1  UNL1       -0.0203
      7 C           6.7470    0.9550    0.0833 C.ar    1  UNL1        0.0428
      8 CL          7.6363    1.4236   -1.3121 Cl      1  UNL1       -0.0835
      9 C           7.4054    0.5969    1.2506 C.ar    1  UNL1       -0.0415
     10 C           6.6593    0.2261    2.3792 C.ar    1  UNL1       -0.0377
     11 C           5.2425    0.2173    2.3685 C.ar    1  UNL1        0.0490
     12 N           4.5925   -0.1790    3.5373 N.pl3   1  UNL1       -0.3383
     13 C           3.1578   -0.2898    3.6346 C.3     1  UNL1        0.0344
     14 C           2.6936   -0.7769    4.9685 C.ar    1  UNL1       -0.0303
     15 C           2.6863   -2.1451    5.2453 C.ar    1  UNL1       -0.0559
     16 C           2.3266   -2.5893    6.5124 C.ar    1  UNL1       -0.0440
     17 C           1.9742   -1.6679    7.5044 C.ar    1  UNL1        0.0518
     18 C           1.7383   -2.1241    8.8429 C.1     1  UNL1        0.0992
     19 N           1.5852   -2.4974    9.9263 N.1     1  UNL1       -0.1909
     20 C           1.9057   -0.3046    7.2056 C.ar    1  UNL1       -0.0440
     21 C           2.2571    0.1398    5.9358 C.ar    1  UNL1       -0.0559
     22 H           0.5796   -0.4065   -0.8103 H       1  UNL1        0.0323
     23 H           0.6273    1.0724    0.1643 H       1  UNL1        0.0323
     24 H           0.6724   -0.5360    0.9517 H       1  UNL1        0.0323
     25 H           2.6416    0.9826    1.7718 H       1  UNL1        0.1548
     26 H           4.8562    1.2598   -0.8757 H       1  UNL1        0.0651
     27 H           8.4927    0.6041    1.2852 H       1  UNL1        0.0633
     28 H           7.2118   -0.0704    3.2706 H       1  UNL1        0.0637
     29 H           5.1455   -0.5034    4.3243 H       1  UNL1        0.1465
     30 H           2.7580   -0.9595    2.8638 H       1  UNL1        0.0511
     31 H           2.7291    0.7088    3.5259 H       1  UNL1        0.0511
     32 H           2.9789   -2.8602    4.4781 H       1  UNL1        0.0621
     33 H           2.3546   -3.6548    6.7265 H       1  UNL1        0.0630
     34 H           1.6108    0.4213    7.9603 H       1  UNL1        0.0630
     35 H           2.2094    1.2044    5.7086 H       1  UNL1        0.0621
@<TRIPOS>BOND
     1     1     2    1
     2     2     3    2
     3     2     4   am
     4     4     5    1
     5     5     6   ar
     6     6     7   ar
     7     7     8    1
     8     7     9   ar
     9     9    10   ar
    10    10    11   ar
    11     5    11   ar
    12    11    12    1
    13    12    13    1
    14    13    14    1
    15    14    15   ar
    16    15    16   ar
    17    16    17   ar
    18    17    18    1
    19    18    19    3
    20    17    20   ar
    21    20    21   ar
    22    14    21   ar
    23     1    22    1
    24     1    23    1
    25     1    24    1
    26     4    25    1
    27     6    26    1
    28     9    27    1
    29    10    28    1
    30    12    29    1
    31    13    30    1
    32    13    31    1
    33    15    32    1
    34    16    33    1
    35    20    34    1
    36    21    35    1
