@<TRIPOS>MOLECULE
*****
 39 40 0 0 0
SMALL
GASTEIGER

@<TRIPOS>ATOM
      1 C           1.0904   -0.1156    0.0001 C.3     1  UNL1       -0.0495
      2 C           2.6160   -0.1367   -0.0315 C.3     1  UNL1        0.0103
      3 N           3.1854   -0.8851   -1.1552 N.am    1  UNL1       -0.2985
      4 C           4.5523   -1.0005   -1.3282 C.2     1  UNL1        0.3159
      5 O           5.3709   -0.4889   -0.5602 O.2     1  UNL1       -0.2513
      6 N           4.9453   -1.7374   -2.4355 N.am    1  UNL1       -0.2182
      7 N           6.3464   -1.9215   -2.7106 N.am    1  UNL1       -0.2332
      8 C           6.7456   -2.6569   -3.8208 C.2     1  UNL1        0.2296
      9 O           5.9262   -3.1646   -4.5889 O.2     1  UNL1       -0.2743
     10 C           8.2637   -2.7985   -4.0361 C.3     1  UNL1        0.0338
     11 C           8.5863   -3.6289   -5.2934 C.3     1  UNL1        0.0348
     12 C          10.0409   -3.8826   -5.5078 C.ar    1  UNL1        0.2281
     13 N          10.6673   -5.0319   -5.6397 N.ar    1  UNL1       -0.1913
     14 C          11.9796   -4.6474   -5.8016 C.ar    1  UNL1        0.2021
     15 C          13.0563   -5.6057   -6.0019 C.ar    1  UNL1        0.0224
     16 C          14.1812   -5.6109   -5.1657 C.ar    1  UNL1       -0.0509
     17 C          15.2600   -6.4580   -5.4397 C.ar    1  UNL1       -0.0611
     18 C          15.1934   -7.3523   -6.5076 C.ar    1  UNL1       -0.0617
     19 C          14.0625   -7.3800   -7.3223 C.ar    1  UNL1       -0.0611
     20 C          12.9982   -6.5086   -7.0721 C.ar    1  UNL1       -0.0509
     21 N          12.1617   -3.3160   -5.8020 N.ar    1  UNL1       -0.0561
     22 O          10.8702   -2.8054   -5.6326 O.2     1  UNL1       -0.3377
     23 H           0.7296    0.4594    0.8633 H       1  UNL1        0.0245
     24 H           0.6765   -1.1258    0.0817 H       1  UNL1        0.0245
     25 H           0.6765    0.3488   -0.9006 H       1  UNL1        0.0245
     26 H           2.9903   -0.5770    0.8999 H       1  UNL1        0.0460
     27 H           2.9903    0.8925   -0.0789 H       1  UNL1        0.0460
     28 H           2.5557   -1.3230   -1.8115 H       1  UNL1        0.1503
     29 H           4.2985   -2.1733   -3.0864 H       1  UNL1        0.1744
     30 H           6.9855   -1.4819   -2.0491 H       1  UNL1        0.1728
     31 H           8.7069   -3.2812   -3.1569 H       1  UNL1        0.0363
     32 H           8.7072   -1.8001   -4.1308 H       1  UNL1        0.0363
     33 H           8.1726   -3.1464   -6.1876 H       1  UNL1        0.0365
     34 H           8.0963   -4.6076   -5.2152 H       1  UNL1        0.0365
     35 H          14.2249   -4.9571   -4.2975 H       1  UNL1        0.0625
     36 H          16.1582   -6.4112   -4.8285 H       1  UNL1        0.0618
     37 H          16.0228   -8.0278   -6.7041 H       1  UNL1        0.0618
     38 H          14.0166   -8.0662   -8.1644 H       1  UNL1        0.0618
     39 H          12.1301   -6.5229   -7.7273 H       1  UNL1        0.0625
@<TRIPOS>BOND
     1     1     2    1
     2     2     3    1
     3     3     4   am
     4     4     5    2
     5     4     6   am
     6     6     7    1
     7     7     8   am
     8     8     9    2
     9     8    10    1
    10    10    11    1
    11    11    12    1
    12    12    13   ar
    13    13    14   ar
    14    14    15    1
    15    15    16   ar
    16    16    17   ar
    17    17    18   ar
    18    18    19   ar
    19    19    20   ar
    20    15    20   ar
    21    14    21   ar
    22    21    22   ar
    23    12    22   ar
    24     1    23    1
    25     1    24    1
    26     1    25    1
    27     2    26    1
    28     2    27    1
    29     3    28    1
    30     6    29    1
    31     7    30    1
    32    10    31    1
    33    10    32    1
    34    11    33    1
    35    11    34    1
    36    16    35    1
    37    17    36    1
    38    18    37    1
    39    19    38    1
    40    20    39    1
