@<TRIPOS>MOLECULE
*****
 59 62 0 0 0
SMALL
GASTEIGER

@<TRIPOS>ATOM
      1 C           1.0245   -0.2364    0.1472 C.3     1  UNL1       -0.0260
      2 C           2.5217   -0.0128    0.1051 C.2     1  UNL1        0.0146
      3 C           3.1019    1.2137   -0.0146 C.2     1  UNL1        0.0467
      4 C           2.3013    2.4787   -0.1737 C.2     1  UNL1        0.2468
      5 O           1.1922    2.4521   -0.7275 O.2     1  UNL1       -0.2701
      6 N           2.8819    3.6682    0.2273 N.am    1  UNL1       -0.2815
      7 C           2.2564    4.9170   -0.0519 C.ar    1  UNL1        0.0366
      8 C           2.7021    5.8601   -1.0083 C.ar    1  UNL1       -0.0402
      9 C           2.0372    7.0752   -1.1882 C.ar    1  UNL1       -0.0600
     10 C           0.9328    7.3598   -0.4027 C.ar    1  UNL1       -0.0614
     11 C           0.4967    6.4355    0.5498 C.ar    1  UNL1       -0.0571
     12 C           1.1530    5.2174    0.7364 C.ar    1  UNL1       -0.0292
     13 C           0.7353    4.2523    1.8063 C.3     1  UNL1       -0.0380
     14 C           4.6115    1.3338   -0.1843 C.3     1  UNL1        0.0854
     15 C           5.0006    2.2362   -1.3516 C.ar    1  UNL1        0.1175
     16 C           4.9635    3.5904   -1.5615 C.ar    1  UNL1       -0.0198
     17 C           5.2047    3.8415   -2.9125 C.ar    1  UNL1       -0.0236
     18 C           5.7057    2.6651   -3.3893 C.ar    1  UNL1        0.0921
     19 O           5.5122    1.6666   -2.4889 O.2     1  UNL1       -0.4668
     20 C           5.2980   -0.0039   -0.2945 C.2     1  UNL1        0.0717
     21 C           6.7593    0.1013   -0.6996 C.1     1  UNL1        0.0982
     22 N           7.9715    0.1886   -1.0357 N.1     1  UNL1       -0.1911
     23 C           4.6647   -1.2006   -0.1824 C.2     1  UNL1        0.0802
     24 S           5.6394   -2.6322   -0.4746 S.3     1  UNL1       -0.0998
     25 C           4.6545   -4.1532   -0.3921 C.3     1  UNL1        0.0763
     26 C           5.5629   -5.3657   -0.7345 C.2     1  UNL1        0.2274
     27 O           6.7445   -5.2312   -1.0552 O.2     1  UNL1       -0.2746
     28 N           4.9469   -6.6190   -0.6976 N.am    1  UNL1       -0.2848
     29 C           5.6656   -7.8228   -0.9442 C.ar    1  UNL1        0.0334
     30 C           5.0715   -8.8744   -1.6515 C.ar    1  UNL1       -0.0405
     31 C           5.7625  -10.0835   -1.8348 C.ar    1  UNL1       -0.0600
     32 C           7.0585  -10.2374   -1.3427 C.ar    1  UNL1       -0.0616
     33 C           7.6533   -9.1970   -0.6377 C.ar    1  UNL1       -0.0600
     34 C           6.9603   -7.9999   -0.4426 C.ar    1  UNL1       -0.0405
     35 N           3.3127   -1.1708    0.1255 N.pl3   1  UNL1       -0.3117
     36 H           0.4276    0.6729    0.1340 H       1  UNL1        0.0290
     37 H           0.7249   -0.7526    1.0620 H       1  UNL1        0.0290
     38 H           0.7099   -0.8181   -0.7266 H       1  UNL1        0.0290
     39 H           3.8178    3.6864    0.6114 H       1  UNL1        0.1551
     40 H           3.5280    5.7106   -1.6922 H       1  UNL1        0.0636
     41 H           2.3765    7.7873   -1.9402 H       1  UNL1        0.0618
     42 H           0.4098    8.3032   -0.5248 H       1  UNL1        0.0618
     43 H          -0.3604    6.6725    1.1681 H       1  UNL1        0.0621
     44 H          -0.0815    4.6462    2.4042 H       1  UNL1        0.0278
     45 H           1.5912    4.0501    2.4636 H       1  UNL1        0.0278
     46 H           0.3962    3.3052    1.3781 H       1  UNL1        0.0278
     47 H           4.9914    1.7632    0.7592 H       1  UNL1        0.0487
     48 H           4.6878    4.3504   -0.8707 H       1  UNL1        0.0652
     49 H           5.0975    4.7972   -3.4008 H       1  UNL1        0.0649
     50 H           6.1793    2.3872   -4.3149 H       1  UNL1        0.1029
     51 H           3.8251   -4.1135   -1.1032 H       1  UNL1        0.0475
     52 H           4.2787   -4.2692    0.6270 H       1  UNL1        0.0475
     53 H           3.9390   -6.6879   -0.6532 H       1  UNL1        0.1548
     54 H           4.1038   -8.7549   -2.1305 H       1  UNL1        0.0636
     55 H           5.2959  -10.9094   -2.3674 H       1  UNL1        0.0618
     56 H           7.6084  -11.1601   -1.5130 H       1  UNL1        0.0618
     57 H           8.6536   -9.3110   -0.2283 H       1  UNL1        0.0618
     58 H           7.4420   -7.2142    0.1332 H       1  UNL1        0.0636
     59 H           2.8576   -2.0622    0.2869 H       1  UNL1        0.1524
@<TRIPOS>BOND
     1     1     2    1
     2     2     3    2
     3     3     4    1
     4     4     5    2
     5     4     6   am
     6     6     7    1
     7     7     8   ar
     8     8     9   ar
     9     9    10   ar
    10    10    11   ar
    11    11    12   ar
    12     7    12   ar
    13    12    13    1
    14     3    14    1
    15    15    16   ar
    16    16    17   ar
    17    17    18   ar
    18    18    19   ar
    19    15    19   ar
    20    14    20    1
    21    20    21    1
    22    21    22    3
    23    20    23    2
    24    23    24    1
    25    24    25    1
    26    25    26    1
    27    26    27    2
    28    26    28   am
    29    28    29    1
    30    29    30   ar
    31    30    31   ar
    32    31    32   ar
    33    32    33   ar
    34    33    34   ar
    35    29    34   ar
    36    23    35    1
    37     2    35    1
    38    14    15    1
    39     1    36    1
    40     1    37    1
    41     1    38    1
    42     6    39    1
    43     8    40    1
    44     9    41    1
    45    10    42    1
    46    11    43    1
    47    13    44    1
    48    13    45    1
    49    13    46    1
    50    14    47    1
    51    16    48    1
    52    17    49    1
    53    18    50    1
    54    25    51    1
    55    25    52    1
    56    28    53    1
    57    30    54    1
    58    31    55    1
    59    32    56    1
    60    33    57    1
    61    34    58    1
    62    35    59    1
