REMARK  7 active torsions:
REMARK  status: ('A' for Active; 'I' for Inactive)
REMARK    1  A    between atoms: C_5  and  C_6 
REMARK       I    between atoms: C_6  and  N_8 
REMARK    2  A    between atoms: N_8  and  C_9 
REMARK    3  A    between atoms: C_9  and  N_11 
REMARK    4  A    between atoms: N_11  and  N_12 
REMARK       I    between atoms: N_12  and  C_13 
REMARK    5  A    between atoms: C_13  and  C_15 
REMARK    6  A    between atoms: C_18  and  N_19 
REMARK       I    between atoms: N_19  and  C_20 
REMARK    7  A    between atoms: C_20  and  C_22 
ROOT
ATOM      1  N   UNL d   1       7.310   5.509  -0.107  0.00  0.00    -0.264 N 
ATOM      2  C   UNL d   1       8.698   5.543  -0.199  0.00  0.00     0.270 C 
ATOM      3  O   UNL d   1       9.386   4.527  -0.256  0.00  0.00    -0.266 OA
ATOM      4  H   UNL d   1       6.739   6.354  -0.142  0.00  0.00     0.190 HD
ENDROOT
BRANCH   1   5
ATOM      5  N   UNL d   1       6.558   4.259  -0.100  0.00  0.00    -0.273 N 
ATOM      6  H   UNL d   1       7.131   3.418  -0.089  0.00  0.00     0.189 HD
BRANCH   5   7
ATOM      7  C   UNL d   1       5.149   4.318  -0.081  0.00  0.00     0.193 C 
ATOM      8  S   UNL d   1       4.388   5.827  -0.094  0.00  0.00    -0.039 SA
BRANCH   7   9
ATOM      9  N   UNL d   1       4.480   3.066  -0.054  0.00  0.00    -0.298 N 
ATOM     10  C   UNL d   1       3.072   2.866  -0.033  0.00  0.00     0.257 C 
ATOM     11  O   UNL d   1       2.259   3.789  -0.038  0.00  0.00    -0.267 OA
ATOM     12  H   UNL d   1       5.062   2.244  -0.050  0.00  0.00     0.171 HD
BRANCH  10  13
ATOM     13  C   UNL d   1       2.447   1.492  -0.009  0.00  0.00     0.033 A 
ATOM     14  C   UNL d   1       3.154   0.293  -0.004  0.00  0.00     0.017 A 
ATOM     15  C   UNL d   1       2.466  -0.938  -0.001  0.00  0.00     0.009 A 
ATOM     16  C   UNL d   1       1.061  -1.007   0.002  0.00  0.00    -0.045 A 
ATOM     17  C   UNL d   1       0.379  -2.349  -0.006  0.00  0.00     0.049 C 
ATOM     18  C   UNL d   1       0.347   0.194   0.006  0.00  0.00     0.017 A 
ATOM     19  C   UNL d   1       1.030   1.420   0.002  0.00  0.00     0.036 A 
ATOM     20 BR   UNL d   1      -1.556   0.225   0.006  0.00  0.00    -0.051 Br
ENDBRANCH  10  13
ENDBRANCH   7   9
ENDBRANCH   5   7
ENDBRANCH   1   5
BRANCH   2  21
ATOM     21  C   UNL d   1       9.358   6.905  -0.201  0.00  0.00     0.033 A 
ATOM     22  C   UNL d   1      10.510   7.165  -0.967  0.00  0.00     0.019 A 
ATOM     23  C   UNL d   1      11.208   8.403  -0.860  0.00  0.00     0.030 A 
ATOM     24  C   UNL d   1      10.720   9.435  -0.038  0.00  0.00     0.034 A 
ATOM     25  C   UNL d   1       9.607   9.136   0.750  0.00  0.00     0.030 A 
ATOM     26  C   UNL d   1       8.927   7.905   0.668  0.00  0.00     0.019 A 
BRANCH  24  27
ATOM     27  N   UNL d   1      11.334  10.730  -0.021  0.00  0.00    -0.327 N 
ATOM     28  C   UNL d   1      10.874  11.853   0.681  0.00  0.00     0.226 C 
ATOM     29  O   UNL d   1       9.846  11.938   1.348  0.00  0.00    -0.273 OA
ATOM     30  H   UNL d   1      12.165  10.854  -0.588  0.00  0.00     0.169 HD
BRANCH  28  31
ATOM     31  C   UNL d   1      11.825  13.006   0.703  0.00  0.00     0.078 A 
ATOM     32  C   UNL d   1      11.934  13.944  -0.484  0.00  0.00     0.015 A 
ATOM     33  C   UNL d   1      11.506  14.485   0.843  0.00  0.00     0.015 A 
ENDBRANCH  28  31
ENDBRANCH  24  27
ENDBRANCH   2  21
TORSDOF 7
