REMARK  8 active torsions:
REMARK  status: ('A' for Active; 'I' for Inactive)
REMARK    1  A    between atoms: C_5  and  C_6 
REMARK       I    between atoms: C_6  and  N_8 
REMARK    2  A    between atoms: N_8  and  N_9 
REMARK       I    between atoms: N_9  and  C_10 
REMARK    3  A    between atoms: C_12  and  C_10 
REMARK    4  A    between atoms: C_12  and  O_14 
REMARK    5  A    between atoms: O_14  and  C_15 
REMARK    6  A    between atoms: C_15  and  C_16 
REMARK    7  A    between atoms: C_16  and  C_17 
REMARK    8  A    between atoms: C_20  and  O_21 
ROOT
ATOM      1  C   UNL d   1      -7.416  -7.796  -4.284  0.00  0.00     0.272 C 
ATOM      2  O   UNL d   1      -7.295  -8.973  -3.966  0.00  0.00    -0.266 OA
ATOM      3  N   UNL d   1      -6.860  -6.751  -3.550  0.00  0.00    -0.263 N 
ATOM      4  H   UNL d   1      -6.916  -5.766  -3.783  0.00  0.00     0.190 HD
ENDROOT
BRANCH   3   5
ATOM      5  N   UNL d   1      -6.046  -7.049  -2.451  0.00  0.00    -0.265 N 
ATOM      6  C   UNL d   1      -5.559  -6.030  -1.643  0.00  0.00     0.264 C 
ATOM      7  O   UNL d   1      -5.760  -4.844  -1.910  0.00  0.00    -0.269 OA
ATOM      8  H   UNL d   1      -5.728  -8.013  -2.380  0.00  0.00     0.190 HD
BRANCH   6   9
ATOM      9  C   UNL d   1      -4.810  -6.480  -0.344  0.00  0.00     0.210 C 
ATOM     10  C   UNL d   1      -3.512  -5.685  -0.196  0.00  0.00     0.050 C 
BRANCH   9  11
ATOM     11  O   UNL d   1      -4.490  -7.867  -0.257  0.00  0.00    -0.377 OA
BRANCH  11  12
ATOM     12  C   UNL d   1      -5.643  -8.654   0.028  0.00  0.00     0.169 C 
BRANCH  12  13
ATOM     13  C   UNL d   1      -5.315 -10.121  -0.175  0.00  0.00     0.030 C 
BRANCH  13  14
ATOM     14  C   UNL d   1      -6.603 -10.950  -0.275  0.00  0.00    -0.021 C 
ATOM     15  C   UNL d   1      -7.414 -10.620  -1.531  0.00  0.00     0.009 C 
ATOM     16  C   UNL d   1      -6.261 -12.432  -0.290  0.00  0.00     0.009 C 
ENDBRANCH  13  14
ENDBRANCH  12  13
ENDBRANCH  11  12
ENDBRANCH   9  11
ENDBRANCH   6   9
ENDBRANCH   3   5
BRANCH   1  17
ATOM     17  C   UNL d   1      -8.165  -7.471  -5.534  0.00  0.00     0.066 A 
ATOM     18  C   UNL d   1      -8.278  -6.149  -5.979  0.00  0.00     0.020 A 
ATOM     19  C   UNL d   1      -8.934  -5.849  -7.175  0.00  0.00     0.008 A 
ATOM     20  C   UNL d   1      -9.484  -6.867  -7.957  0.00  0.00    -0.059 A 
ATOM     21  C   UNL d   1     -10.171  -6.569  -9.255  0.00  0.00     0.048 C 
ATOM     22  C   UNL d   1      -9.387  -8.190  -7.516  0.00  0.00     0.044 A 
ATOM     23  C   UNL d   1      -8.742  -8.492  -6.315  0.00  0.00     0.082 A 
BRANCH  23  24
ATOM     24  O   UNL d   1      -8.726  -9.823  -5.984  0.00  0.00    -0.360 OA
ATOM     25  H   UNL d   1      -8.247  -9.926  -5.135  0.00  0.00     0.217 HD
ENDBRANCH  23  24
ENDBRANCH   1  17
TORSDOF 8
