@<TRIPOS>MOLECULE
*****
 61 65 0 0 0
SMALL
GASTEIGER

@<TRIPOS>ATOM
      1 C           0.8679   -0.3599    1.0724 C.3     1  UNL1       -0.0431
      2 N           2.7919   -0.2474    0.5694 N.4     1  UNL1        0.2336
      3 C           3.6509    0.4973   -1.0105 C.3     1  UNL1       -0.0265
      4 C           4.3208   -0.4936   -1.9056 C.3     1  UNL1        0.0490
      5 C           3.8565   -1.8018   -1.4105 C.3     1  UNL1        0.2163
      6 N           2.3752   -1.5248   -1.8435 N.2     1  UNL1       -0.2452
      7 C           1.5649   -0.6115   -1.2341 C.2     1  UNL1        0.0371
      8 C           1.4719    1.2028   -0.5216 C.ar    1  UNL1        0.0342
      9 C           0.7128    1.8495   -1.3643 C.ar    1  UNL1       -0.0497
     10 C           0.2025    3.0874   -0.9224 C.ar    1  UNL1       -0.0609
     11 C           0.3489    3.6254    0.4060 C.ar    1  UNL1       -0.0583
     12 C           1.0550    3.0521    1.4205 C.ar    1  UNL1       -0.0195
     13 C           1.7470    1.9243    0.9867 C.ar    1  UNL1        0.1254
     14 O           2.5040    1.3853    2.0896 O.3     1  UNL1       -0.5061
     15 O           4.7550   -2.7125   -2.1598 O.3     1  UNL1       -0.4638
     16 C           4.5488   -4.0585   -2.0112 C.ar    1  UNL1        0.1289
     17 C           5.2554   -4.9733   -2.7870 C.ar    1  UNL1       -0.0195
     18 C           4.9168   -6.3378   -2.7355 C.ar    1  UNL1       -0.0583
     19 C           3.8863   -6.7896   -1.9134 C.ar    1  UNL1       -0.0612
     20 C           3.2322   -5.8857   -1.1051 C.ar    1  UNL1       -0.0530
     21 C           3.6212   -4.5450   -1.1036 C.ar    1  UNL1        0.0193
     22 C           3.0245   -3.6165   -0.1073 C.3     1  UNL1        0.0923
     23 N           2.7003   -4.2371    1.1807 N.2     1  UNL1       -0.2821
     24 C           3.7236   -4.7344    1.7762 C.2     1  UNL1        0.0335
     25 C           3.5692   -5.3419    3.0799 C.ar    1  UNL1        0.0341
     26 C           2.4549   -6.1380    3.3416 C.ar    1  UNL1       -0.0497
     27 C           2.2210   -6.5428    4.6468 C.ar    1  UNL1       -0.0609
     28 C           3.1622   -6.2513    5.6370 C.ar    1  UNL1       -0.0583
     29 C           4.3404   -5.5582    5.3292 C.ar    1  UNL1       -0.0195
     30 C           4.5096   -5.0385    4.0562 C.ar    1  UNL1        0.1254
     31 O           5.5424   -4.1937    3.7563 O.3     1  UNL1       -0.5061
     32 C           3.9034   -2.3358    0.0424 C.3     1  UNL1        0.0864
     33 C           3.3083   -1.4914    1.1124 C.3     1  UNL1       -0.0213
     34 H           0.1692    0.4448    0.6900 H       1  UNL1        0.0777
     35 H           0.7484   -0.3816    2.1379 H       1  UNL1        0.0777
     36 H           0.2792   -1.1495    0.5611 H       1  UNL1        0.0777
     37 H           3.1778    0.4630    1.2177 H       1  UNL1        0.2031
     38 H           4.0004    1.5296   -0.8646 H       1  UNL1        0.0816
     39 H           2.9112    0.7861   -1.8134 H       1  UNL1        0.0816
     40 H           5.2987   -0.2131   -2.2993 H       1  UNL1        0.0376
     41 H           3.8216   -0.5029   -2.9319 H       1  UNL1        0.0376
     42 H           1.3691   -1.3966   -0.5104 H       1  UNL1        0.0834
     43 H           0.4128    1.3513   -2.2765 H       1  UNL1        0.0625
     44 H          -0.4152    3.6012   -1.6297 H       1  UNL1        0.0618
     45 H          -0.1776    4.5577    0.6288 H       1  UNL1        0.0619
     46 H           1.0117    3.3885    2.4595 H       1  UNL1        0.0654
     47 H           2.4703    1.8551    2.9574 H       1  UNL1        0.2922
     48 H           6.0598   -4.6521   -3.4434 H       1  UNL1        0.0654
     49 H           5.4384   -7.0588   -3.3581 H       1  UNL1        0.0619
     50 H           3.5994   -7.8359   -1.8733 H       1  UNL1        0.0618
     51 H           2.4354   -6.2121   -0.4410 H       1  UNL1        0.0622
     52 H           2.0473   -3.3789   -0.5314 H       1  UNL1        0.0602
     53 H           4.7448   -4.6677    1.3644 H       1  UNL1        0.0832
     54 H           1.7789   -6.4273    2.5406 H       1  UNL1        0.0625
     55 H           1.3147   -7.0914    4.8900 H       1  UNL1        0.0618
     56 H           2.9753   -6.5766    6.6572 H       1  UNL1        0.0619
     57 H           5.0961   -5.4292    6.0958 H       1  UNL1        0.0654
     58 H           6.0900   -4.0638    4.5493 H       1  UNL1        0.2922
     59 H           4.9181   -2.6171    0.3996 H       1  UNL1        0.0436
     60 H           3.9235   -1.2665    1.9957 H       1  UNL1        0.0820
     61 H           2.4271   -1.9776    1.5276 H       1  UNL1        0.0820
@<TRIPOS>UNITY_ATOM_ATTR
2 1
charge 1
@<TRIPOS>BOND
     1     1     2    1
     2     2     3    1
     3     3     4    1
     4     4     5    1
     5     5     6    1
     6     6     7    2
     7     7     8    1
     8     8     9   ar
     9     9    10   ar
    10    10    11   ar
    11    11    12   ar
    12    12    13   ar
    13     8    13   ar
    14    13    14    1
    15     5    15    1
    16    15    16    1
    17    16    17   ar
    18    17    18   ar
    19    18    19   ar
    20    19    20   ar
    21    20    21   ar
    22    16    21   ar
    23    21    22    1
    24    23    24    2
    25    24    25    1
    26    25    26   ar
    27    26    27   ar
    28    27    28   ar
    29    28    29   ar
    30    29    30   ar
    31    25    30   ar
    32    30    31    1
    33    22    32    1
    34     5    32    1
    35    32    33    1
    36     2    33    1
    37    22    23    1
    38     1    34    1
    39     1    35    1
    40     1    36    1
    41     2    37    1
    42     3    38    1
    43     3    39    1
    44     4    40    1
    45     4    41    1
    46     7    42    1
    47     9    43    1
    48    10    44    1
    49    11    45    1
    50    12    46    1
    51    14    47    1
    52    17    48    1
    53    18    49    1
    54    19    50    1
    55    20    51    1
    56    22    52    1
    57    24    53    1
    58    26    54    1
    59    27    55    1
    60    28    56    1
    61    29    57    1
    62    31    58    1
    63    32    59    1
    64    33    60    1
    65    33    61    1
