@<TRIPOS>MOLECULE
*****
 63 66 0 0 0
SMALL
GASTEIGER

@<TRIPOS>ATOM
      1 C           1.1713   -0.0358    0.0344 C.3     1  UNL1       -0.0306
      2 C           2.7042   -0.0303    0.0370 C.3     1  UNL1        0.0901
      3 O           3.2003    0.8219    1.1021 O.3     1  UNL1       -0.4600
      4 C           4.5625    0.9497    1.2725 C.2     1  UNL1        0.3662
      5 O           5.3824    0.3802    0.5907 O.2     1  UNL1       -0.2426
      6 C           4.8791    1.9397    2.4655 C.2     1  UNL1        0.2060
      7 N           4.0481    2.4954    3.2880 N.2     1  UNL1       -0.1680
      8 N           2.7494    2.1440    3.2004 N.pl3   1  UNL1       -0.2365
      9 C           1.7836    2.9161    3.8551 C.ar    1  UNL1        0.0485
     10 C           0.5808    2.2991    4.2067 C.ar    1  UNL1       -0.0357
     11 C          -0.4282    3.0220    4.8415 C.ar    1  UNL1       -0.0182
     12 C          -0.2217    4.3567    5.1935 C.ar    1  UNL1        0.1202
     13 O          -1.2450    4.9450    5.8863 O.3     1  UNL1       -0.4951
     14 C          -0.9983    6.2639    6.3642 C.3     1  UNL1        0.0788
     15 C           0.9792    4.9758    4.8452 C.ar    1  UNL1       -0.0182
     16 C           1.9798    4.2561    4.1880 C.ar    1  UNL1       -0.0357
     17 S           6.6063    2.2120    2.5467 S.3     1  UNL1       -0.0214
     18 C           6.7948    3.1476    4.0301 C.ar    1  UNL1        0.2024
     19 N           6.7874    4.4603    4.1321 N.ar    1  UNL1       -0.1217
     20 N           7.0551    4.7978    5.4478 N.ar    1  UNL1       -0.1331
     21 C           7.2622    3.6891    6.1416 C.ar    1  UNL1        0.1389
     22 C           7.6493    3.6855    7.6202 C.3     1  UNL1        0.0118
     23 C           8.0049    2.3157    8.1821 C.3     1  UNL1       -0.0208
     24 C           8.2924    2.0303    9.6132 C.ar    1  UNL1       -0.0470
     25 C           8.3094    0.6930   10.0693 C.ar    1  UNL1       -0.0586
     26 C           8.2475    0.4209   11.4258 C.ar    1  UNL1       -0.0615
     27 C           8.3046    1.4819   12.3213 C.ar    1  UNL1       -0.0617
     28 C           8.3509    2.8007   11.8643 C.ar    1  UNL1       -0.0615
     29 C           8.3290    3.0756   10.5119 C.ar    1  UNL1       -0.0586
     30 N           7.1057    2.6001    5.2616 N.ar    1  UNL1       -0.2739
     31 C           7.3429    1.2347    5.5335 C.ar    1  UNL1        0.0502
     32 C           6.5244    0.5839    6.4603 C.ar    1  UNL1       -0.0377
     33 C           7.0226   -0.5387    7.1253 C.ar    1  UNL1       -0.0598
     34 C           8.2418   -1.1001    6.7449 C.ar    1  UNL1       -0.0616
     35 C           8.9857   -0.5211    5.7152 C.ar    1  UNL1       -0.0598
     36 C           8.5558    0.6682    5.1216 C.ar    1  UNL1       -0.0377
     37 H           0.7786   -0.6661   -0.7736 H       1  UNL1        0.0262
     38 H           0.7675    0.9737   -0.1003 H       1  UNL1        0.0262
     39 H           0.7694   -0.4143    0.9809 H       1  UNL1        0.0262
     40 H           3.0545    0.3508   -0.9274 H       1  UNL1        0.0695
     41 H           3.0584   -1.0563    0.1824 H       1  UNL1        0.0695
     42 H           2.3821    1.6903    2.3573 H       1  UNL1        0.1744
     43 H           0.4475    1.2363    4.0205 H       1  UNL1        0.0638
     44 H          -1.3707    2.5331    5.0703 H       1  UNL1        0.0655
     45 H          -1.8552    6.5731    6.9695 H       1  UNL1        0.0660
     46 H          -0.9095    6.9638    5.5271 H       1  UNL1        0.0660
     47 H          -0.1105    6.3032    7.0064 H       1  UNL1        0.0660
     48 H           1.1728    6.0193    5.0655 H       1  UNL1        0.0655
     49 H           2.9095    4.7554    3.9241 H       1  UNL1        0.0638
     50 H           6.7937    4.0791    8.1907 H       1  UNL1        0.0347
     51 H           8.4798    4.3788    7.8016 H       1  UNL1        0.0347
     52 H           8.7862    1.8471    7.5822 H       1  UNL1        0.0317
     53 H           7.0384    1.8319    8.1513 H       1  UNL1        0.0317
     54 H           8.3162   -0.1492    9.3832 H       1  UNL1        0.0620
     55 H           8.1382   -0.6026   11.7765 H       1  UNL1        0.0618
     56 H           8.3171    1.2849   13.3860 H       1  UNL1        0.0618
     57 H           8.3676    3.6345   12.5539 H       1  UNL1        0.0618
     58 H           8.2945    4.0992   10.1582 H       1  UNL1        0.0620
     59 H           5.6236    1.0689    6.8429 H       1  UNL1        0.0638
     60 H           6.5340   -0.8734    8.0411 H       1  UNL1        0.0618
     61 H           8.6361   -1.9552    7.2902 H       1  UNL1        0.0618
     62 H           9.9407   -0.9566    5.4322 H       1  UNL1        0.0618
     63 H           9.2140    1.1806    4.4228 H       1  UNL1        0.0638
@<TRIPOS>BOND
     1     1     2    1
     2     2     3    1
     3     3     4    1
     4     4     5    2
     5     4     6    1
     6     6     7    2
     7     7     8    1
     8     8     9    1
     9     9    10   ar
    10    10    11   ar
    11    11    12   ar
    12    12    13    1
    13    13    14    1
    14    12    15   ar
    15    15    16   ar
    16     9    16   ar
    17     6    17    1
    18    17    18    1
    19    18    19   ar
    20    19    20   ar
    21    20    21   ar
    22    21    22    1
    23    22    23    1
    24    23    24    1
    25    24    25   ar
    26    25    26   ar
    27    26    27   ar
    28    27    28   ar
    29    28    29   ar
    30    24    29   ar
    31    21    30   ar
    32    18    30   ar
    33    30    31    1
    34    31    32   ar
    35    32    33   ar
    36    33    34   ar
    37    34    35   ar
    38    35    36   ar
    39    31    36   ar
    40     1    37    1
    41     1    38    1
    42     1    39    1
    43     2    40    1
    44     2    41    1
    45     8    42    1
    46    10    43    1
    47    11    44    1
    48    14    45    1
    49    14    46    1
    50    14    47    1
    51    15    48    1
    52    16    49    1
    53    22    50    1
    54    22    51    1
    55    23    52    1
    56    23    53    1
    57    25    54    1
    58    26    55    1
    59    27    56    1
    60    28    57    1
    61    29    58    1
    62    32    59    1
    63    33    60    1
    64    34    61    1
    65    35    62    1
    66    36    63    1
