@<TRIPOS>MOLECULE
*****
 66 68 0 0 0
SMALL
GASTEIGER

@<TRIPOS>ATOM
      1 C           2.6818    0.7520    0.0046 C.3     1  UNL1       -0.0379
      2 C           1.2680    0.2761   -0.0003 C.ar    1  UNL1       -0.0290
      3 C           1.1677   -1.1298    0.0054 C.ar    1  UNL1       -0.0571
      4 C          -0.0535   -1.7631    0.0007 C.ar    1  UNL1       -0.0611
      5 C          -1.1996   -0.9866   -0.0018 C.ar    1  UNL1       -0.0571
      6 C          -1.1429    0.4359   -0.0044 C.ar    1  UNL1       -0.0290
      7 C          -2.4872    1.1229   -0.0060 C.3     1  UNL1       -0.0379
      8 C           0.1184    1.1107   -0.0107 C.ar    1  UNL1        0.0397
      9 N           0.1697    2.5624   -0.0494 N.am    1  UNL1       -0.2773
     10 C           1.2873    3.4049   -0.0694 C.2     1  UNL1        0.3031
     11 O           2.4854    3.1557    0.0400 O.2     1  UNL1       -0.2648
     12 C           1.0973    4.9131   -0.2216 C.2     1  UNL1        0.2996
     13 O          -0.0130    5.4228   -0.2047 O.2     1  UNL1       -0.2652
     14 N           2.3322    5.5579   -0.2851 N.am    1  UNL1       -0.3035
     15 C           2.5178    6.9794   -0.1294 C.3     1  UNL1        0.0373
     16 C           2.2172    7.4774    1.2691 C.ar    1  UNL1       -0.0300
     17 C           1.9854    6.5738    2.3168 C.ar    1  UNL1       -0.0571
     18 C           1.6072    7.0176    3.5693 C.ar    1  UNL1       -0.0611
     19 C           1.5071    8.3786    3.8182 C.ar    1  UNL1       -0.0571
     20 C           1.7858    9.3364    2.8307 C.ar    1  UNL1       -0.0300
     21 C           1.6949   10.8315    3.1146 C.3     1  UNL1        0.0373
     22 N           1.3473   11.1801    4.4855 N.am    1  UNL1       -0.3035
     23 C           1.1575   12.4597    4.9628 C.2     1  UNL1        0.2996
     24 O           1.3178   13.4959    4.3394 O.2     1  UNL1       -0.2652
     25 C           0.6990   12.4765    6.4501 C.2     1  UNL1        0.3031
     26 O           0.4548   11.3918    6.9727 O.2     1  UNL1       -0.2648
     27 N           0.6005   13.7356    7.0375 N.am    1  UNL1       -0.2773
     28 C           0.2955   13.9441    8.4127 C.ar    1  UNL1        0.0397
     29 C           0.9534   13.2104    9.4263 C.ar    1  UNL1       -0.0290
     30 C           2.0897   12.2552    9.1739 C.3     1  UNL1       -0.0379
     31 C           0.5989   13.4060   10.7770 C.ar    1  UNL1       -0.0571
     32 C          -0.3753   14.3264   11.1389 C.ar    1  UNL1       -0.0611
     33 C          -0.9919   15.0858   10.1529 C.ar    1  UNL1       -0.0571
     34 C          -0.6555   14.9249    8.7909 C.ar    1  UNL1       -0.0290
     35 C          -1.4075   15.7681    7.7972 C.3     1  UNL1       -0.0379
     36 C           2.1373    8.8623    1.5435 C.ar    1  UNL1       -0.0524
     37 H           3.4324   -0.0390    0.0147 H       1  UNL1        0.0278
     38 H           2.8458    1.3019    0.9364 H       1  UNL1        0.0278
     39 H           2.8580    1.2994   -0.9269 H       1  UNL1        0.0278
     40 H           2.0745   -1.7322    0.0110 H       1  UNL1        0.0621
     41 H          -0.0986   -2.8479   -0.0002 H       1  UNL1        0.0618
     42 H          -2.1551   -1.5105   -0.0039 H       1  UNL1        0.0621
     43 H          -3.3087    0.3905    0.0206 H       1  UNL1        0.0278
     44 H          -2.6225    1.7087   -0.9182 H       1  UNL1        0.0278
     45 H          -2.6049    1.7508    0.8804 H       1  UNL1        0.0278
     46 H          -0.7217    3.0509   -0.0716 H       1  UNL1        0.1553
     47 H           3.1366    4.9440   -0.1283 H       1  UNL1        0.1495
     48 H           1.8615    7.4563   -0.8603 H       1  UNL1        0.0512
     49 H           3.5637    7.2019   -0.3800 H       1  UNL1        0.0512
     50 H           2.0577    5.5001    2.1745 H       1  UNL1        0.0621
     51 H           1.3775    6.3028    4.3535 H       1  UNL1        0.0618
     52 H           1.2001    8.6456    4.8201 H       1  UNL1        0.0621
     53 H           0.9380   11.2807    2.4616 H       1  UNL1        0.0512
     54 H           2.6597   11.3028    2.8948 H       1  UNL1        0.0512
     55 H           1.1600   10.4620    5.1751 H       1  UNL1        0.1495
     56 H           0.5689   14.5251    6.4012 H       1  UNL1        0.1553
     57 H           2.4312   12.2441    8.1387 H       1  UNL1        0.0278
     58 H           1.7875   11.2414    9.4536 H       1  UNL1        0.0278
     59 H           2.9672   12.5525    9.7558 H       1  UNL1        0.0278
     60 H           1.0991   12.8362   11.5581 H       1  UNL1        0.0621
     61 H          -0.6468   14.4557   12.1839 H       1  UNL1        0.0618
     62 H          -1.7583   15.7983   10.4556 H       1  UNL1        0.0621
     63 H          -2.1199   16.4360    8.2991 H       1  UNL1        0.0278
     64 H          -1.9857   15.1329    7.1204 H       1  UNL1        0.0278
     65 H          -0.7191   16.3999    7.2299 H       1  UNL1        0.0278
     66 H           2.3351    9.5698    0.7368 H       1  UNL1        0.0624
@<TRIPOS>BOND
     1     1     2    1
     2     2     3   ar
     3     3     4   ar
     4     4     5   ar
     5     5     6   ar
     6     6     7    1
     7     6     8   ar
     8     2     8   ar
     9     8     9    1
    10     9    10   am
    11    10    11    2
    12    10    12    1
    13    12    13    2
    14    12    14   am
    15    14    15    1
    16    15    16    1
    17    16    17   ar
    18    17    18   ar
    19    18    19   ar
    20    19    20   ar
    21    20    21    1
    22    21    22    1
    23    22    23   am
    24    23    24    2
    25    23    25    1
    26    25    26    2
    27    25    27   am
    28    27    28    1
    29    28    29   ar
    30    29    30    1
    31    29    31   ar
    32    31    32   ar
    33    32    33   ar
    34    33    34   ar
    35    28    34   ar
    36    34    35    1
    37    20    36   ar
    38    16    36   ar
    39     1    37    1
    40     1    38    1
    41     1    39    1
    42     3    40    1
    43     4    41    1
    44     5    42    1
    45     7    43    1
    46     7    44    1
    47     7    45    1
    48     9    46    1
    49    14    47    1
    50    15    48    1
    51    15    49    1
    52    17    50    1
    53    18    51    1
    54    19    52    1
    55    21    53    1
    56    21    54    1
    57    22    55    1
    58    27    56    1
    59    30    57    1
    60    30    58    1
    61    30    59    1
    62    31    60    1
    63    32    61    1
    64    33    62    1
    65    35    63    1
    66    35    64    1
    67    35    65    1
    68    36    66    1
