@<TRIPOS>MOLECULE
*****
 58 60 0 0 0
SMALL
GASTEIGER

@<TRIPOS>ATOM
      1 C           1.1708    0.1362   -0.2542 C.3     1  UNL1        0.0788
      2 O           2.5993    0.2107   -0.3721 O.3     1  UNL1       -0.4951
      3 C           3.2604    1.1600    0.3517 C.ar    1  UNL1        0.1208
      4 C           4.4637    1.6789   -0.0526 C.ar    1  UNL1       -0.0165
      5 C           5.2310    2.5088    0.8262 C.ar    1  UNL1       -0.0160
      6 C           4.7961    2.8915    2.1179 C.ar    1  UNL1        0.1289
      7 O           5.6014    3.7189    2.8694 O.3     1  UNL1       -0.4946
      8 C           5.4715    4.1505    4.2533 C.3     1  UNL1        0.0788
      9 C           3.5172    2.4967    2.4380 C.ar    1  UNL1        0.0466
     10 C           2.8196    3.0254    3.6487 C.3     1  UNL1        0.0244
     11 C           2.5372    4.6422    3.4940 C.3     1  UNL1        0.0593
     12 N           3.5895    5.5352    2.8504 N.am    1  UNL1       -0.3055
     13 C           3.9167    6.8273    3.2449 C.2     1  UNL1        0.2487
     14 O           3.1278    7.4828    3.9490 O.2     1  UNL1       -0.2700
     15 C           5.2848    7.3988    2.9422 C.ar    1  UNL1        0.0916
     16 C           5.8185    8.4173    3.7205 C.ar    1  UNL1        0.0455
     17 N           7.0336    9.0229    3.5190 N.ar    1  UNL1       -0.2295
     18 C           7.7678    8.5751    2.4916 C.ar    1  UNL1        0.1893
     19 S           9.2955    9.3303    1.9888 S.3     1  UNL1       -0.0894
     20 C           9.4856   10.7177    3.1294 C.3     1  UNL1       -0.0106
     21 N           7.3818    7.5576    1.7196 N.ar    1  UNL1       -0.2095
     22 C           6.1598    7.0247    1.9451 C.ar    1  UNL1        0.1456
     23 CL          5.8064    5.8716    0.7266 Cl      1  UNL1       -0.0611
     24 N           1.5480    2.1958    4.0230 N.4     1  UNL1        0.2419
     25 C           0.3704    2.5413    3.1092 C.3     1  UNL1       -0.0313
     26 C          -0.8026    1.6295    3.3571 C.3     1  UNL1       -0.0123
     27 C          -0.4160    0.1630    3.3440 C.3     1  UNL1       -0.0434
     28 C           0.5795   -0.1280    4.4503 C.3     1  UNL1       -0.0123
     29 C           1.8644    0.6598    4.2541 C.3     1  UNL1       -0.0313
     30 C           2.8335    1.6033    1.5697 C.ar    1  UNL1       -0.0079
     31 H           0.8035   -0.8067   -0.6725 H       1  UNL1        0.0660
     32 H           0.7043    0.9803   -0.7662 H       1  UNL1        0.0660
     33 H           0.8118    0.1248    0.7657 H       1  UNL1        0.0660
     34 H           4.8164    1.4337   -1.0507 H       1  UNL1        0.0655
     35 H           6.1896    2.8595    0.4490 H       1  UNL1        0.0655
     36 H           6.1928    4.9582    4.4231 H       1  UNL1        0.0660
     37 H           5.5874    3.3395    4.9666 H       1  UNL1        0.0660
     38 H           4.5493    4.6462    4.5663 H       1  UNL1        0.0660
     39 H           3.4624    2.8151    4.5101 H       1  UNL1        0.0921
     40 H           2.3416    5.0203    4.5056 H       1  UNL1        0.0522
     41 H           1.6563    4.8106    2.8810 H       1  UNL1        0.0522
     42 H           4.3200    5.0793    2.3039 H       1  UNL1        0.1492
     43 H           5.2772    8.8149    4.5788 H       1  UNL1        0.0839
     44 H          10.4097   11.2474    2.8679 H       1  UNL1        0.0345
     45 H           9.5821   10.3637    4.1575 H       1  UNL1        0.0345
     46 H           8.6595   11.4278    3.0462 H       1  UNL1        0.0345
     47 H           1.2830    2.5225    4.9593 H       1  UNL1        0.2040
     48 H           0.6521    2.5066    2.0541 H       1  UNL1        0.0814
     49 H           0.0950    3.5802    3.2965 H       1  UNL1        0.0814
     50 H          -1.5602    1.8216    2.5896 H       1  UNL1        0.0317
     51 H          -1.2367    1.8867    4.3266 H       1  UNL1        0.0317
     52 H           0.0374   -0.1152    2.3994 H       1  UNL1        0.0269
     53 H          -1.3062   -0.4645    3.4268 H       1  UNL1        0.0269
     54 H           0.7987   -1.2042    4.4477 H       1  UNL1        0.0317
     55 H           0.1452    0.1194    5.4207 H       1  UNL1        0.0317
     56 H           2.4070    0.2142    3.4151 H       1  UNL1        0.0814
     57 H           2.5470    0.5721    5.1061 H       1  UNL1        0.0814
     58 H           1.9113    1.1640    1.8741 H       1  UNL1        0.0660
@<TRIPOS>UNITY_ATOM_ATTR
24 1
charge 1
@<TRIPOS>BOND
     1     1     2    1
     2     2     3    1
     3     3     4   ar
     4     4     5   ar
     5     5     6   ar
     6     6     7    1
     7     7     8    1
     8     6     9   ar
     9     9    10    1
    10    10    11    1
    11    11    12    1
    12    12    13   am
    13    13    14    2
    14    13    15    1
    15    15    16   ar
    16    16    17   ar
    17    17    18   ar
    18    18    19    1
    19    19    20    1
    20    18    21   ar
    21    21    22   ar
    22    15    22   ar
    23    22    23    1
    24    10    24    1
    25    24    25    1
    26    25    26    1
    27    26    27    1
    28    27    28    1
    29    28    29    1
    30    24    29    1
    31     9    30   ar
    32     3    30   ar
    33     1    31    1
    34     1    32    1
    35     1    33    1
    36     4    34    1
    37     5    35    1
    38     8    36    1
    39     8    37    1
    40     8    38    1
    41    10    39    1
    42    11    40    1
    43    11    41    1
    44    12    42    1
    45    16    43    1
    46    20    44    1
    47    20    45    1
    48    20    46    1
    49    24    47    1
    50    25    48    1
    51    25    49    1
    52    26    50    1
    53    26    51    1
    54    27    52    1
    55    27    53    1
    56    28    54    1
    57    28    55    1
    58    29    56    1
    59    29    57    1
    60    30    58    1
