REMARK  7 active torsions:
REMARK  status: ('A' for Active; 'I' for Inactive)
REMARK       I    between atoms: N_1  and  C_2 
REMARK       I    between atoms: C_2  and  N_4 
REMARK    1  A    between atoms: N_4  and  C_5 
REMARK    2  A    between atoms: C_9  and  N_10 
REMARK       I    between atoms: N_10  and  C_11 
REMARK    3  A    between atoms: C_11  and  C_13 
REMARK    4  A    between atoms: C_18  and  C_19 
REMARK    5  A    between atoms: C_19  and  O_20 
REMARK    6  A    between atoms: O_20  and  C_21 
REMARK    7  A    between atoms: C_25  and  C_26 
ROOT
ATOM      1  N   UNL d   1       7.275  -0.117  -2.173  0.00  0.00    -0.323 N 
ATOM      2  C   UNL d   1       6.633  -1.050  -2.977  0.00  0.00     0.256 C 
ATOM      3  O   UNL d   1       5.424  -1.299  -3.022  0.00  0.00    -0.267 OA
ATOM      4  H   UNL d   1       8.286  -0.091  -2.207  0.00  0.00     0.169 HD
ENDROOT
BRANCH   2   5
ATOM      5  C   UNL d   1       7.438  -1.826  -3.941  0.00  0.00     0.040 A 
ATOM      6  C   UNL d   1       6.881  -1.880  -5.234  0.00  0.00     0.017 A 
ATOM      7  C   UNL d   1       7.432  -2.691  -6.217  0.00  0.00     0.001 A 
ATOM      8  C   UNL d   1       8.589  -3.406  -5.939  0.00  0.00     0.001 A 
ATOM      9  C   UNL d   1       9.142  -3.372  -4.655  0.00  0.00     0.010 A 
ATOM     10  C   UNL d   1       8.559  -2.611  -3.620  0.00  0.00    -0.018 A 
BRANCH  10  11
ATOM     11  C   UNL d   1       9.197  -2.718  -2.253  0.00  0.00     0.215 C 
BRANCH  11  12
ATOM     12  O   UNL d   1       8.333  -2.250  -1.237  0.00  0.00    -0.347 OA
BRANCH  12  13
ATOM     13  C   UNL d   1       8.834  -1.793  -0.061  0.00  0.00     0.070 A 
ATOM     14  C   UNL d   1       7.875  -1.652   0.948  0.00  0.00     0.037 A 
ATOM     15  C   UNL d   1       8.222  -1.141   2.196  0.00  0.00     0.004 A 
ATOM     16  C   UNL d   1       9.552  -0.829   2.462  0.00  0.00     0.014 A 
ATOM     17  C   UNL d   1      10.498  -0.928   1.436  0.00  0.00     0.004 A 
ATOM     18  C   UNL d   1      10.137  -1.381   0.165  0.00  0.00     0.051 A 
BRANCH  17  19
ATOM     19  C   UNL d   1      11.896  -0.528   1.675  0.00  0.00     0.270 C 
ATOM     20  O   UNL d   1      12.730  -0.543   0.776  0.00  0.00    -0.301 OA
ENDBRANCH  17  19
ENDBRANCH  12  13
ENDBRANCH  11  12
ENDBRANCH  10  11
ENDBRANCH   2   5
BRANCH   1  21
ATOM     21  C   UNL d   1       6.660   0.597  -1.114  0.00  0.00     0.037 A 
ATOM     22  C   UNL d   1       7.408   1.431  -0.278  0.00  0.00     0.029 A 
ATOM     23  C   UNL d   1       6.759   2.197   0.703  0.00  0.00     0.004 A 
ATOM     24  C   UNL d   1       5.369   2.105   0.876  0.00  0.00     0.029 A 
ATOM     25  C   UNL d   1       4.637   1.216   0.097  0.00  0.00     0.038 A 
ATOM     26  C   UNL d   1       5.299   0.468  -0.866  0.00  0.00     0.059 A 
BRANCH  25  27
ATOM     27  N   UNL d   1       3.232   1.114   0.178  0.00  0.00    -0.309 N 
ATOM     28  C   UNL d   1       2.554  -0.070   0.019  0.00  0.00     0.318 C 
ATOM     29  N   UNL d   1       1.206   0.045   0.007  0.00  0.00    -0.352 N 
ATOM     30  O   UNL d   1       3.044  -1.197  -0.044  0.00  0.00    -0.247 OA
ATOM     31  H   UNL d   1       0.703  -0.828  -0.097  0.00  0.00     0.160 HD
ATOM     32  H   UNL d   1       0.693   0.909  -0.002  0.00  0.00     0.160 HD
ATOM     33  H   UNL d   1       2.711   1.956   0.365  0.00  0.00     0.170 HD
ENDBRANCH  25  27
ENDBRANCH   1  21
TORSDOF 7
