REMARK  12 active torsions:
REMARK  status: ('A' for Active; 'I' for Inactive)
REMARK    1  A    between atoms: C_2  and  C_3 
REMARK    2  A    between atoms: C_3  and  C_4 
REMARK    3  A    between atoms: C_3  and  C_33 
REMARK       I    between atoms: C_4  and  N_6 
REMARK    4  A    between atoms: N_6  and  C_7 
REMARK    5  A    between atoms: N_6  and  C_14 
REMARK    6  A    between atoms: C_7  and  C_8 
REMARK    7  A    between atoms: C_14  and  C_15 
REMARK    8  A    between atoms: C_14  and  C_24 
REMARK       I    between atoms: C_15  and  N_17 
REMARK    9  A    between atoms: N_17  and  C_18 
REMARK   10  A    between atoms: C_25  and  O_26 
REMARK   11  A    between atoms: C_28  and  O_29 
REMARK   12  A    between atoms: C_31  and  O_32 
ROOT
ATOM      1  C   UNL d   1       0.610   3.983  -0.222  0.00  0.00     0.218 C 
ENDROOT
BRANCH   1   2
ATOM      2  N   UNL d   1       1.264   2.707  -0.790  0.00  0.00    -0.331 N 
ATOM      3  C   UNL d   1       2.641   2.586  -0.456  0.00  0.00     0.229 C 
ATOM      4  O   UNL d   1       3.305   3.542   0.042  0.00  0.00    -0.273 OA
BRANCH   3   5
ATOM      5  C   UNL d   1       3.372   1.300  -0.629  0.00  0.00     0.110 C 
BRANCH   5   6
ATOM      6  C   UNL d   1       2.916   0.228   0.666  0.00  0.00     0.014 C 
ATOM      7  C   UNL d   1       1.392  -0.008   1.153  0.00  0.00     0.006 C 
ENDBRANCH   5   6
BRANCH   5   8
ATOM      8  C   UNL d   1       4.849   1.288  -0.862  0.00  0.00    -0.045 C 
ATOM      9  C   UNL d   1       5.625   1.100   0.262  0.00  0.00     0.008 C 
ATOM     10  C   UNL d   1       6.979   1.224   0.195  0.00  0.00     0.001 C 
ATOM     11  C   UNL d   1       7.578   1.423  -1.040  0.00  0.00     0.000 C 
ATOM     12  C   UNL d   1       6.821   1.515  -2.213  0.00  0.00     0.001 C 
ATOM     13  C   UNL d   1       5.438   1.440  -2.136  0.00  0.00     0.008 C 
ENDBRANCH   5   8
ENDBRANCH   3   5
BRANCH   2  14
ATOM     14  C   UNL d   1       0.252   1.728  -1.498  0.00  0.00     0.169 C 
BRANCH  14  15
ATOM     15  C   UNL d   1       0.417   0.184  -1.899  0.00  0.00     0.125 A 
ATOM     16  C   UNL d   1       1.640  -0.373  -1.748  0.00  0.00     0.061 A 
ATOM     17  C   UNL d   1       1.766  -1.677  -1.343  0.00  0.00     0.014 A 
ATOM     18  C   UNL d   1       0.458  -2.036  -1.269  0.00  0.00     0.040 A 
ATOM     19  C   UNL d   1       0.094  -3.410  -0.899  0.00  0.00     0.076 C 
ATOM     20  O   UNL d   1      -0.411  -0.929  -1.495  0.00  0.00    -0.340 OA
ENDBRANCH  14  15
ENDBRANCH   2  14
ENDBRANCH   1   2
BRANCH   1  21
ATOM     21  C   UNL d   1       1.111   5.090  -1.254  0.00  0.00     0.245 C 
ATOM     22  O   UNL d   1       0.323   5.696  -1.978  0.00  0.00    -0.271 OA
ATOM     23  N   UNL d   1       2.462   5.413  -1.293  0.00  0.00    -0.354 N 
ATOM     24  H   UNL d   1       3.123   4.880  -0.725  0.00  0.00     0.162 HD
BRANCH  23  25
ATOM     25  C   UNL d   1       2.995   6.401  -2.216  0.00  0.00     0.084 C 
ATOM     26  C   UNL d   1       2.437   7.767  -1.817  0.00  0.00     0.025 C 
ATOM     27  C   UNL d   1       2.910   8.869  -2.738  0.00  0.00     0.002 C 
ATOM     28  C   UNL d   1       4.428   8.927  -2.775  0.00  0.00     0.000 C 
ATOM     29  C   UNL d   1       5.016   7.578  -3.184  0.00  0.00     0.002 C 
ATOM     30  C   UNL d   1       4.537   6.449  -2.260  0.00  0.00     0.025 C 
ENDBRANCH  23  25
ENDBRANCH   1  21
BRANCH   1  31
ATOM     31  C   UNL d   1      -0.980   4.032  -0.023  0.00  0.00     0.040 C 
ATOM     32  C   UNL d   1      -1.695   5.257  -0.032  0.00  0.00     0.080 C 
ATOM     33  C   UNL d   1      -3.102   5.313  -0.148  0.00  0.00     0.073 C 
ATOM     34  C   UNL d   1      -3.844   4.149  -0.254  0.00  0.00     0.071 C 
ATOM     35  C   UNL d   1      -3.218   2.940  -0.134  0.00  0.00     0.073 C 
ATOM     36  C   UNL d   1      -1.849   2.912   0.139  0.00  0.00     0.080 C 
BRANCH  32  37
ATOM     37  O   UNL d   1      -1.139   6.500   0.145  0.00  0.00    -0.360 OA
ATOM     38  H   UNL d   1      -0.206   6.521  -0.112  0.00  0.00     0.217 HD
ENDBRANCH  32  37
BRANCH  34  39
ATOM     39  O   UNL d   1      -5.199   4.117  -0.356  0.00  0.00    -0.361 OA
ATOM     40  H   UNL d   1      -5.538   5.022  -0.287  0.00  0.00     0.217 HD
ENDBRANCH  34  39
BRANCH  36  41
ATOM     41  O   UNL d   1      -1.496   1.715   0.719  0.00  0.00    -0.360 OA
ATOM     42  H   UNL d   1      -1.850   0.998   0.144  0.00  0.00     0.217 HD
ENDBRANCH  36  41
ENDBRANCH   1  31
TORSDOF 12
