@<TRIPOS>MOLECULE
*****
 51 53 0 0 0
SMALL
GASTEIGER

@<TRIPOS>ATOM
      1 C           2.2190    1.9107    0.0337 C.3     1  UNL1       -0.0397
      2 C           1.0519    0.9717   -0.0210 C.ar    1  UNL1       -0.0498
      3 C          -0.2958    1.3409    0.0035 C.ar    1  UNL1       -0.0541
      4 C          -1.3388    0.3610   -0.0135 C.ar    1  UNL1       -0.0287
      5 C          -2.7647    0.8570    0.0024 C.3     1  UNL1       -0.0379
      6 C          -1.0235   -1.0293   -0.0321 C.ar    1  UNL1        0.0393
      7 N          -2.0956   -2.0195   -0.0005 N.am    1  UNL1       -0.2844
      8 C          -2.0018   -3.3856   -0.2819 C.2     1  UNL1        0.2275
      9 O          -1.0421   -3.9145   -0.8450 O.2     1  UNL1       -0.2746
     10 C          -3.2110   -4.2859    0.0178 C.3     1  UNL1        0.0779
     11 S          -2.5473   -5.9740    0.1853 S.3     1  UNL1       -0.0784
     12 C          -3.8063   -7.1229    0.0536 C.ar    1  UNL1        0.1713
     13 N          -3.4390   -8.3498    0.0307 N.ar    1  UNL1       -0.2069
     14 C          -4.3657   -9.3411   -0.0418 C.ar    1  UNL1        0.1458
     15 N          -3.7885  -10.5608   -0.2433 N.pl3   1  UNL1       -0.3415
     16 C          -5.7052   -9.1127    0.0309 C.ar    1  UNL1        0.1389
     17 N          -6.7382  -10.0698    0.0565 N.am    1  UNL1       -0.2720
     18 C          -6.6165  -11.4467    0.2034 C.2     1  UNL1        0.2837
     19 O          -5.5380  -12.0505    0.3591 O.2     1  UNL1       -0.2665
     20 C          -7.7877  -12.2641    0.1800 C.ar    1  UNL1        0.1893
     21 C          -8.9001  -12.2973   -0.6336 C.ar    1  UNL1       -0.0113
     22 C          -9.6038  -13.4807   -0.2897 C.ar    1  UNL1       -0.0231
     23 C          -8.8725  -14.1060    0.6917 C.ar    1  UNL1        0.0928
     24 O          -7.7726  -13.3775    0.9799 O.2     1  UNL1       -0.4583
     25 C          -6.0984   -7.6452    0.0114 C.ar    1  UNL1        0.2753
     26 O          -7.2745   -7.2842   -0.0294 O.2     1  UNL1       -0.2657
     27 N          -5.0888   -6.7254    0.0249 N.ar    1  UNL1       -0.3003
     28 C           0.3540   -1.3571    0.0065 C.ar    1  UNL1       -0.0287
     29 C           0.8951   -2.7326    0.1969 C.3     1  UNL1       -0.0379
     30 C           1.3550   -0.3767   -0.0418 C.ar    1  UNL1       -0.0541
     31 H           1.9237    2.9603    0.0138 H       1  UNL1        0.0278
     32 H           2.8837    1.7174   -0.8178 H       1  UNL1        0.0278
     33 H           2.7916    1.7236    0.9518 H       1  UNL1        0.0278
     34 H          -0.5421    2.4025    0.0421 H       1  UNL1        0.0623
     35 H          -2.8273    1.9522    0.0121 H       1  UNL1        0.0278
     36 H          -3.2824    0.4965    0.8973 H       1  UNL1        0.0278
     37 H          -3.2928    0.5105   -0.8914 H       1  UNL1        0.0278
     38 H          -3.0304   -1.6439    0.0759 H       1  UNL1        0.1548
     39 H          -3.8755   -4.1985   -0.8454 H       1  UNL1        0.0475
     40 H          -3.7291   -4.0328    0.9457 H       1  UNL1        0.0475
     41 H          -2.8249  -10.6376    0.0517 H       1  UNL1        0.1438
     42 H          -4.3561  -11.3860   -0.0628 H       1  UNL1        0.1438
     43 H          -7.6794   -9.6770    0.0640 H       1  UNL1        0.1555
     44 H          -9.1117  -11.6011   -1.4299 H       1  UNL1        0.0657
     45 H         -10.5137  -13.8574   -0.7297 H       1  UNL1        0.0649
     46 H          -8.9756  -15.0285    1.2480 H       1  UNL1        0.1029
     47 H          -5.3252   -5.7493    0.0203 H       1  UNL1        0.1709
     48 H           0.1249   -3.2840    0.7110 H       1  UNL1        0.0278
     49 H           1.6897   -2.8160    0.9387 H       1  UNL1        0.0278
     50 H           1.2182   -3.1539   -0.7638 H       1  UNL1        0.0278
     51 H           2.4005   -0.6875   -0.0328 H       1  UNL1        0.0623
@<TRIPOS>BOND
     1     1     2    1
     2     2     3   ar
     3     3     4   ar
     4     4     5    1
     5     4     6   ar
     6     6     7    1
     7     7     8   am
     8     8     9    2
     9     8    10    1
    10    10    11    1
    11    11    12    1
    12    12    13   ar
    13    13    14   ar
    14    14    15    1
    15    14    16   ar
    16    16    17    1
    17    17    18   am
    18    18    19    2
    19    18    20    1
    20    20    21   ar
    21    21    22   ar
    22    22    23   ar
    23    23    24   ar
    24    20    24   ar
    25    16    25   ar
    26    25    26    2
    27    25    27   ar
    28    12    27   ar
    29     6    28   ar
    30    28    29    1
    31    28    30   ar
    32     2    30   ar
    33     1    31    1
    34     1    32    1
    35     1    33    1
    36     3    34    1
    37     5    35    1
    38     5    36    1
    39     5    37    1
    40     7    38    1
    41    10    39    1
    42    10    40    1
    43    15    41    1
    44    15    42    1
    45    17    43    1
    46    21    44    1
    47    22    45    1
    48    23    46    1
    49    27    47    1
    50    29    48    1
    51    29    49    1
    52    29    50    1
    53    30    51    1
