REMARK  6 active torsions:
REMARK  status: ('A' for Active; 'I' for Inactive)
REMARK    1  A    between atoms: C_2  and  C_4 
REMARK    2  A    between atoms: C_4  and  N_5 
REMARK    3  A    between atoms: C_4  and  C_9 
REMARK       I    between atoms: N_5  and  C_6 
REMARK       I    between atoms: C_6  and  N_7 
REMARK       I    between atoms: C_9  and  N_11 
REMARK    4  A    between atoms: N_11  and  N_12 
REMARK       I    between atoms: N_12  and  C_13 
REMARK    5  A    between atoms: C_13  and  C_15 
REMARK    6  A    between atoms: C_19  and  N_20 
ROOT
ATOM      1  C   UNL d   1       4.678  -0.915   1.281  0.00  0.00     0.259 C 
ATOM      2  O   UNL d   1       5.375  -0.418   0.389  0.00  0.00    -0.269 OA
ATOM      3  N   UNL d   1       5.305  -1.509   2.364  0.00  0.00    -0.265 N 
ATOM      4  H   UNL d   1       4.830  -1.968   3.139  0.00  0.00     0.190 HD
ENDROOT
BRANCH   3   5
ATOM      5  N   UNL d   1       6.743  -1.501   2.401  0.00  0.00    -0.263 N 
ATOM      6  C   UNL d   1       7.409  -2.204   3.397  0.00  0.00     0.270 C 
ATOM      7  O   UNL d   1       6.812  -2.811   4.283  0.00  0.00    -0.266 OA
ATOM      8  H   UNL d   1       7.212  -1.058   1.610  0.00  0.00     0.190 HD
BRANCH   6   9
ATOM      9  C   UNL d   1       8.909  -2.190   3.387  0.00  0.00     0.035 A 
ATOM     10  C   UNL d   1       9.619  -3.329   3.772  0.00  0.00     0.017 A 
ATOM     11  C   UNL d   1      11.001  -3.259   3.934  0.00  0.00     0.003 A 
ATOM     12  C   UNL d   1      11.682  -2.067   3.663  0.00  0.00     0.029 A 
ATOM     13  C   UNL d   1      11.018  -0.889   3.281  0.00  0.00     0.030 A 
ATOM     14  C   UNL d   1       9.613  -1.000   3.146  0.00  0.00     0.046 A 
BRANCH  13  15
ATOM     15  N   UNL d   1      11.693   0.306   3.072  0.00  0.00    -0.390 N 
ATOM     16  C   UNL d   1      13.143   0.454   3.247  0.00  0.00     0.149 C 
ATOM     17  C   UNL d   1      11.003   1.557   2.754  0.00  0.00     0.149 C 
ENDBRANCH  13  15
ENDBRANCH   6   9
ENDBRANCH   3   5
BRANCH   1  18
ATOM     18  C   UNL d   1       3.084  -0.823   1.282  0.00  0.00     0.183 C 
BRANCH  18  19
ATOM     19  C   UNL d   1       2.624  -0.001   0.015  0.00  0.00     0.009 C 
ATOM     20  C   UNL d   1       1.113   0.129  -0.211  0.00  0.00     0.012 C 
ATOM     21  C   UNL d   1       3.122   1.451   0.083  0.00  0.00     0.012 C 
ENDBRANCH  18  19
BRANCH  18  22
ATOM     22  N   UNL d   1       2.483  -2.176   1.358  0.00  0.00    -0.330 N 
ATOM     23  C   UNL d   1       1.191  -2.577   1.427  0.00  0.00     0.314 C 
ATOM     24  N   UNL d   1       0.254  -1.686   1.790  0.00  0.00    -0.352 N 
ATOM     25  O   UNL d   1       0.868  -3.730   1.137  0.00  0.00    -0.248 OA
ATOM     26  H   UNL d   1       0.479  -0.719   1.941  0.00  0.00     0.160 HD
ATOM     27  H   UNL d   1      -0.680  -1.873   1.441  0.00  0.00     0.160 HD
ATOM     28  H   UNL d   1       3.082  -2.956   1.107  0.00  0.00     0.165 HD
ENDBRANCH  18  22
ENDBRANCH   1  18
TORSDOF 6
