REMARK  5 active torsions:
REMARK  status: ('A' for Active; 'I' for Inactive)
REMARK    1  A    between atoms: C_2  and  C_3 
REMARK       I    between atoms: C_2  and  N_15 
REMARK    2  A    between atoms: C_3  and  C_4 
REMARK    3  A    between atoms: N_15  and  N_16 
REMARK    4  A    between atoms: C_20  and  C_21 
REMARK    5  A    between atoms: C_20  and  C_27 
ROOT
ATOM      1  N   UNL d   1       4.399  -0.516   0.995  0.00  0.00    -0.167 N 
ATOM      2  C   UNL d   1       5.206   0.585   0.926  0.00  0.00     0.346 C 
ATOM      3  O   UNL d   1       4.891   1.769   0.847  0.00  0.00    -0.245 OA
ATOM      4  N   UNL d   1       6.510   0.181   0.972  0.00  0.00    -0.315 N 
ATOM      5  C   UNL d   1       6.650  -1.223   1.295  0.00  0.00     0.173 C 
ATOM      6  C   UNL d   1       5.130  -1.628   1.343  0.00  0.00     0.285 C 
ATOM      7  O   UNL d   1       4.664  -2.718   1.658  0.00  0.00    -0.267 OA
ATOM      8  H   UNL d   1       7.266   0.845   0.904  0.00  0.00     0.166 HD
ENDROOT
BRANCH   1   9
ATOM      9  N   UNL d   1       3.010  -0.491   1.025  0.00  0.00    -0.256 N 
ATOM     10  C   UNL d   1       2.222   0.055   0.040  0.00  0.00     0.242 C 
ATOM     11  O   UNL d   1       1.000   0.035   0.180  0.00  0.00    -0.271 OA
ATOM     12  H   UNL d   1       2.536  -0.990   1.774  0.00  0.00     0.191 HD
BRANCH  10  13
ATOM     13  C   UNL d   1       2.906   0.673  -1.156  0.00  0.00     0.166 C 
BRANCH  13  14
ATOM     14  C   UNL d   1       1.981   1.343  -2.132  0.00  0.00     0.074 C 
ATOM     15  N   UNL d   1       1.235   0.572  -2.864  0.00  0.00    -0.175 NA
ATOM     16  N   UNL d   1       0.426   1.154  -3.783  0.00  0.00    -0.243 N 
ATOM     17  C   UNL d   1       0.420   2.485  -4.124  0.00  0.00     0.272 C 
ATOM     18  H   UNL d   1      -0.192   0.533  -4.294  0.00  0.00     0.192 HD
ATOM     19  O   UNL d   1      -0.256   2.923  -5.048  0.00  0.00    -0.266 OA
ATOM     20  C   UNL d   1       1.253   3.372  -3.295  0.00  0.00     0.046 A 
ATOM     21  C   UNL d   1       1.254   4.755  -3.518  0.00  0.00     0.018 A 
ATOM     22  C   UNL d   1       1.996   2.826  -2.254  0.00  0.00     0.006 A 
ATOM     23  C   UNL d   1       1.979   5.598  -2.676  0.00  0.00     0.001 A 
ATOM     24  C   UNL d   1       2.699   5.064  -1.613  0.00  0.00     0.001 A 
ATOM     25  C   UNL d   1       2.713   3.684  -1.403  0.00  0.00     0.014 A 
ENDBRANCH  13  14
ENDBRANCH  10  13
ENDBRANCH   1   9
BRANCH   5  26
ATOM     26  C   UNL d   1       7.425  -1.923   0.177  0.00  0.00    -0.016 A 
ATOM     27  C   UNL d   1       6.919  -3.069  -0.451  0.00  0.00     0.010 A 
ATOM     28  C   UNL d   1       7.751  -3.877  -1.218  0.00  0.00     0.001 A 
ATOM     29  C   UNL d   1       9.079  -3.518  -1.427  0.00  0.00     0.000 A 
ATOM     30  C   UNL d   1       9.592  -2.361  -0.850  0.00  0.00     0.001 A 
ATOM     31  C   UNL d   1       8.764  -1.548  -0.083  0.00  0.00     0.010 A 
ENDBRANCH   5  26
BRANCH   5  32
ATOM     32  C   UNL d   1       7.296  -1.402   2.683  0.00  0.00    -0.016 A 
ATOM     33  C   UNL d   1       8.469  -2.164   2.873  0.00  0.00     0.010 A 
ATOM     34  C   UNL d   1       8.988  -2.426   4.133  0.00  0.00     0.001 A 
ATOM     35  C   UNL d   1       8.375  -1.878   5.245  0.00  0.00     0.000 A 
ATOM     36  C   UNL d   1       7.233  -1.094   5.093  0.00  0.00     0.001 A 
ATOM     37  C   UNL d   1       6.699  -0.850   3.826  0.00  0.00     0.010 A 
ENDBRANCH   5  32
TORSDOF 5
