REMARK  5 active torsions:
REMARK  status: ('A' for Active; 'I' for Inactive)
REMARK    1  A    between atoms: C_5  and  C_6 
REMARK    2  A    between atoms: C_9  and  S_10 
REMARK    3  A    between atoms: S_10  and  C_11 
REMARK    4  A    between atoms: C_11  and  C_12 
REMARK       I    between atoms: C_12  and  N_14 
REMARK    5  A    between atoms: N_14  and  C_15 
ROOT
ATOM      1  C   UNL d   1      -8.664   2.467  -2.111  0.00  0.00     0.229 C 
ATOM      2  O   UNL d   1      -8.956   2.921  -1.008  0.00  0.00    -0.273 OA
ATOM      3  N   UNL d   1      -9.470   2.618  -3.225  0.00  0.00    -0.330 N 
ATOM      4  H   UNL d   1      -9.338   2.037  -4.040  0.00  0.00     0.165 HD
ENDROOT
BRANCH   1   5
ATOM      5  C   UNL d   1      -7.401   1.640  -2.261  0.00  0.00     0.180 C 
BRANCH   5   6
ATOM      6  S   UNL d   1      -6.375   1.867  -0.730  0.00  0.00    -0.112 SA
BRANCH   6   7
ATOM      7  C   UNL d   1      -5.416   0.365  -0.798  0.00  0.00     0.267 A 
ATOM      8  N   UNL d   1      -5.342  -0.325   0.468  0.00  0.00    -0.279 N 
ATOM      9  N   UNL d   1      -4.055  -0.555   0.861  0.00  0.00    -0.158 NA
ATOM     10  H   UNL d   1      -6.147  -0.550   1.032  0.00  0.00     0.185 HD
ATOM     11  C   UNL d   1      -3.310   0.024  -0.069  0.00  0.00     0.157 A 
ATOM     12  N   UNL d   1      -4.029   0.606  -1.105  0.00  0.00    -0.337 N 
ATOM     13  C   UNL d   1      -3.570   1.494  -2.127  0.00  0.00     0.154 C 
BRANCH  11  14
ATOM     14  C   UNL d   1      -1.833   0.014  -0.002  0.00  0.00     0.011 A 
ATOM     15  C   UNL d   1      -1.148  -1.202   0.015  0.00  0.00     0.016 A 
ATOM     16  C   UNL d   1       0.252  -1.211   0.011  0.00  0.00     0.007 A 
ATOM     17  C   UNL d   1       0.972  -0.008   0.001  0.00  0.00    -0.062 A 
ATOM     18  C   UNL d   1       2.473  -0.002  -0.014  0.00  0.00     0.048 C 
ATOM     19  C   UNL d   1       0.272   1.205   0.005  0.00  0.00     0.007 A 
ATOM     20  C   UNL d   1      -1.125   1.217   0.006  0.00  0.00     0.016 A 
ENDBRANCH  11  14
ENDBRANCH   6   7
ENDBRANCH   5   6
ENDBRANCH   1   5
BRANCH   3  21
ATOM     21  C   UNL d   1     -10.607   3.525  -3.297  0.00  0.00     0.264 C 
ATOM     22  O   UNL d   1     -11.781   2.711  -3.556  0.00  0.00    -0.353 OA
ATOM     23  C   UNL d   1     -12.729   2.910  -2.471  0.00  0.00     0.152 C 
ATOM     24  C   UNL d   1     -12.061   3.847  -1.540  0.00  0.00    -0.017 C 
ATOM     25  C   UNL d   1     -13.079   1.572  -1.847  0.00  0.00     0.044 C 
ATOM     26  C   UNL d   1     -10.917   4.258  -2.070  0.00  0.00     0.066 C 
ATOM     27  C   UNL d   1     -12.556   4.260  -0.211  0.00  0.00     0.105 C 
ATOM     28  C   UNL d   1     -10.042   5.186  -1.365  0.00  0.00     0.266 C 
ATOM     29  O   UNL d   1      -9.025   5.644  -1.891  0.00  0.00    -0.266 OA
ATOM     30  N   UNL d   1     -10.402   5.465  -0.066  0.00  0.00    -0.287 N 
ATOM     31  N   UNL d   1     -11.629   5.119   0.552  0.00  0.00    -0.229 NA
ATOM     32  H   UNL d   1      -9.690   5.933   0.487  0.00  0.00     0.184 HD
ATOM     33  H   UNL d   1     -12.099   5.999   0.769  0.00  0.00     0.147 HD
ATOM     34  C   UNL d   1     -13.853   5.029  -0.424  0.00  0.00     0.033 C 
ENDBRANCH   3  21
TORSDOF 5
