REMARK  8 active torsions:
REMARK  status: ('A' for Active; 'I' for Inactive)
REMARK    1  A    between atoms: C_2  and  O_3 
REMARK    2  A    between atoms: O_3  and  C_4 
REMARK    3  A    between atoms: C_9  and  N_10 
REMARK       I    between atoms: N_10  and  C_11 
REMARK       I    between atoms: C_11  and  N_12 
REMARK       I    between atoms: C_11  and  N_24 
REMARK       I    between atoms: N_12  and  C_13 
REMARK    4  A    between atoms: C_13  and  C_15 
REMARK    5  A    between atoms: C_19  and  N_20 
REMARK    6  A    between atoms: N_24  and  C_25 
REMARK    7  A    between atoms: C_25  and  C_26 
REMARK    8  A    between atoms: C_26  and  C_27 
ROOT
ATOM      1  N   UNL d   1       4.626  -0.568  -2.096  0.00  0.00    -0.187 N 
ATOM      2  C   UNL d   1       3.127  -0.494  -1.940  0.00  0.00     0.704 C 
ATOM      3  N   UNL d   1       2.282   0.562  -1.641  0.00  0.00    -0.027 NA
ATOM      4  C   UNL d   1       2.392   1.705  -0.601  0.00  0.00     0.278 C 
ATOM      5  O   UNL d   1       2.996   1.823   0.479  0.00  0.00    -0.269 OA
ATOM      6  N   UNL d   1       2.612  -1.919  -2.014  0.00  0.00    -0.224 N 
ATOM      7  H   UNL d   1       5.086  -1.461  -1.924  0.00  0.00     0.184 HD
ATOM      8  H   UNL d   1       3.333  -2.636  -1.919  0.00  0.00     0.177 HD
ENDROOT
BRANCH   1   9
ATOM      9  C   UNL d   1       5.442   0.469  -1.550  0.00  0.00     0.082 C 
ATOM     10  C   UNL d   1       6.794   0.787  -1.594  0.00  0.00     0.033 C 
ATOM     11  C   UNL d   1       7.282   2.055  -1.107  0.00  0.00     0.002 C 
ATOM     12  C   UNL d   1       6.425   3.016  -0.589  0.00  0.00     0.003 C 
ATOM     13  C   UNL d   1       5.166   2.555  -0.278  0.00  0.00     0.039 C 
ATOM     14  C   UNL d   1       4.795   1.186  -0.611  0.00  0.00     0.096 C 
BRANCH  14  15
ATOM     15  O   UNL d   1       4.156   0.141   0.203  0.00  0.00    -0.349 OA
BRANCH  15  16
ATOM     16  C   UNL d   1       2.754  -0.451   0.645  0.00  0.00     0.171 C 
ATOM     17  C   UNL d   1       0.996  -0.318   0.279  0.00  0.00     0.034 C 
ENDBRANCH  15  16
ENDBRANCH  14  15
ENDBRANCH   1   9
BRANCH   6  18
ATOM     18  C   UNL d   1       1.326  -2.442  -1.438  0.00  0.00     0.142 C 
BRANCH  18  19
ATOM     19  C   UNL d   1       0.959  -3.902  -1.696  0.00  0.00     0.057 C 
BRANCH  19  20
ATOM     20  C   UNL d   1      -0.469  -4.321  -1.377  0.00  0.00    -0.048 A 
ATOM     21  C   UNL d   1      -0.895  -5.540  -1.700  0.00  0.00    -0.006 A 
ATOM     22  C   UNL d   1      -0.206  -6.625  -2.312  0.00  0.00     0.014 A 
ATOM     23  C   UNL d   1      -2.321  -5.617  -1.388  0.00  0.00     0.038 A 
ATOM     24  C   UNL d   1      -0.913  -7.683  -2.705  0.00  0.00     0.001 A 
ATOM     25  C   UNL d   1      -2.327  -7.806  -2.389  0.00  0.00     0.002 A 
ATOM     26  C   UNL d   1      -3.043  -6.843  -1.761  0.00  0.00     0.030 A 
ATOM     27  N   UNL d   1      -2.732  -4.522  -0.814  0.00  0.00    -0.385 N 
ATOM     28  C   UNL d   1      -1.604  -3.532  -0.763  0.00  0.00     0.155 A 
ATOM     29  H   UNL d   1      -3.678  -4.425  -0.474  0.00  0.00     0.160 HD
ENDBRANCH  19  20
ENDBRANCH  18  19
ENDBRANCH   6  18
BRANCH   4  30
ATOM     30  C   UNL d   1       1.431   2.686  -0.066  0.00  0.00     0.105 C 
ATOM     31  C   UNL d   1       1.825   3.962  -0.331  0.00  0.00    -0.001 C 
ATOM     32  C   UNL d   1       1.446   4.962   0.581  0.00  0.00    -0.000 C 
ATOM     33  C   UNL d   1       0.619   4.632   1.667  0.00  0.00     0.029 C 
ATOM     34  C   UNL d   1       0.353   3.342   2.129  0.00  0.00     0.027 C 
ATOM     35  C   UNL d   1       0.975   2.410   1.282  0.00  0.00     0.028 C 
BRANCH  34  36
ATOM     36  N   UNL d   1      -0.331   2.894   3.196  0.00  0.00    -0.390 N 
ATOM     37  C   UNL d   1      -1.064   3.871   3.990  0.00  0.00     0.149 C 
ATOM     38  C   UNL d   1      -0.511   1.480   3.616  0.00  0.00     0.149 C 
ENDBRANCH  34  36
ENDBRANCH   4  30
TORSDOF 8
