@<TRIPOS>MOLECULE
*****
 73 77 0 0 0
SMALL
GASTEIGER

@<TRIPOS>ATOM
      1 C           1.0459    0.0509   -0.0547 C.3     1  UNL1        0.0820
      2 O           2.4757    0.0835   -0.0870 O.3     1  UNL1       -0.4635
      3 C           3.0512    0.2728    1.1181 C.2     1  UNL1        0.3554
      4 O           2.4689    0.4109    2.1973 O.2     1  UNL1       -0.2435
      5 C           4.5198    0.2499    1.0010 C.2     1  UNL1        0.1425
      6 C           5.3204    0.8394    0.0903 C.2     1  UNL1        0.0392
      7 N           6.6590    0.6988    0.4633 N.pl3   1  UNL1       -0.2480
      8 C           7.8833    0.8485   -0.3912 C.3     1  UNL1        0.0857
      9 C           8.6706   -0.4593   -0.5867 C.3     1  UNL1        0.0240
     10 C           9.8497   -0.4685    0.3826 C.3     1  UNL1        0.0590
     11 C          10.9786   -1.4556    0.0204 C.2     1  UNL1        0.2614
     12 O          12.1107   -1.0383   -0.2149 O.2     1  UNL1       -0.2696
     13 N          10.6385   -2.8072    0.0407 N.am    1  UNL1       -0.3104
     14 C          11.6331   -3.8338   -0.2744 C.3     1  UNL1        0.0158
     15 C          11.1230   -5.2843   -0.2563 C.3     1  UNL1       -0.0101
     16 C          12.1787   -6.2871   -0.6375 C.ar    1  UNL1       -0.0209
     17 C          13.4456   -6.0400   -1.1338 C.ar    1  UNL1        0.0060
     18 N          14.0797   -7.2366   -1.3397 N.ar    1  UNL1       -0.3604
     19 C          13.2316   -8.2766   -1.0437 C.ar    1  UNL1        0.0467
     20 C          13.4228   -9.6599   -1.1527 C.ar    1  UNL1       -0.0378
     21 C          12.3518  -10.4888   -0.8036 C.ar    1  UNL1       -0.0598
     22 C          11.1533   -9.9562   -0.3354 C.ar    1  UNL1       -0.0611
     23 C          10.9891   -8.5733   -0.2110 C.ar    1  UNL1       -0.0523
     24 C          12.0388   -7.7126   -0.5878 C.ar    1  UNL1        0.0029
     25 N          10.2517    1.0681    0.4568 N.4     1  UNL1        0.2483
     26 C          10.9881    1.5454    1.7354 C.3     1  UNL1       -0.0092
     27 C          10.2675    1.3314    3.0437 C.2     1  UNL1       -0.0277
     28 C           8.9122    0.7744    2.9723 C.3     1  UNL1       -0.0385
     29 C          10.6740    1.6767    4.2806 C.2     1  UNL1       -0.0506
     30 C           9.8487    1.3466    5.4755 C.ar    1  UNL1       -0.0249
     31 C           9.6132    2.3042    6.4545 C.ar    1  UNL1       -0.0546
     32 C           8.9009    1.9524    7.6068 C.ar    1  UNL1       -0.0612
     33 C           8.2902    0.7007    7.7241 C.ar    1  UNL1       -0.0617
     34 C           8.4480   -0.2389    6.7229 C.ar    1  UNL1       -0.0612
     35 C           9.2806    0.0638    5.6545 C.ar    1  UNL1       -0.0546
     36 C           8.9505    1.8831    0.0928 C.3     1  UNL1       -0.0101
     37 N           6.6233    0.0883    1.7684 N.3     1  UNL1       -0.1603
     38 N           5.3276   -0.3739    1.9237 N.pl3   1  UNL1       -0.2574
     39 H           0.6925   -0.1777   -1.0635 H       1  UNL1        0.0661
     40 H           0.6543    1.0301    0.2367 H       1  UNL1        0.0661
     41 H           0.6788   -0.7288    0.6220 H       1  UNL1        0.0661
     42 H           5.0289    1.4034   -0.7793 H       1  UNL1        0.0817
     43 H           7.5280    1.1842   -1.3720 H       1  UNL1        0.0571
     44 H           9.0726   -0.4876   -1.6066 H       1  UNL1        0.0345
     45 H           8.0410   -1.3442   -0.4583 H       1  UNL1        0.0345
     46 H           9.5462   -0.8104    1.3677 H       1  UNL1        0.0951
     47 H           9.7178   -3.1295    0.3232 H       1  UNL1        0.1489
     48 H          12.4625   -3.7265    0.4350 H       1  UNL1        0.0465
     49 H          12.0164   -3.5931   -1.2718 H       1  UNL1        0.0465
     50 H          10.2757   -5.3919   -0.9461 H       1  UNL1        0.0329
     51 H          10.7429   -5.5335    0.7437 H       1  UNL1        0.0329
     52 H          13.9577   -5.1143   -1.3603 H       1  UNL1        0.0810
     53 H          15.0228   -7.3437   -1.6891 H       1  UNL1        0.1653
     54 H          14.3565  -10.0826   -1.5114 H       1  UNL1        0.0638
     55 H          12.4546  -11.5673   -0.9030 H       1  UNL1        0.0618
     56 H          10.3328  -10.6185   -0.0708 H       1  UNL1        0.0618
     57 H          10.0509   -8.1692    0.1541 H       1  UNL1        0.0624
     58 H          10.9476    1.2038   -0.2943 H       1  UNL1        0.2045
     59 H          11.9583    1.0363    1.7425 H       1  UNL1        0.0864
     60 H          11.1751    2.6189    1.5880 H       1  UNL1        0.0864
     61 H           8.6197    0.7777    1.9627 H       1  UNL1        0.0276
     62 H           8.1825    1.4195    3.4609 H       1  UNL1        0.0276
     63 H           8.8321   -0.2812    3.2274 H       1  UNL1        0.0276
     64 H          11.6020    2.2077    4.4623 H       1  UNL1        0.0625
     65 H           9.9876    3.3185    6.3468 H       1  UNL1        0.0623
     66 H           8.8349    2.6545    8.4327 H       1  UNL1        0.0618
     67 H           7.7121    0.4478    8.6079 H       1  UNL1        0.0618
     68 H           7.9781   -1.2174    6.7850 H       1  UNL1        0.0618
     69 H           9.4529   -0.7411    4.9481 H       1  UNL1        0.0623
     70 H           9.2367    2.5967   -0.6871 H       1  UNL1        0.0834
     71 H           8.6229    2.4711    0.9608 H       1  UNL1        0.0834
     72 H           6.6723    0.8698    2.4441 H       1  UNL1        0.1678
     73 H           4.9672   -0.8580    2.7451 H       1  UNL1        0.1681
@<TRIPOS>UNITY_ATOM_ATTR
25 1
charge 1
@<TRIPOS>BOND
     1     1     2    1
     2     2     3    1
     3     3     4    2
     4     3     5    1
     5     5     6    2
     6     6     7    1
     7     7     8    1
     8     8     9    1
     9     9    10    1
    10    10    11    1
    11    11    12    2
    12    11    13   am
    13    13    14    1
    14    14    15    1
    15    15    16    1
    16    16    17   ar
    17    17    18   ar
    18    18    19   ar
    19    19    20   ar
    20    20    21   ar
    21    21    22   ar
    22    22    23   ar
    23    23    24   ar
    24    16    24   ar
    25    19    24   ar
    26    10    25    1
    27    26    27    1
    28    27    28    1
    29    27    29    2
    30    29    30    1
    31    30    31   ar
    32    31    32   ar
    33    32    33   ar
    34    33    34   ar
    35    34    35   ar
    36    30    35   ar
    37    25    36    1
    38     8    36    1
    39     7    37    1
    40    37    38    1
    41     5    38    1
    42    25    26    1
    43     1    39    1
    44     1    40    1
    45     1    41    1
    46     6    42    1
    47     8    43    1
    48     9    44    1
    49     9    45    1
    50    10    46    1
    51    13    47    1
    52    14    48    1
    53    14    49    1
    54    15    50    1
    55    15    51    1
    56    17    52    1
    57    18    53    1
    58    20    54    1
    59    21    55    1
    60    22    56    1
    61    23    57    1
    62    25    58    1
    63    26    59    1
    64    26    60    1
    65    28    61    1
    66    28    62    1
    67    28    63    1
    68    29    64    1
    69    31    65    1
    70    32    66    1
    71    33    67    1
    72    34    68    1
    73    35    69    1
    74    36    70    1
    75    36    71    1
    76    37    72    1
    77    38    73    1
