REMARK  6 active torsions:
REMARK  status: ('A' for Active; 'I' for Inactive)
REMARK    1  A    between atoms: O_2  and  C_3 
REMARK       I    between atoms: C_3  and  N_5 
REMARK    2  A    between atoms: N_5  and  C_6 
REMARK    3  A    between atoms: C_9  and  C_10 
REMARK    4  A    between atoms: C_10  and  N_11 
REMARK       I    between atoms: N_11  and  C_12 
REMARK    5  A    between atoms: C_12  and  C_14 
REMARK       I    between atoms: C_14  and  N_16 
REMARK    6  A    between atoms: N_16  and  C_17 
ROOT
ATOM      1  N   UNL d   1       7.093  -3.528   6.345  0.00  0.00    -0.349 N 
ATOM      2  C   UNL d   1       7.665  -4.101   7.466  0.00  0.00     0.309 C 
ATOM      3  O   UNL d   1       8.691  -3.734   8.017  0.00  0.00    -0.262 OA
ATOM      4  H   UNL d   1       6.216  -3.951   6.062  0.00  0.00     0.163 HD
ENDROOT
BRANCH   1   5
ATOM      5  C   UNL d   1       7.630  -2.372   5.641  0.00  0.00     0.161 C 
BRANCH   5   6
ATOM      6  C   UNL d   1       6.811  -1.878   4.455  0.00  0.00    -0.040 A 
ATOM      7  C   UNL d   1       7.212  -0.735   3.730  0.00  0.00     0.011 A 
ATOM      8  C   UNL d   1       6.406  -0.192   2.701  0.00  0.00     0.030 A 
ATOM      9  C   UNL d   1       5.197  -0.802   2.355  0.00  0.00     0.036 A 
ATOM     10  C   UNL d   1       4.819  -1.950   3.046  0.00  0.00     0.030 A 
ATOM     11  C   UNL d   1       5.615  -2.486   4.061  0.00  0.00     0.011 A 
BRANCH   9  12
ATOM     12  N   UNL d   1       4.395  -0.327   1.292  0.00  0.00    -0.303 N 
ATOM     13  C   UNL d   1       3.018  -0.405   1.281  0.00  0.00     0.364 C 
ATOM     14  O   UNL d   1       2.315  -0.769   2.226  0.00  0.00    -0.238 OA
ATOM     15  H   UNL d   1       4.840   0.137   0.510  0.00  0.00     0.171 HD
BRANCH  13  16
ATOM     16  O   UNL d   1       2.493   0.024   0.099  0.00  0.00    -0.309 OA
ATOM     17  C   UNL d   1       1.054   0.017   0.086  0.00  0.00     0.215 C 
ENDBRANCH  13  16
ENDBRANCH   9  12
ENDBRANCH   5   6
ENDBRANCH   1   5
BRANCH   2  18
ATOM     18  C   UNL d   1       6.864  -5.322   8.005  0.00  0.00     0.313 C 
ATOM     19  O   UNL d   1       5.851  -5.649   7.394  0.00  0.00    -0.262 OA
ATOM     20  N   UNL d   1       7.353  -5.910   9.169  0.00  0.00    -0.319 N 
ATOM     21  H   UNL d   1       8.117  -5.440   9.648  0.00  0.00     0.169 HD
BRANCH  20  22
ATOM     22  C   UNL d   1       6.838  -7.113   9.714  0.00  0.00     0.036 A 
ATOM     23  C   UNL d   1       6.862  -7.351  11.095  0.00  0.00     0.029 A 
ATOM     24  C   UNL d   1       6.442  -8.591  11.610  0.00  0.00     0.004 A 
ATOM     25  C   UNL d   1       5.975  -9.587  10.752  0.00  0.00     0.024 A 
ATOM     26  C   UNL d   1       5.953  -9.350   9.382  0.00  0.00     0.036 A 
ATOM     27 CL   UNL d   1       5.470 -10.598   8.300  0.00  0.00    -0.084 Cl
ATOM     28  C   UNL d   1       6.371  -8.123   8.868  0.00  0.00     0.053 A 
ENDBRANCH  20  22
ENDBRANCH   2  18
TORSDOF 6
