@<TRIPOS>MOLECULE
*****
 33 34 0 0 0
SMALL
GASTEIGER

@<TRIPOS>ATOM
      1 C           2.4821    0.0039   -0.0144 C.3     1  UNL1       -0.0397
      2 C           0.9807    0.0119    0.0073 C.ar    1  UNL1       -0.0497
      3 C           0.2590   -1.1834    0.0004 C.ar    1  UNL1       -0.0588
      4 C          -1.1342   -1.1538   -0.0044 C.ar    1  UNL1       -0.0608
      5 C          -1.8155    0.0716    0.0133 C.ar    1  UNL1       -0.0496
      6 C          -1.1140    1.2885    0.0613 C.ar    1  UNL1        0.0384
      7 C          -1.8962    2.5802    0.1409 C.2     1  UNL1        0.2602
      8 O          -3.1239    2.5705    0.0190 O.2     1  UNL1       -0.2687
      9 N          -1.1810    3.7631    0.3459 N.am    1  UNL1       -0.2301
     10 N          -1.8319    4.9963   -0.0106 N.am    1  UNL1       -0.2301
     11 C          -1.1087    6.1834    0.0013 C.2     1  UNL1        0.2616
     12 O          -1.4844    7.1347    0.6882 O.2     1  UNL1       -0.2686
     13 C           0.0830    6.3486   -0.9091 C.ar    1  UNL1        0.0564
     14 C           0.7977    7.5728   -0.8338 C.ar    1  UNL1       -0.0482
     15 C           1.8817    7.8407   -1.6870 C.ar    1  UNL1       -0.0610
     16 C           2.2976    6.8839   -2.6024 C.ar    1  UNL1       -0.0603
     17 C           1.6114    5.6836   -2.6892 C.ar    1  UNL1       -0.0427
     18 C           0.4861    5.4329   -1.8972 C.ar    1  UNL1        0.0531
     19 CL         -0.3354    3.9959   -2.3889 Cl      1  UNL1       -0.0828
     20 C           0.2899    1.2386    0.0367 C.ar    1  UNL1       -0.0467
     21 H           2.8819   -1.0153   -0.0014 H       1  UNL1        0.0278
     22 H           2.8721    0.5284    0.8638 H       1  UNL1        0.0278
     23 H           2.8467    0.4976   -0.9210 H       1  UNL1        0.0278
     24 H           0.7751   -2.1422   -0.0037 H       1  UNL1        0.0620
     25 H          -1.6898   -2.0897   -0.0150 H       1  UNL1        0.0618
     26 H          -2.9044    0.0638   -0.0009 H       1  UNL1        0.0625
     27 H          -0.1857    3.7547    0.1700 H       1  UNL1        0.1731
     28 H          -2.7762    5.0512    0.3717 H       1  UNL1        0.1731
     29 H           0.4963    8.3586   -0.1374 H       1  UNL1        0.0625
     30 H           2.3974    8.7991   -1.6501 H       1  UNL1        0.0618
     31 H           3.1278    7.0701   -3.2780 H       1  UNL1        0.0618
     32 H           1.9224    4.9417   -3.4213 H       1  UNL1        0.0632
     33 H           0.8908    2.1396    0.0335 H       1  UNL1        0.0628
@<TRIPOS>BOND
     1     1     2    1
     2     2     3   ar
     3     3     4   ar
     4     4     5   ar
     5     5     6   ar
     6     6     7    1
     7     7     8    2
     8     7     9   am
     9     9    10    1
    10    10    11   am
    11    11    12    2
    12    11    13    1
    13    13    14   ar
    14    14    15   ar
    15    15    16   ar
    16    16    17   ar
    17    17    18   ar
    18    13    18   ar
    19    18    19    1
    20     6    20   ar
    21     2    20   ar
    22     1    21    1
    23     1    22    1
    24     1    23    1
    25     3    24    1
    26     4    25    1
    27     5    26    1
    28     9    27    1
    29    10    28    1
    30    14    29    1
    31    15    30    1
    32    16    31    1
    33    17    32    1
    34    20    33    1
