@<TRIPOS>MOLECULE
*****
 52 53 0 0 0
SMALL
GASTEIGER

@<TRIPOS>ATOM
      1 C           0.8819   -0.0876   -0.0508 C.3     1  UNL1       -0.0495
      2 C           2.3957   -0.0698   -0.0995 C.3     1  UNL1        0.0091
      3 N           2.9750   -1.4073    0.0677 N.am    1  UNL1       -0.3116
      4 C           4.3365   -1.6872    0.0026 C.2     1  UNL1        0.2441
      5 O           4.7432   -2.6001   -0.7088 O.2     1  UNL1       -0.2702
      6 C           5.2802   -0.9504    0.8965 C.ar    1  UNL1        0.0385
      7 C           6.6533   -1.1621    0.8756 C.ar    1  UNL1       -0.0493
      8 C           7.4606   -0.4876    1.8056 C.ar    1  UNL1       -0.0564
      9 C           6.9114    0.4357    2.7373 C.ar    1  UNL1       -0.0292
     10 C           7.8331    1.1111    3.7109 C.3     1  UNL1       -0.0380
     11 C           5.5236    0.6479    2.7566 C.ar    1  UNL1        0.0374
     12 N           4.8620    1.5598    3.6347 N.am    1  UNL1       -0.2775
     13 C           3.4794    1.8256    3.6569 C.2     1  UNL1        0.3032
     14 O           2.5983    1.3989    2.9215 O.2     1  UNL1       -0.2648
     15 C           3.0019    2.7889    4.7586 C.2     1  UNL1        0.2998
     16 O           3.7901    3.1378    5.6131 O.2     1  UNL1       -0.2652
     17 N           1.6628    3.1804    4.6288 N.am    1  UNL1       -0.3000
     18 C           0.9951    4.1763    5.4916 C.3     1  UNL1        0.0572
     19 C           1.5664    5.5957    5.2222 C.ar    1  UNL1        0.0102
     20 C           1.0329    6.8329    5.5499 C.ar    1  UNL1       -0.0497
     21 C           1.7954    7.9543    5.1528 C.ar    1  UNL1       -0.0544
     22 C           2.9917    7.5720    4.6193 C.ar    1  UNL1       -0.0240
     23 S           3.1093    5.8831    4.4824 S.2     1  UNL1       -0.0997
     24 C          -0.5826    4.1441    5.3167 C.3     1  UNL1       -0.0236
     25 C          -1.1816    2.7443    5.5128 C.3     1  UNL1       -0.0607
     26 C          -1.3787    5.0121    6.3156 C.3     1  UNL1       -0.0607
     27 C           4.7648   -0.1231    1.8891 C.ar    1  UNL1       -0.0281
     28 H           0.5017    0.9393   -0.0183 H       1  UNL1        0.0245
     29 H           0.5216   -0.6062    0.8445 H       1  UNL1        0.0245
     30 H           0.4680   -0.5845   -0.9312 H       1  UNL1        0.0245
     31 H           2.7091    0.6075    0.6848 H       1  UNL1        0.0459
     32 H           2.7783    0.3716   -1.0238 H       1  UNL1        0.0459
     33 H           2.4398   -2.1525   -0.3600 H       1  UNL1        0.1490
     34 H           7.0914   -1.8820    0.1857 H       1  UNL1        0.0625
     35 H           8.5303   -0.7004    1.8061 H       1  UNL1        0.0621
     36 H           8.8723    0.7889    3.5767 H       1  UNL1        0.0278
     37 H           7.5429    0.8585    4.7358 H       1  UNL1        0.0278
     38 H           7.7976    2.1947    3.5721 H       1  UNL1        0.0278
     39 H           5.4235    2.0866    4.2972 H       1  UNL1        0.1553
     40 H           1.1351    2.7078    3.8983 H       1  UNL1        0.1498
     41 H           1.2361    3.8837    6.5215 H       1  UNL1        0.0556
     42 H           0.1188    7.0248    6.0656 H       1  UNL1        0.0626
     43 H           1.4715    8.9736    5.3110 H       1  UNL1        0.0623
     44 H           3.7951    8.2125    4.2927 H       1  UNL1        0.0693
     45 H          -0.8250    4.4784    4.2981 H       1  UNL1        0.0317
     46 H          -1.0075    2.3947    6.5365 H       1  UNL1        0.0233
     47 H          -0.7850    2.0101    4.8120 H       1  UNL1        0.0233
     48 H          -2.2701    2.7803    5.3638 H       1  UNL1        0.0233
     49 H          -1.0859    4.7974    7.3485 H       1  UNL1        0.0233
     50 H          -2.4574    4.8594    6.2097 H       1  UNL1        0.0233
     51 H          -1.3102    6.0754    6.1468 H       1  UNL1        0.0233
     52 H           3.7046   -0.1537    2.0400 H       1  UNL1        0.0644
@<TRIPOS>BOND
     1     1     2    1
     2     2     3    1
     3     3     4   am
     4     4     5    2
     5     4     6    1
     6     6     7   ar
     7     7     8   ar
     8     8     9   ar
     9     9    10    1
    10     9    11   ar
    11    11    12    1
    12    12    13   am
    13    13    14    2
    14    13    15    1
    15    15    16    2
    16    15    17   am
    17    17    18    1
    18    18    19    1
    19    19    20   ar
    20    20    21   ar
    21    21    22   ar
    22    22    23   ar
    23    19    23   ar
    24    18    24    1
    25    24    25    1
    26    24    26    1
    27    11    27   ar
    28     6    27   ar
    29     1    28    1
    30     1    29    1
    31     1    30    1
    32     2    31    1
    33     2    32    1
    34     3    33    1
    35     7    34    1
    36     8    35    1
    37    10    36    1
    38    10    37    1
    39    10    38    1
    40    12    39    1
    41    17    40    1
    42    18    41    1
    43    20    42    1
    44    21    43    1
    45    22    44    1
    46    24    45    1
    47    25    46    1
    48    25    47    1
    49    25    48    1
    50    26    49    1
    51    26    50    1
    52    26    51    1
    53    27    52    1
