@<TRIPOS>MOLECULE
*****
 41 41 0 0 0
SMALL
GASTEIGER

@<TRIPOS>ATOM
      1 C           1.0311   -0.0809    0.0344 C.3     1  UNL1       -0.0627
      2 C           2.5648   -0.1059    0.0254 C.3     1  UNL1       -0.0463
      3 C           3.0410   -1.5439    0.2287 C.3     1  UNL1       -0.0627
      4 C           3.1059    0.4911   -1.2908 C.3     1  UNL1       -0.0424
      5 C           4.6442    0.5435   -1.3793 C.3     1  UNL1        0.0256
      6 C           5.1301    1.1300   -2.7057 C.2     1  UNL1        0.2291
      7 O           4.3651    1.5115   -3.5919 O.2     1  UNL1       -0.2743
      8 N           6.5077    1.1914   -2.8541 N.am    1  UNL1       -0.2342
      9 N           7.0488    1.7056   -4.0653 N.am    1  UNL1       -0.2309
     10 C           8.4209    1.7629   -4.2311 C.2     1  UNL1        0.2530
     11 O           9.2164    1.3944   -3.3662 O.2     1  UNL1       -0.2693
     12 C           8.8772    2.3133   -5.5468 C.2     1  UNL1        0.0022
     13 C          10.1855    2.4200   -5.8611 C.2     1  UNL1       -0.0494
     14 C          10.6703    3.0147   -7.1254 C.ar    1  UNL1       -0.0185
     15 C          11.7194    2.4409   -7.8638 C.ar    1  UNL1       -0.0542
     16 C          12.2014    3.0557   -9.0328 C.ar    1  UNL1       -0.0548
     17 C          11.6113    4.2277   -9.5070 C.ar    1  UNL1        0.0156
     18 C          10.5857    4.8166   -8.7616 C.ar    1  UNL1        0.2737
     19 N           9.9923    6.0847   -9.2000 N.pl3   1  UNL1        0.0796
     20 O          10.4091    6.5855  -10.2532 O.2     1  UNL1        0.0414
     21 O           9.1086    6.5818   -8.4863 O.co2   1  UNL1       -0.5760
     22 C          10.1280    4.2246   -7.5748 C.ar    1  UNL1        0.0227
     23 H           0.6395   -0.4853    0.9750 H       1  UNL1        0.0232
     24 H           0.6211   -0.6840   -0.7836 H       1  UNL1        0.0232
     25 H           0.6500    0.9397   -0.0734 H       1  UNL1        0.0232
     26 H           2.9181    0.5052    0.8659 H       1  UNL1        0.0296
     27 H           2.7091   -2.1821   -0.5975 H       1  UNL1        0.0232
     28 H           2.6473   -1.9600    1.1614 H       1  UNL1        0.0232
     29 H           4.1308   -1.6008    0.2876 H       1  UNL1        0.0232
     30 H           2.7057    1.5072   -1.4082 H       1  UNL1        0.0272
     31 H           2.7133   -0.0906   -2.1351 H       1  UNL1        0.0272
     32 H           5.0597   -0.4658   -1.2954 H       1  UNL1        0.0359
     33 H           5.0342    1.1446   -0.5497 H       1  UNL1        0.0359
     34 H           7.1768    0.8731   -2.1545 H       1  UNL1        0.1728
     35 H           6.3659    2.0064   -4.7598 H       1  UNL1        0.1731
     36 H           8.1123    2.6336   -6.2445 H       1  UNL1        0.0670
     37 H          10.9567    2.0980   -5.1618 H       1  UNL1        0.0625
     38 H          12.1710    1.5001   -7.5511 H       1  UNL1        0.0623
     39 H          13.0425    2.6233   -9.5740 H       1  UNL1        0.0620
     40 H          11.9614    4.6679  -10.4394 H       1  UNL1        0.0685
     41 H           9.3523    4.7116   -6.9884 H       1  UNL1        0.0691
@<TRIPOS>UNITY_ATOM_ATTR
19 1
charge 1
21 1
charge -1
@<TRIPOS>BOND
     1     1     2    1
     2     2     3    1
     3     2     4    1
     4     4     5    1
     5     5     6    1
     6     6     7    2
     7     6     8   am
     8     8     9    1
     9     9    10   am
    10    10    11    2
    11    10    12    1
    12    12    13    2
    13    13    14    1
    14    14    15   ar
    15    15    16   ar
    16    16    17   ar
    17    17    18   ar
    18    18    19    1
    19    19    20    2
    20    19    21    1
    21    18    22   ar
    22    14    22   ar
    23     1    23    1
    24     1    24    1
    25     1    25    1
    26     2    26    1
    27     3    27    1
    28     3    28    1
    29     3    29    1
    30     4    30    1
    31     4    31    1
    32     5    32    1
    33     5    33    1
    34     8    34    1
    35     9    35    1
    36    12    36    1
    37    13    37    1
    38    15    38    1
    39    16    39    1
    40    17    40    1
    41    22    41    1
