REMARK  6 active torsions:
REMARK  status: ('A' for Active; 'I' for Inactive)
REMARK       I    between atoms: C_2  and  N_3 
REMARK    1  A    between atoms: C_2  and  C_19 
REMARK    2  A    between atoms: N_3  and  C_4 
REMARK    3  A    between atoms: C_7  and  N_8 
REMARK    4  A    between atoms: C_14  and  N_15 
REMARK    5  A    between atoms: C_21  and  N_22 
REMARK    6  A    between atoms: C_27  and  N_28 
ROOT
ATOM      1  O   UNL d   1       0.979  -0.015   0.317  0.00  0.00    -0.267 OA
ATOM      2  C   UNL d   1       2.201   0.079   0.174  0.00  0.00     0.258 C 
ATOM      3  N   UNL d   1       2.901   1.286   0.263  0.00  0.00    -0.323 N 
ATOM      4  H   UNL d   1       3.878   1.311  -0.011  0.00  0.00     0.169 HD
ENDROOT
BRANCH   3   5
ATOM      5  C   UNL d   1       2.256   2.520   0.539  0.00  0.00     0.037 A 
ATOM      6  C   UNL d   1       2.701   3.715  -0.012  0.00  0.00     0.032 A 
ATOM      7  C   UNL d   1       2.062   4.932   0.323  0.00  0.00     0.034 A 
ATOM      8  C   UNL d   1       0.942   5.015   1.193  0.00  0.00     0.063 A 
ATOM      9  C   UNL d   1       0.539   3.782   1.767  0.00  0.00     0.131 A 
ATOM     10  C   UNL d   1       1.177   2.571   1.416  0.00  0.00     0.068 A 
BRANCH   8  11
ATOM     11  N   UNL d   1       0.318   6.250   1.341  0.00  0.00    -0.376 N 
ATOM     12  C   UNL d   1       0.067   6.905   2.642  0.00  0.00     0.150 C 
ATOM     13  C   UNL d   1      -1.410   7.384   2.724  0.00  0.00     0.252 C 
ATOM     14  N   UNL d   1      -1.729   8.267   1.536  0.00  0.00    -0.072 N 
ATOM     15  C   UNL d   1      -1.460   7.560   0.227  0.00  0.00     0.252 C 
ATOM     16  H   UNL d   1      -1.179   9.131   1.597  0.00  0.00     0.277 HD
ATOM     17  H   UNL d   1      -2.721   8.534   1.584  0.00  0.00     0.277 HD
ATOM     18  C   UNL d   1       0.007   7.074   0.157  0.00  0.00     0.150 C 
ENDBRANCH   8  11
BRANCH   9  19
ATOM     19  N   UNL d   1      -0.575   3.624   2.725  0.00  0.00    -0.113 N 
ATOM     20  O   UNL d   1      -1.261   4.602   3.024  0.00  0.00    -0.532 OA
ATOM     21  O   UNL d   1      -0.777   2.503   3.211  0.00  0.00    -0.532 OA
ENDBRANCH   9  19
ENDBRANCH   3   5
BRANCH   2  22
ATOM     22  C   UNL d   1       2.966  -1.144  -0.193  0.00  0.00     0.061 A 
ATOM     23  C   UNL d   1       4.119  -1.451   0.562  0.00  0.00     0.055 A 
ATOM     24  C   UNL d   1       4.897  -2.565   0.214  0.00  0.00     0.104 A 
ATOM     25  C   UNL d   1       4.468  -3.446  -0.777  0.00  0.00     0.038 A 
ATOM     26  C   UNL d   1       3.287  -3.169  -1.472  0.00  0.00     0.033 A 
ATOM     27  C   UNL d   1       2.517  -2.013  -1.225  0.00  0.00     0.046 A 
BRANCH  24  28
ATOM     28  N   UNL d   1       6.232  -2.744   0.804  0.00  0.00    -0.116 N 
ATOM     29  O   UNL d   1       6.601  -1.911   1.645  0.00  0.00    -0.532 OA
ATOM     30  O   UNL d   1       6.931  -3.676   0.383  0.00  0.00    -0.532 OA
ENDBRANCH  24  28
BRANCH  27  31
ATOM     31  N   UNL d   1       1.429  -1.812  -2.052  0.00  0.00    -0.380 N 
ATOM     32  C   UNL d   1       1.096  -0.549  -2.692  0.00  0.00     0.123 C 
ATOM     33  C   UNL d   1      -0.399  -0.394  -2.458  0.00  0.00     0.021 C 
ATOM     34  C   UNL d   1      -0.906  -1.826  -2.530  0.00  0.00     0.021 C 
ATOM     35  C   UNL d   1       0.249  -2.685  -1.990  0.00  0.00     0.123 C 
ENDBRANCH  27  31
ENDBRANCH   2  22
TORSDOF 6
