REMARK  11 active torsions:
REMARK  status: ('A' for Active; 'I' for Inactive)
REMARK    1  A    between atoms: C_2  and  C_3 
REMARK    2  A    between atoms: C_3  and  C_4 
REMARK    3  A    between atoms: C_4  and  C_5 
REMARK    4  A    between atoms: N_16  and  C_4 
REMARK    5  A    between atoms: N_9  and  C_10 
REMARK    6  A    between atoms: C_10  and  C_11 
REMARK    7  A    between atoms: C_11  and  O_13 
REMARK    8  A    between atoms: O_13  and  C_14 
REMARK    9  A    between atoms: N_16  and  C_30 
REMARK   10  A    between atoms: N_16  and  C_17 
REMARK   11  A    between atoms: C_17  and  C_18 
ROOT
ATOM      1  N   UNL d   1       5.176  -2.451   1.544  0.00  0.00    -0.052 N 
ATOM      2  H   UNL d   1       4.796  -2.460   2.495  0.00  0.00     0.281 HD
ENDROOT
BRANCH   1   3
ATOM      3  C   UNL d   1       6.719  -2.327   1.466  0.00  0.00     0.189 C 
ATOM      4  C   UNL d   1       7.366  -1.191   2.180  0.00  0.00     0.033 C 
ATOM      5  C   UNL d   1       8.856  -1.206   2.380  0.00  0.00     0.002 C 
ATOM      6  C   UNL d   1       9.230  -2.419   3.198  0.00  0.00     0.000 C 
ATOM      7  C   UNL d   1       8.719  -3.619   2.463  0.00  0.00     0.002 C 
ATOM      8  C   UNL d   1       7.254  -3.474   2.197  0.00  0.00     0.033 C 
ENDBRANCH   1   3
BRANCH   1   9
ATOM      9  C   UNL d   1       4.583  -1.148   0.898  0.00  0.00     0.280 C 
BRANCH   9  10
ATOM     10  C   UNL d   1       4.886   0.111   1.618  0.00  0.00     0.036 C 
ATOM     11  C   UNL d   1       5.191   0.159   2.929  0.00  0.00     0.028 C 
ATOM     12  C   UNL d   1       6.163   1.178   3.340  0.00  0.00    -0.009 C 
ATOM     13  C   UNL d   1       7.161   0.929   4.312  0.00  0.00     0.014 C 
ATOM     14  C   UNL d   1       6.238   2.321   2.557  0.00  0.00     0.045 C 
ATOM     15  C   UNL d   1       8.179   1.849   4.503  0.00  0.00     0.007 C 
ATOM     16  C   UNL d   1       7.999   3.121   3.974  0.00  0.00    -0.060 C 
ATOM     17  C   UNL d   1       8.715   4.286   4.565  0.00  0.00     0.048 C 
ATOM     18  C   UNL d   1       7.039   3.352   2.980  0.00  0.00     0.037 C 
ATOM     19  N   UNL d   1       5.540   2.402   1.341  0.00  0.00    -0.322 N 
ATOM     20  C   UNL d   1       4.910   1.329   0.781  0.00  0.00     0.253 C 
ATOM     21  H   UNL d   1       5.583   3.248   0.787  0.00  0.00     0.169 HD
ATOM     22  O   UNL d   1       4.375   1.329  -0.321  0.00  0.00    -0.268 OA
ENDBRANCH   9  10
ENDBRANCH   1   9
BRANCH   1  23
ATOM     23  C   UNL d   1       4.663  -3.874   0.969  0.00  0.00     0.260 C 
BRANCH  23  24
ATOM     24  C   UNL d   1       4.779  -5.113   1.909  0.00  0.00     0.041 C 
BRANCH  24  25
ATOM     25  C   UNL d   1       6.064  -5.886   1.914  0.00  0.00    -0.002 C 
ATOM     26  C   UNL d   1       6.177  -7.091   2.757  0.00  0.00     0.005 C 
ENDBRANCH  24  25
ENDBRANCH  23  24
BRANCH  23  27
ATOM     27  C   UNL d   1       4.888  -4.095  -0.490  0.00  0.00     0.168 A 
ATOM     28  N   UNL d   1       6.008  -4.584  -0.993  0.00  0.00    -0.145 NA
ATOM     29  N   UNL d   1       5.816  -4.724  -2.332  0.00  0.00     0.018 NA
ATOM     30  N   UNL d   1       4.628  -4.260  -2.684  0.00  0.00    -0.003 NA
ATOM     31  N   UNL d   1       4.025  -3.830  -1.549  0.00  0.00    -0.252 N 
BRANCH  31  32
ATOM     32  C   UNL d   1       2.686  -3.196  -1.710  0.00  0.00     0.259 C 
BRANCH  32  33
ATOM     33  C   UNL d   1       2.067  -2.663  -0.454  0.00  0.00     0.278 C 
ATOM     34  O   UNL d   1       2.668  -2.677   0.570  0.00  0.00    -0.263 OA
BRANCH  33  35
ATOM     35  O   UNL d   1       0.854  -2.104  -0.356  0.00  0.00    -0.321 OA
BRANCH  35  36
ATOM     36  C   UNL d   1       0.655  -1.694   1.054  0.00  0.00     0.174 C 
ATOM     37  C   UNL d   1      -0.655  -1.000   1.165  0.00  0.00     0.034 C 
ENDBRANCH  35  36
ENDBRANCH  33  35
ENDBRANCH  32  33
ENDBRANCH  31  32
ENDBRANCH  23  27
ENDBRANCH   1  23
TORSDOF 11
