REMARK  9 active torsions:
REMARK  status: ('A' for Active; 'I' for Inactive)
REMARK    1  A    between atoms: C_2  and  N_3 
REMARK       I    between atoms: N_3  and  C_4 
REMARK    2  A    between atoms: C_4  and  C_6 
REMARK    3  A    between atoms: C_6  and  O_7 
REMARK    4  A    between atoms: O_7  and  C_8 
REMARK    5  A    between atoms: C_11  and  C_12 
REMARK    6  A    between atoms: C_12  and  N_13 
REMARK       I    between atoms: N_13  and  C_14 
REMARK       I    between atoms: C_14  and  N_16 
REMARK    7  A    between atoms: N_16  and  N_17 
REMARK    8  A    between atoms: N_17  and  C_18 
REMARK    9  A    between atoms: C_26  and  O_27 
ROOT
ATOM      1  C   UNL d   1       6.972   3.452  -2.659  0.00  0.00     0.102 A 
ATOM      2  C   UNL d   1       8.110   3.248  -3.477  0.00  0.00     0.040 A 
ATOM      3  C   UNL d   1       8.803   4.318  -4.095  0.00  0.00     0.012 A 
ATOM      4  C   UNL d   1       8.337   5.635  -3.982  0.00  0.00    -0.038 A 
ATOM      5  C   UNL d   1       7.250   5.825  -3.130  0.00  0.00     0.048 A 
ATOM      6  C   UNL d   1       6.578   4.787  -2.448  0.00  0.00     0.102 A 
ENDROOT
BRANCH   4   7
ATOM      7  C   UNL d   1       8.966   6.781  -4.770  0.00  0.00     0.163 C 
BRANCH   7   8
ATOM      8  N   UNL d   1       8.345   8.103  -4.582  0.00  0.00    -0.338 N 
ATOM      9  C   UNL d   1       8.751   9.231  -5.270  0.00  0.00     0.335 C 
ATOM     10  O   UNL d   1       9.641   9.222  -6.098  0.00  0.00    -0.246 OA
ATOM     11  N   UNL d   1       8.067  10.396  -4.870  0.00  0.00    -0.251 N 
ATOM     12  H   UNL d   1       7.174  10.322  -4.401  0.00  0.00     0.191 HD
ATOM     13  H   UNL d   1       7.521   8.188  -4.020  0.00  0.00     0.164 HD
BRANCH  11  14
ATOM     14  N   UNL d   1       8.146  11.488  -5.772  0.00  0.00    -0.297 N 
ATOM     15  H   UNL d   1       9.052  11.539  -6.254  0.00  0.00     0.187 HD
BRANCH  14  16
ATOM     16  C   UNL d   1       7.623  12.750  -5.396  0.00  0.00     0.048 A 
ATOM     17  C   UNL d   1       7.360  13.676  -6.427  0.00  0.00     0.034 A 
ATOM     18  C   UNL d   1       6.842  14.953  -6.165  0.00  0.00     0.044 A 
ATOM     19  C   UNL d   1       6.523  15.300  -4.863  0.00  0.00     0.116 A 
ATOM     20  F   UNL d   1       5.959  16.490  -4.612  0.00  0.00    -0.206 F 
ATOM     21  C   UNL d   1       6.769  14.414  -3.820  0.00  0.00     0.044 A 
ATOM     22  C   UNL d   1       7.324  13.146  -4.085  0.00  0.00     0.034 A 
ENDBRANCH  14  16
ENDBRANCH  11  14
ENDBRANCH   7   8
ENDBRANCH   4   7
BRANCH   6  23
ATOM     23  O   UNL d   1       5.666   5.388  -1.612  0.00  0.00    -0.353 OA
ATOM     24  C   UNL d   1       4.731   4.567  -0.983  0.00  0.00     0.210 C 
ENDBRANCH   6  23
BRANCH   1  25
ATOM     25  O   UNL d   1       6.545   2.302  -2.023  0.00  0.00    -0.339 OA
BRANCH  25  26
ATOM     26  C   UNL d   1       5.184   1.910  -2.124  0.00  0.00     0.278 C 
BRANCH  26  27
ATOM     27  C   UNL d   1       4.612   0.886  -1.125  0.00  0.00     0.241 C 
ATOM     28  N   UNL d   1       3.211   0.931  -1.005  0.00  0.00    -0.360 N 
ATOM     29  H   UNL d   1       2.661   1.679  -1.414  0.00  0.00     0.162 HD
ATOM     30  O   UNL d   1       5.305   0.188  -0.403  0.00  0.00    -0.271 OA
BRANCH  28  31
ATOM     31  C   UNL d   1       2.574   0.008  -0.092  0.00  0.00     0.118 C 
ATOM     32  C   UNL d   1       1.058   0.060  -0.101  0.00  0.00     0.026 C 
ENDBRANCH  28  31
ENDBRANCH  26  27
ENDBRANCH  25  26
ENDBRANCH   1  25
TORSDOF 9
