@<TRIPOS>MOLECULE
*****
 39 40 0 0 0
SMALL
GASTEIGER

@<TRIPOS>ATOM
      1 C           1.0815    0.2547    0.0588 C.3     1  UNL1       -0.0239
      2 C           2.5647    0.0007    0.0579 C.ar    1  UNL1        0.0257
      3 N           3.3086    1.1531    0.0594 N.ar    1  UNL1       -0.3115
      4 C           4.6656    1.2055    0.0593 C.ar    1  UNL1        0.3269
      5 O           5.2646    2.2783    0.0570 O.2     1  UNL1       -0.2467
      6 N           5.3012    0.0070    0.0620 N.ar    1  UNL1       -0.2749
      7 C           4.6811   -1.2105    0.0608 C.ar    1  UNL1        0.2574
      8 O           5.3295   -2.2520    0.0641 O.2     1  UNL1       -0.2674
      9 C           3.1755   -1.2073    0.0556 C.ar    1  UNL1        0.0364
     10 C           2.5502   -2.5990    0.0484 C.3     1  UNL1       -0.0127
     11 C           1.0319   -2.6156    0.0404 C.3     1  UNL1        0.0282
     12 C           0.3619   -3.9521    0.0328 C.2     1  UNL1        0.2136
     13 O           0.9510   -5.0222    0.0311 O.2     1  UNL1       -0.2758
     14 N          -1.0110   -3.8081    0.0272 N.am    1  UNL1       -0.3112
     15 C          -1.8616   -4.9672    0.0193 C.3     1  UNL1        0.0368
     16 C          -3.3478   -4.6945    0.0149 C.ar    1  UNL1       -0.0301
     17 C          -4.2194   -5.8001    0.0205 C.ar    1  UNL1       -0.0536
     18 C          -5.6076   -5.6269    0.0174 C.ar    1  UNL1       -0.0199
     19 C          -6.1348   -4.3419    0.0111 C.ar    1  UNL1        0.1169
     20 O          -7.4778   -4.1140    0.0109 O.3     1  UNL1       -0.5068
     21 C          -5.2992   -3.2365    0.0042 C.ar    1  UNL1       -0.0199
     22 C          -3.9147   -3.4108    0.0038 C.ar    1  UNL1       -0.0536
     23 H           0.8253    1.3164    0.0615 H       1  UNL1        0.0292
     24 H           0.6203   -0.1545    0.9612 H       1  UNL1        0.0292
     25 H           0.6187   -0.1498   -0.8448 H       1  UNL1        0.0292
     26 H           2.8490    2.0564    0.0588 H       1  UNL1        0.1701
     27 H           6.3086    0.0207    0.0647 H       1  UNL1        0.1734
     28 H           2.9001   -3.1539    0.9285 H       1  UNL1        0.0320
     29 H           2.9084   -3.1477   -0.8323 H       1  UNL1        0.0320
     30 H           0.6737   -2.1181   -0.8659 H       1  UNL1        0.0361
     31 H           0.6640   -2.1238    0.9458 H       1  UNL1        0.0361
     32 H          -1.4081   -2.8805    0.0358 H       1  UNL1        0.1490
     33 H          -1.6004   -5.5541    0.9073 H       1  UNL1        0.0512
     34 H          -1.5936   -5.5480   -0.8704 H       1  UNL1        0.0512
     35 H          -3.8161   -6.8124    0.0273 H       1  UNL1        0.0622
     36 H          -6.2523   -6.4999    0.0203 H       1  UNL1        0.0654
     37 H          -7.9386   -4.9684    0.0172 H       1  UNL1        0.2921
     38 H          -5.7197   -2.2350   -0.0013 H       1  UNL1        0.0654
     39 H          -3.3125   -2.5106   -0.0056 H       1  UNL1        0.0622
@<TRIPOS>BOND
     1     1     2    1
     2     2     3   ar
     3     3     4   ar
     4     4     5    2
     5     4     6   ar
     6     6     7   ar
     7     7     8    2
     8     7     9   ar
     9     2     9   ar
    10     9    10    1
    11    10    11    1
    12    11    12    1
    13    12    13    2
    14    12    14   am
    15    14    15    1
    16    15    16    1
    17    16    17   ar
    18    17    18   ar
    19    18    19   ar
    20    19    20    1
    21    19    21   ar
    22    21    22   ar
    23    16    22   ar
    24     1    23    1
    25     1    24    1
    26     1    25    1
    27     3    26    1
    28     6    27    1
    29    10    28    1
    30    10    29    1
    31    11    30    1
    32    11    31    1
    33    14    32    1
    34    15    33    1
    35    15    34    1
    36    17    35    1
    37    18    36    1
    38    20    37    1
    39    21    38    1
    40    22    39    1
