@<TRIPOS>MOLECULE
*****
 46 49 0 0 0
SMALL
GASTEIGER

@<TRIPOS>ATOM
      1 O           0.9553   -0.1151    0.0512 O.2     1  UNL1       -0.2738
      2 C           2.1854   -0.0374   -0.0231 C.2     1  UNL1        0.2343
      3 C           2.8985    1.2167   -0.5794 C.3     1  UNL1        0.0861
      4 N           1.9491    2.2095   -1.0777 N.pl3   1  UNL1       -0.3354
      5 C           2.4035    3.4635   -1.4662 C.ar    1  UNL1        0.0282
      6 C           1.7427    4.6257   -1.0076 C.ar    1  UNL1       -0.0405
      7 C           2.0958    5.9099   -1.4536 C.ar    1  UNL1       -0.0546
      8 C           3.1442    6.0231   -2.3440 C.ar    1  UNL1       -0.0181
      9 C           3.8482    4.8859   -2.7337 C.ar    1  UNL1        0.0431
     10 C           3.5135    3.6120   -2.3073 C.ar    1  UNL1       -0.0284
     11 C           4.9155    5.3145   -3.6420 C.2     1  UNL1        0.2447
     12 O           5.7614    4.5983   -4.1536 O.2     1  UNL1       -0.2702
     13 N           4.7879    6.6760   -3.7940 N.am    1  UNL1       -0.3072
     14 C           3.7059    7.2297   -3.0157 C.3     1  UNL1        0.0379
     15 N           2.9534   -1.1303    0.3288 N.am    1  UNL1       -0.2842
     16 C           4.3509   -1.1889    0.4347 C.ar    1  UNL1        0.0335
     17 C           5.0344   -2.3388    0.0451 C.ar    1  UNL1       -0.0399
     18 C           6.4280   -2.3884    0.1746 C.ar    1  UNL1       -0.0523
     19 C           7.1572   -1.2737    0.6254 C.ar    1  UNL1       -0.0178
     20 C           8.6189   -1.2899    0.6551 C.ar    1  UNL1       -0.0179
     21 C           9.3513   -1.5447   -0.5142 C.ar    1  UNL1       -0.0540
     22 C          10.7362   -1.6913   -0.4656 C.ar    1  UNL1       -0.0612
     23 C          11.4140   -1.4856    0.7336 C.ar    1  UNL1       -0.0617
     24 C          10.7056   -1.1730    1.8918 C.ar    1  UNL1       -0.0612
     25 C           9.3153   -1.0798    1.8535 C.ar    1  UNL1       -0.0540
     26 C           6.4535   -0.1526    1.0579 C.ar    1  UNL1       -0.0523
     27 C           5.0672   -0.1319    0.9943 C.ar    1  UNL1       -0.0399
     28 H           3.5655    0.8971   -1.3864 H       1  UNL1        0.0557
     29 H           3.4619    1.6917    0.2215 H       1  UNL1        0.0557
     30 H           1.0025    2.1122   -0.7192 H       1  UNL1        0.1466
     31 H           0.9341    4.5317   -0.2854 H       1  UNL1        0.0636
     32 H           1.5498    6.7827   -1.1102 H       1  UNL1        0.0622
     33 H           4.0678    2.7591   -2.6824 H       1  UNL1        0.0644
     34 H           5.4177    7.2007   -4.3864 H       1  UNL1        0.1493
     35 H           2.9886    7.7026   -3.6922 H       1  UNL1        0.0512
     36 H           4.1125    7.9497   -2.3017 H       1  UNL1        0.0512
     37 H           2.4260   -1.9814    0.4917 H       1  UNL1        0.1549
     38 H           4.5201   -3.1824   -0.4095 H       1  UNL1        0.0636
     39 H           6.9569   -3.3073   -0.0756 H       1  UNL1        0.0624
     40 H           8.8402   -1.6313   -1.4717 H       1  UNL1        0.0624
     41 H          11.2817   -1.9768   -1.3607 H       1  UNL1        0.0618
     42 H          12.4967   -1.5655    0.7637 H       1  UNL1        0.0618
     43 H          11.2303   -1.0252    2.8312 H       1  UNL1        0.0618
     44 H           8.7712   -0.8583    2.7692 H       1  UNL1        0.0624
     45 H           6.9724    0.7126    1.4632 H       1  UNL1        0.0624
     46 H           4.5698    0.7159    1.4466 H       1  UNL1        0.0636
@<TRIPOS>BOND
     1     1     2    2
     2     2     3    1
     3     3     4    1
     4     4     5    1
     5     5     6   ar
     6     6     7   ar
     7     7     8   ar
     8     8     9   ar
     9     9    10   ar
    10     5    10   ar
    11     9    11    1
    12    11    12    2
    13    11    13   am
    14    13    14    1
    15     8    14    1
    16     2    15   am
    17    15    16    1
    18    16    17   ar
    19    17    18   ar
    20    18    19   ar
    21    19    20    1
    22    20    21   ar
    23    21    22   ar
    24    22    23   ar
    25    23    24   ar
    26    24    25   ar
    27    20    25   ar
    28    19    26   ar
    29    26    27   ar
    30    16    27   ar
    31     3    28    1
    32     3    29    1
    33     4    30    1
    34     6    31    1
    35     7    32    1
    36    10    33    1
    37    13    34    1
    38    14    35    1
    39    14    36    1
    40    15    37    1
    41    17    38    1
    42    18    39    1
    43    21    40    1
    44    22    41    1
    45    23    42    1
    46    24    43    1
    47    25    44    1
    48    26    45    1
    49    27    46    1
