@<TRIPOS>MOLECULE
*****
 47 48 0 0 0
SMALL
GASTEIGER

@<TRIPOS>ATOM
      1 C           0.6011   -0.2958   -0.1382 C.3     1  UNL1       -0.0586
      2 C           2.1082   -0.2256   -0.0918 C.3     1  UNL1       -0.0198
      3 C           2.2395    0.9388    0.8156 C.3     1  UNL1       -0.0586
      4 C           2.9418   -1.3764    0.4774 C.ar    1  UNL1       -0.0236
      5 C           2.6357   -2.6233   -0.1332 C.ar    1  UNL1       -0.0566
      6 C           2.8899   -3.8187    0.5103 C.ar    1  UNL1       -0.0614
      7 C           3.5154   -3.7708    1.7487 C.ar    1  UNL1       -0.0600
      8 C           3.9666   -2.5314    2.2972 C.ar    1  UNL1       -0.0402
      9 C           3.8210   -1.2921    1.6118 C.ar    1  UNL1        0.0361
     10 N           4.4729   -0.0459    2.2044 N.am    1  UNL1       -0.2955
     11 C           4.8544    1.2919    1.6509 C.2     1  UNL1        0.1510
     12 S           5.3973    1.7020    0.0738 S.2     1  UNL1       -0.0171
     13 N           4.3751    2.3366    2.5225 N.am    1  UNL1       -0.2456
     14 N           4.0035    3.6492    1.9799 N.am    1  UNL1       -0.2351
     15 C           4.4933    4.7957    2.5733 C.2     1  UNL1        0.2305
     16 O           5.0957    4.7435    3.6644 O.2     1  UNL1       -0.2742
     17 C           4.2450    6.1062    1.8253 C.3     1  UNL1        0.0409
     18 C           4.8011    7.2929    2.6310 C.3     1  UNL1        0.0201
     19 N           4.6937    8.5522    1.8864 N.pl3   1  UNL1       -0.3130
     20 C           4.9580    9.6761    2.6748 C.ar    1  UNL1        0.2151
     21 N           4.0229   10.6399    2.7363 N.ar    1  UNL1       -0.2229
     22 C           4.3197   11.7370    3.4749 C.ar    1  UNL1        0.0326
     23 C           5.5228   11.9307    4.1071 C.ar    1  UNL1       -0.0253
     24 C           6.4203   10.9067    3.9538 C.ar    1  UNL1        0.0326
     25 N           6.1516    9.7718    3.2778 N.ar    1  UNL1       -0.2229
     26 H           0.2502    0.6747   -0.5241 H       1  UNL1        0.0235
     27 H           0.1984   -0.4015    0.8778 H       1  UNL1        0.0235
     28 H           0.2235   -1.0848   -0.7769 H       1  UNL1        0.0235
     29 H           2.5227   -0.0256   -1.0897 H       1  UNL1        0.0344
     30 H           2.0581    0.7388    1.8806 H       1  UNL1        0.0235
     31 H           1.9152    1.9243    0.5074 H       1  UNL1        0.0235
     32 H           3.2509    0.9914    0.6192 H       1  UNL1        0.0235
     33 H           2.1482   -2.6404   -1.1086 H       1  UNL1        0.0621
     34 H           2.5512   -4.7554    0.0679 H       1  UNL1        0.0618
     35 H           3.6846   -4.7160    2.2669 H       1  UNL1        0.0618
     36 H           4.4338   -2.5952    3.2787 H       1  UNL1        0.0636
     37 H           4.6015   -0.1290    3.2064 H       1  UNL1        0.1539
     38 H           4.7172    2.3892    3.4811 H       1  UNL1        0.1718
     39 H           3.6819    3.6589    1.0119 H       1  UNL1        0.1728
     40 H           3.1677    6.2374    1.6565 H       1  UNL1        0.0374
     41 H           4.7298    6.0654    0.8420 H       1  UNL1        0.0374
     42 H           5.8576    7.1024    2.8545 H       1  UNL1        0.0467
     43 H           4.2645    7.3423    3.5900 H       1  UNL1        0.0467
     44 H           3.8277    8.7095    1.3885 H       1  UNL1        0.1489
     45 H           3.5355   12.4875    3.5458 H       1  UNL1        0.0831
     46 H           5.7506   12.8189    4.6808 H       1  UNL1        0.0648
     47 H           7.4186   10.9651    4.3771 H       1  UNL1        0.0831
@<TRIPOS>BOND
     1     1     2    1
     2     2     3    1
     3     2     4    1
     4     4     5   ar
     5     5     6   ar
     6     6     7   ar
     7     7     8   ar
     8     8     9   ar
     9     4     9   ar
    10     9    10    1
    11    10    11    1
    12    11    12    2
    13    11    13    1
    14    13    14    1
    15    14    15   am
    16    15    16    2
    17    15    17    1
    18    17    18    1
    19    18    19    1
    20    19    20    1
    21    20    21   ar
    22    21    22   ar
    23    22    23   ar
    24    23    24   ar
    25    24    25   ar
    26    20    25   ar
    27     1    26    1
    28     1    27    1
    29     1    28    1
    30     2    29    1
    31     3    30    1
    32     3    31    1
    33     3    32    1
    34     5    33    1
    35     6    34    1
    36     7    35    1
    37     8    36    1
    38    10    37    1
    39    13    38    1
    40    14    39    1
    41    17    40    1
    42    17    41    1
    43    18    42    1
    44    18    43    1
    45    19    44    1
    46    22    45    1
    47    23    46    1
    48    24    47    1
