@<TRIPOS>MOLECULE
*****
 54 58 0 0 0
SMALL
GASTEIGER

@<TRIPOS>ATOM
      1 C           3.0947   -0.0223    1.5162 C.3     1  UNL1       -0.0442
      2 C           2.4472    0.0011    0.1326 C.3     1  UNL1        0.0464
      3 N           2.8223    1.2676   -0.5285 N.3     1  UNL1       -0.2334
      4 N           3.6769    1.1854   -1.6557 N.am    1  UNL1       -0.2465
      5 C           4.0937    0.0325   -2.2803 C.2     1  UNL1        0.2578
      6 O           4.8208    0.0529   -3.2719 O.2     1  UNL1       -0.2691
      7 C           3.6158   -1.2092   -1.7020 C.2     1  UNL1        0.0652
      8 C           2.8659   -1.2107   -0.6064 C.2     1  UNL1       -0.0111
      9 C           2.5823   -2.6084   -0.2050 C.3     1  UNL1        0.0818
     10 C           1.0945   -2.9094   -0.2237 C.3     1  UNL1       -0.0346
     11 O           3.2336   -3.4252   -1.2026 O.3     1  UNL1       -0.3472
     12 C           3.9646   -2.5724   -2.1122 C.3     1  UNL1        0.1566
     13 N           3.5104   -2.8721   -3.4404 N.am    1  UNL1       -0.2834
     14 C           4.2297   -3.7714   -4.2007 C.2     1  UNL1        0.2529
     15 O           5.2319   -4.3318   -3.7585 O.2     1  UNL1       -0.2720
     16 C           3.7344   -4.0125   -5.6301 C.3     1  UNL1        0.1685
     17 O           4.5896   -4.9871   -6.2735 O.3     1  UNL1       -0.4506
     18 C           4.2114   -5.3209   -7.5305 C.2     1  UNL1        0.3604
     19 O           3.2228   -4.8654   -8.0892 O.2     1  UNL1       -0.2431
     20 C           5.1839   -6.2294   -8.2171 C.ar    1  UNL1        0.1756
     21 N           5.6001   -7.3620   -7.5712 N.ar    1  UNL1       -0.2449
     22 C           6.3253   -8.2314   -8.3282 C.ar    1  UNL1        0.0466
     23 C           6.6400   -7.9949   -9.6575 C.ar    1  UNL1        0.0465
     24 N           6.2619   -6.8648  -10.2905 N.ar    1  UNL1       -0.2490
     25 C           5.5223   -5.9817   -9.5486 C.ar    1  UNL1        0.1282
     26 C           5.0745   -4.7973  -10.2745 C.ar    1  UNL1        0.1299
     27 N           4.2725   -4.8242  -11.3163 N.ar    1  UNL1       -0.2374
     28 C           3.9290   -3.5373  -11.6728 C.ar    1  UNL1        0.0789
     29 C           3.0562   -3.1901  -12.7196 C.ar    1  UNL1       -0.0352
     30 C           2.7932   -1.8444  -12.9830 C.ar    1  UNL1       -0.0597
     31 C           3.3744   -0.8472  -12.2054 C.ar    1  UNL1       -0.0606
     32 C           4.2379   -1.1665  -11.1526 C.ar    1  UNL1       -0.0459
     33 C           4.5135   -2.5219  -10.9139 C.ar    1  UNL1        0.0396
     34 S           5.5627   -3.2301   -9.7498 S.2     1  UNL1       -0.0656
     35 H           2.8407    0.8761    2.0874 H       1  UNL1        0.0248
     36 H           4.1872   -0.0686    1.4235 H       1  UNL1        0.0248
     37 H           2.7695   -0.8892    2.1001 H       1  UNL1        0.0248
     38 H           1.3543    0.0018    0.2288 H       1  UNL1        0.0521
     39 H           3.3000    1.8578    0.1587 H       1  UNL1        0.1449
     40 H           3.9677    2.0495   -2.1065 H       1  UNL1        0.1693
     41 H           3.0138   -2.8516    0.7734 H       1  UNL1        0.0642
     42 H           0.6762   -2.7192   -1.2188 H       1  UNL1        0.0258
     43 H           0.5531   -2.2959    0.5037 H       1  UNL1        0.0258
     44 H           0.9112   -3.9637    0.0034 H       1  UNL1        0.0258
     45 H           5.0360   -2.7635   -1.9896 H       1  UNL1        0.0863
     46 H           2.6766   -2.4182   -3.7835 H       1  UNL1        0.1516
     47 H           3.7781   -3.0624   -6.1793 H       1  UNL1        0.0796
     48 H           2.7017   -4.3794   -5.5955 H       1  UNL1        0.0796
     49 H           6.6439   -9.1490   -7.8420 H       1  UNL1        0.0845
     50 H           7.2013   -8.7094  -10.2533 H       1  UNL1        0.0845
     51 H           2.6034   -3.9771  -13.3136 H       1  UNL1        0.0639
     52 H           2.1304   -1.5817  -13.8032 H       1  UNL1        0.0618
     53 H           3.1599    0.1965  -12.4232 H       1  UNL1        0.0618
     54 H           4.6900   -0.3873  -10.5466 H       1  UNL1        0.0629
@<TRIPOS>BOND
     1     2     3    1
     2     3     4    1
     3     4     5   am
     4     5     6    2
     5     5     7    1
     6     7     8    2
     7     2     8    1
     8     8     9    1
     9     9    10    1
    10     9    11    1
    11    11    12    1
    12     7    12    1
    13    13    14   am
    14    14    15    2
    15    14    16    1
    16    16    17    1
    17    17    18    1
    18    18    19    2
    19    18    20    1
    20    20    21   ar
    21    21    22   ar
    22    22    23   ar
    23    23    24   ar
    24    24    25   ar
    25    20    25   ar
    26    25    26    1
    27    26    27   ar
    28    27    28   ar
    29    28    29   ar
    30    29    30   ar
    31    30    31   ar
    32    31    32   ar
    33    32    33   ar
    34    28    33   ar
    35    33    34   ar
    36    26    34   ar
    37     2     1    1
    38    12    13    1
    39     1    35    1
    40     1    36    1
    41     1    37    1
    42     2    38    1
    43     3    39    1
    44     4    40    1
    45     9    41    1
    46    10    42    1
    47    10    43    1
    48    10    44    1
    49    12    45    1
    50    13    46    1
    51    16    47    1
    52    16    48    1
    53    22    49    1
    54    23    50    1
    55    29    51    1
    56    30    52    1
    57    31    53    1
    58    32    54    1
