REMARK  3 active torsions:
REMARK  status: ('A' for Active; 'I' for Inactive)
REMARK       I    between atoms: C_2  and  N_3 
REMARK    1  A    between atoms: C_2  and  C_11 
REMARK    2  A    between atoms: N_3  and  C_4 
REMARK    3  A    between atoms: C_9  and  O_10 
ROOT
ATOM      1  O   UNL d   1       1.013  -0.009   0.111  0.00  0.00    -0.267 OA
ATOM      2  C   UNL d   1       2.241   0.102   0.085  0.00  0.00     0.259 C 
ATOM      3  N   UNL d   1       2.963   0.836  -0.854  0.00  0.00    -0.320 N 
ATOM      4  H   UNL d   1       3.933   0.599  -1.011  0.00  0.00     0.169 HD
ENDROOT
BRANCH   2   5
ATOM      5  C   UNL d   1       3.000  -0.692   1.078  0.00  0.00     0.072 A 
ATOM      6  C   UNL d   1       4.042  -0.152   1.842  0.00  0.00     0.044 A 
ATOM      7  C   UNL d   1       4.614  -0.928   2.860  0.00  0.00     0.035 A 
ATOM      8 CL   UNL d   1       5.886  -0.282   3.825  0.00  0.00    -0.084 Cl
ATOM      9  C   UNL d   1       4.160  -2.224   3.125  0.00  0.00     0.027 A 
ATOM     10  C   UNL d   1       3.127  -2.758   2.362  0.00  0.00     0.045 A 
ATOM     11  C   UNL d   1       2.557  -1.994   1.346  0.00  0.00     0.132 A 
ATOM     12  F   UNL d   1       1.578  -2.555   0.622  0.00  0.00    -0.205 F 
ENDBRANCH   2   5
BRANCH   3  13
ATOM     13  C   UNL d   1       2.285   1.540  -1.888  0.00  0.00     0.068 A 
ATOM     14  C   UNL d   1       2.683   1.371  -3.220  0.00  0.00     0.032 A 
ATOM     15  C   UNL d   1       1.957   1.979  -4.255  0.00  0.00     0.002 A 
ATOM     16  C   UNL d   1       0.858   2.790  -3.964  0.00  0.00     0.003 A 
ATOM     17  C   UNL d   1       0.487   3.008  -2.638  0.00  0.00     0.039 A 
ATOM     18  C   UNL d   1       1.207   2.395  -1.610  0.00  0.00     0.092 A 
BRANCH  18  19
ATOM     19  O   UNL d   1       0.929   2.717  -0.307  0.00  0.00    -0.358 OA
ATOM     20  H   UNL d   1       0.025   3.062  -0.256  0.00  0.00     0.217 HD
ENDBRANCH  18  19
ENDBRANCH   3  13
TORSDOF 3
