@<TRIPOS>MOLECULE
*****
 59 62 0 0 0
SMALL
GASTEIGER

@<TRIPOS>ATOM
      1 O           1.0322   -0.0161   -0.2479 O.2     1  UNL1       -0.2723
      2 C           2.2563   -0.0027   -0.1025 C.2     1  UNL1        0.2488
      3 C           2.9254   -0.0493    1.2522 C.3     1  UNL1        0.1009
      4 N           1.9817   -0.1019    2.3716 N.ar    1  UNL1       -0.3378
      5 C           1.5508   -1.2752    2.9482 C.ar    1  UNL1        0.0062
      6 C           0.6749   -0.9616    3.9605 C.ar    1  UNL1       -0.0364
      7 C           0.5820    0.4518    4.0297 C.ar    1  UNL1       -0.0001
      8 C          -0.1526    1.3258    4.8566 C.ar    1  UNL1       -0.0526
      9 C          -0.0348    2.7050    4.6786 C.ar    1  UNL1       -0.0611
     10 C           0.7990    3.2144    3.6878 C.ar    1  UNL1       -0.0598
     11 C           1.5377    2.3660    2.8491 C.ar    1  UNL1       -0.0376
     12 C           1.4174    0.9775    3.0346 C.ar    1  UNL1        0.0495
     13 N           3.0469    0.0481   -1.2320 N.am    1  UNL1       -0.2337
     14 N           4.4770    0.0424   -1.3549 N.am    1  UNL1       -0.2455
     15 C           5.0329    0.0965   -2.6564 C.2     1  UNL1        0.1533
     16 S           4.0201    0.1759   -4.0039 S.2     1  UNL1       -0.0170
     17 N           6.4496    0.0691   -2.7031 N.am    1  UNL1       -0.2627
     18 C           7.2608    0.1495   -3.8607 C.2     1  UNL1        0.2495
     19 O           6.8360    0.2512   -5.0149 O.2     1  UNL1       -0.2698
     20 C           8.7521    0.1755   -3.7407 C.ar    1  UNL1        0.0373
     21 C           9.4766   -0.6753   -2.9081 C.ar    1  UNL1       -0.0462
     22 C          10.8799   -0.5396   -2.8169 C.ar    1  UNL1       -0.0192
     23 C          11.5871    0.3625   -3.6279 C.ar    1  UNL1        0.1207
     24 O          12.9407    0.4551   -3.4058 O.3     1  UNL1       -0.4886
     25 C          13.6668    1.4239   -4.1849 C.3     1  UNL1        0.1235
     26 C          15.1393    1.4843   -3.7492 C.3     1  UNL1        0.1235
     27 O          15.8477    2.4166   -4.5891 O.3     1  UNL1       -0.4886
     28 C          17.1806    2.5545   -4.2911 C.ar    1  UNL1        0.1207
     29 C          18.0277    1.4804   -4.0194 C.ar    1  UNL1       -0.0199
     30 C          19.3471    1.7091   -3.6173 C.ar    1  UNL1       -0.0583
     31 C          19.8620    3.0033   -3.6094 C.ar    1  UNL1       -0.0615
     32 C          19.0622    4.0647   -4.0272 C.ar    1  UNL1       -0.0583
     33 C          17.7132    3.8460   -4.3293 C.ar    1  UNL1       -0.0199
     34 C          10.8753    1.0816   -4.5825 C.ar    1  UNL1       -0.0192
     35 C           9.4717    1.0206   -4.6083 C.ar    1  UNL1       -0.0462
     36 H           3.5629    0.8282    1.3858 H       1  UNL1        0.0588
     37 H           3.5424   -0.9531    1.3068 H       1  UNL1        0.0588
     38 H           1.8735   -2.2391    2.5788 H       1  UNL1        0.0809
     39 H           0.1444   -1.6680    4.5854 H       1  UNL1        0.0639
     40 H          -0.8116    0.9289    5.6238 H       1  UNL1        0.0624
     41 H          -0.6040    3.3783    5.3153 H       1  UNL1        0.0618
     42 H           0.8689    4.2922    3.5580 H       1  UNL1        0.0618
     43 H           2.1679    2.7870    2.0737 H       1  UNL1        0.0638
     44 H           2.5309    0.0776   -2.1172 H       1  UNL1        0.1728
     45 H           5.0282   -0.0037   -0.5073 H       1  UNL1        0.1718
     46 H           6.9430    0.0682   -1.8220 H       1  UNL1        0.1569
     47 H           8.9824   -1.4748   -2.3646 H       1  UNL1        0.0626
     48 H          11.4297   -1.1576   -2.1092 H       1  UNL1        0.0654
     49 H          13.2271    2.4234   -4.0733 H       1  UNL1        0.0731
     50 H          13.6313    1.1392   -5.2430 H       1  UNL1        0.0731
     51 H          15.5607    0.4770   -3.8251 H       1  UNL1        0.0731
     52 H          15.2014    1.8058   -2.7012 H       1  UNL1        0.0731
     53 H          17.6889    0.4562   -4.1307 H       1  UNL1        0.0654
     54 H          19.9770    0.8740   -3.3221 H       1  UNL1        0.0619
     55 H          20.8882    3.1799   -3.2963 H       1  UNL1        0.0618
     56 H          19.4875    5.0622   -4.1080 H       1  UNL1        0.0619
     57 H          17.0803    4.6913   -4.5851 H       1  UNL1        0.0654
     58 H          11.3754    1.7021   -5.3206 H       1  UNL1        0.0654
     59 H           8.9401    1.6384   -5.3328 H       1  UNL1        0.0626
@<TRIPOS>BOND
     1     1     2    2
     2     2     3    1
     3     3     4    1
     4     4     5   ar
     5     5     6   ar
     6     6     7   ar
     7     7     8   ar
     8     8     9   ar
     9     9    10   ar
    10    10    11   ar
    11    11    12   ar
    12     7    12   ar
    13     4    12   ar
    14     2    13   am
    15    13    14    1
    16    14    15    1
    17    15    16    2
    18    15    17    1
    19    17    18   am
    20    18    19    2
    21    18    20    1
    22    20    21   ar
    23    21    22   ar
    24    22    23   ar
    25    23    24    1
    26    24    25    1
    27    25    26    1
    28    26    27    1
    29    27    28    1
    30    28    29   ar
    31    29    30   ar
    32    30    31   ar
    33    31    32   ar
    34    32    33   ar
    35    28    33   ar
    36    23    34   ar
    37    34    35   ar
    38    20    35   ar
    39     3    36    1
    40     3    37    1
    41     5    38    1
    42     6    39    1
    43     8    40    1
    44     9    41    1
    45    10    42    1
    46    11    43    1
    47    13    44    1
    48    14    45    1
    49    17    46    1
    50    21    47    1
    51    22    48    1
    52    25    49    1
    53    25    50    1
    54    26    51    1
    55    26    52    1
    56    29    53    1
    57    30    54    1
    58    31    55    1
    59    32    56    1
    60    33    57    1
    61    34    58    1
    62    35    59    1
