REMARK  7 active torsions:
REMARK  status: ('A' for Active; 'I' for Inactive)
REMARK       I    between atoms: N_1  and  C_2 
REMARK       I    between atoms: C_2  and  N_4 
REMARK    1  A    between atoms: N_4  and  C_5 
REMARK    2  A    between atoms: C_8  and  N_9 
REMARK       I    between atoms: N_9  and  C_10 
REMARK    3  A    between atoms: C_10  and  C_12 
REMARK    4  A    between atoms: C_17  and  C_18 
REMARK    5  A    between atoms: C_18  and  O_19 
REMARK    6  A    between atoms: O_19  and  C_20 
REMARK    7  A    between atoms: C_24  and  C_25 
ROOT
ATOM      1  N   UNL d   1       8.893  -1.422  -0.773  0.00  0.00    -0.323 N 
ATOM      2  C   UNL d   1       9.664  -1.245   0.380  0.00  0.00     0.256 C 
ATOM      3  O   UNL d   1       9.245  -1.191   1.539  0.00  0.00    -0.267 OA
ATOM      4  H   UNL d   1       9.376  -1.290  -1.652  0.00  0.00     0.169 HD
ENDROOT
BRANCH   2   5
ATOM      5  C   UNL d   1      11.149  -1.101   0.254  0.00  0.00     0.040 A 
ATOM      6  C   UNL d   1      11.890  -1.877   1.172  0.00  0.00     0.017 A 
ATOM      7  C   UNL d   1      13.268  -1.711   1.321  0.00  0.00     0.001 A 
ATOM      8  C   UNL d   1      13.943  -0.810   0.510  0.00  0.00     0.001 A 
ATOM      9  C   UNL d   1      13.229  -0.032  -0.401  0.00  0.00     0.010 A 
ATOM     10  C   UNL d   1      11.824  -0.139  -0.529  0.00  0.00    -0.018 A 
BRANCH  10  11
ATOM     11  C   UNL d   1      11.177   0.824  -1.500  0.00  0.00     0.215 C 
BRANCH  11  12
ATOM     12  O   UNL d   1       9.792   0.894  -1.265  0.00  0.00    -0.347 OA
BRANCH  12  13
ATOM     13  C   UNL d   1       8.949   1.355  -2.219  0.00  0.00     0.070 A 
ATOM     14  C   UNL d   1       7.716   1.770  -1.707  0.00  0.00     0.037 A 
ATOM     15  C   UNL d   1       6.691   2.171  -2.555  0.00  0.00     0.004 A 
ATOM     16  C   UNL d   1       6.927   2.236  -3.924  0.00  0.00     0.014 A 
ATOM     17  C   UNL d   1       8.151   1.784  -4.433  0.00  0.00     0.004 A 
ATOM     18  C   UNL d   1       9.153   1.302  -3.587  0.00  0.00     0.051 A 
BRANCH  17  19
ATOM     19  C   UNL d   1       8.388   1.793  -5.886  0.00  0.00     0.270 C 
ATOM     20  O   UNL d   1       9.421   1.343  -6.371  0.00  0.00    -0.301 OA
ENDBRANCH  17  19
ENDBRANCH  12  13
ENDBRANCH  11  12
ENDBRANCH  10  11
ENDBRANCH   2   5
BRANCH   1  21
ATOM     21  C   UNL d   1       7.466  -1.306  -0.831  0.00  0.00     0.035 A 
ATOM     22  C   UNL d   1       6.794  -1.184  -2.065  0.00  0.00     0.032 A 
ATOM     23  C   UNL d   1       5.402  -0.911  -2.114  0.00  0.00     0.032 A 
ATOM     24  C   UNL d   1       4.666  -0.799  -0.932  0.00  0.00     0.036 A 
ATOM     25  C   UNL d   1       5.337  -0.918   0.278  0.00  0.00     0.032 A 
ATOM     26  C   UNL d   1       6.705  -1.172   0.324  0.00  0.00     0.032 A 
BRANCH  24  27
ATOM     27  N   UNL d   1       3.263  -0.636  -0.942  0.00  0.00    -0.309 N 
ATOM     28  C   UNL d   1       2.575   0.062   0.016  0.00  0.00     0.318 C 
ATOM     29  N   UNL d   1       1.228  -0.001  -0.085  0.00  0.00    -0.352 N 
ATOM     30  O   UNL d   1       3.064   0.762   0.907  0.00  0.00    -0.247 OA
ATOM     31  H   UNL d   1       0.717   0.514   0.622  0.00  0.00     0.160 HD
ATOM     32  H   UNL d   1       0.716  -0.594  -0.716  0.00  0.00     0.160 HD
ATOM     33  H   UNL d   1       2.749  -1.031  -1.715  0.00  0.00     0.170 HD
ENDBRANCH  24  27
ENDBRANCH   1  21
TORSDOF 7
