REMARK  10 active torsions:
REMARK  status: ('A' for Active; 'I' for Inactive)
REMARK    1  A    between atoms: O_2  and  C_3 
REMARK    2  A    between atoms: C_7  and  C_6 
REMARK    3  A    between atoms: C_7  and  N_28 
REMARK    4  A    between atoms: C_7  and  C_8 
REMARK    5  A    between atoms: C_8  and  N_9 
REMARK       I    between atoms: N_9  and  C_10 
REMARK    6  A    between atoms: C_10  and  C_12 
REMARK    7  A    between atoms: C_15  and  S_16 
REMARK    8  A    between atoms: S_16  and  C_17 
REMARK    9  A    between atoms: C_17  and  C_18 
REMARK   10  A    between atoms: C_32  and  O_33 
ROOT
ATOM      1  N   UNL d   1       3.487  -3.538  -0.653  0.00  0.00    -0.354 N 
ATOM      2  C   UNL d   1       2.782  -2.656   0.130  0.00  0.00     0.256 C 
ATOM      3  O   UNL d   1       2.657  -1.463  -0.168  0.00  0.00    -0.268 OA
ATOM      4  H   UNL d   1       3.330  -4.527  -0.489  0.00  0.00     0.162 HD
ENDROOT
BRANCH   1   5
ATOM      5  C   UNL d   1       4.633  -3.151  -1.496  0.00  0.00     0.161 C 
BRANCH   5   6
ATOM      6  C   UNL d   1       5.526  -4.385  -1.991  0.00  0.00     0.237 C 
BRANCH   6   7
ATOM      7  N   UNL d   1       4.926  -4.848  -3.366  0.00  0.00    -0.069 N 
ATOM      8  C   UNL d   1       4.981  -3.766  -4.429  0.00  0.00     0.270 C 
ATOM      9  C   UNL d   1       5.572  -6.062  -3.972  0.00  0.00     0.270 C 
ATOM     10  H   UNL d   1       3.940  -5.082  -3.189  0.00  0.00     0.279 HD
ENDBRANCH   6   7
BRANCH   6  11
ATOM     11  C   UNL d   1       5.676  -5.493  -0.918  0.00  0.00    -0.023 C 
ATOM     12  C   UNL d   1       5.353  -5.285   0.421  0.00  0.00     0.012 C 
ATOM     13  C   UNL d   1       5.312  -6.293   1.394  0.00  0.00     0.040 C 
ATOM     14  C   UNL d   1       5.720  -7.580   1.099  0.00  0.00     0.101 C 
ATOM     15  C   UNL d   1       6.175  -7.807  -0.204  0.00  0.00     0.102 C 
ATOM     16  C   UNL d   1       6.202  -6.756  -1.148  0.00  0.00     0.049 C 
BRANCH  14  17
ATOM     17  O   UNL d   1       5.482  -8.476   2.106  0.00  0.00    -0.353 OA
ATOM     18  C   UNL d   1       6.618  -9.042   2.766  0.00  0.00     0.210 C 
ENDBRANCH  14  17
BRANCH  15  19
ATOM     19  O   UNL d   1       6.596  -8.959  -0.820  0.00  0.00    -0.353 OA
ATOM     20  C   UNL d   1       6.915  -9.981   0.082  0.00  0.00     0.210 C 
ENDBRANCH  15  19
ENDBRANCH   6  11
ENDBRANCH   5   6
ENDBRANCH   1   5
BRANCH   2  21
ATOM     21  C   UNL d   1       2.092  -3.209   1.309  0.00  0.00     0.090 C 
ATOM     22  C   UNL d   1       0.726  -3.100   1.421  0.00  0.00     0.139 C 
ATOM     23  N   UNL d   1       0.010  -3.508   2.499  0.00  0.00    -0.234 NA
ATOM     24  C   UNL d   1       0.706  -4.069   3.494  0.00  0.00     0.189 C 
ATOM     25  N   UNL d   1       2.028  -4.236   3.481  0.00  0.00    -0.210 NA
ATOM     26  C   UNL d   1       2.689  -3.716   2.441  0.00  0.00     0.146 C 
ATOM     27 CL   UNL d   1       4.320  -3.428   2.909  0.00  0.00    -0.061 Cl
BRANCH  24  28
ATOM     28  S   UNL d   1      -0.004  -4.475   5.033  0.00  0.00    -0.086 SA
BRANCH  28  29
ATOM     29  C   UNL d   1      -1.794  -4.118   4.863  0.00  0.00     0.121 C 
BRANCH  29  30
ATOM     30  C   UNL d   1      -2.515  -4.473   6.158  0.00  0.00    -0.049 A 
ATOM     31  C   UNL d   1      -3.681  -3.798   6.543  0.00  0.00     0.008 A 
ATOM     32  C   UNL d   1      -4.207  -3.978   7.829  0.00  0.00     0.007 A 
ATOM     33  C   UNL d   1      -3.645  -4.911   8.709  0.00  0.00    -0.062 A 
ATOM     34  C   UNL d   1      -4.262  -5.204  10.041  0.00  0.00     0.048 C 
ATOM     35  C   UNL d   1      -2.527  -5.633   8.308  0.00  0.00     0.007 A 
ATOM     36  C   UNL d   1      -1.999  -5.441   7.039  0.00  0.00     0.008 A 
ENDBRANCH  29  30
ENDBRANCH  28  29
ENDBRANCH  24  28
ENDBRANCH   2  21
TORSDOF 10
