@<TRIPOS>MOLECULE
*****
 64 67 0 0 0
SMALL
GASTEIGER

@<TRIPOS>ATOM
      1 O           1.3120   -0.0865   -0.2612 O.2     1  UNL1       -0.2651
      2 C           2.5417    0.0651   -0.2031 C.2     1  UNL1        0.2814
      3 C           3.1990   -0.7929    0.8003 C.ar    1  UNL1        0.0418
      4 C           4.3184   -0.2984    1.4585 C.ar    1  UNL1       -0.0429
      5 C           5.1002   -1.1626    2.2171 C.ar    1  UNL1        0.0163
      6 C           4.6737   -2.4804    2.4435 C.ar    1  UNL1        0.2732
      7 N           5.5090   -3.3619    3.2669 N.pl3   1  UNL1        0.0796
      8 O           6.5684   -2.9042    3.7058 O.2     1  UNL1        0.0414
      9 O           5.0934   -4.5139    3.4813 O.co2   1  UNL1       -0.5760
     10 C           3.4547   -2.9349    1.9255 C.ar    1  UNL1        0.0163
     11 C           2.6999   -2.0742    1.1204 C.ar    1  UNL1       -0.0429
     12 N           3.1772    1.0358   -1.0463 N.ar    1  UNL1       -0.1611
     13 N           4.4295    0.8286   -1.6244 N.ar    1  UNL1       -0.1248
     14 C           4.6374    1.9612   -2.3304 C.ar    1  UNL1        0.2365
     15 N           5.7052    2.2781   -3.1276 N.pl3   1  UNL1       -0.3122
     16 C           5.8925    3.6106   -3.7585 C.3     1  UNL1        0.0121
     17 C           7.1731    3.7411   -4.6317 C.3     1  UNL1       -0.0334
     18 C           7.3650    5.1412   -5.3024 C.3     1  UNL1       -0.0263
     19 C           8.6433    5.3029   -6.1241 C.ar    1  UNL1       -0.0473
     20 C           9.3913    4.1990   -6.5559 C.ar    1  UNL1       -0.0586
     21 C          10.6339    4.3599   -7.1717 C.ar    1  UNL1       -0.0615
     22 C          11.1056    5.6322   -7.4708 C.ar    1  UNL1       -0.0617
     23 C          10.3459    6.7463   -7.1224 C.ar    1  UNL1       -0.0615
     24 C           9.1254    6.5853   -6.4499 C.ar    1  UNL1       -0.0586
     25 N           3.6466    2.8823   -2.1719 N.ar    1  UNL1       -0.1799
     26 C           2.7545    2.3248   -1.3828 C.ar    1  UNL1        0.2226
     27 N           1.6856    3.0037   -0.8962 N.pl3   1  UNL1       -0.3133
     28 C           0.6257    2.4373   -0.0929 C.3     1  UNL1        0.0121
     29 C          -0.4392    3.4566    0.2170 C.3     1  UNL1       -0.0334
     30 C          -1.5402    2.8528    1.0962 C.3     1  UNL1       -0.0263
     31 C          -2.6312    3.8431    1.4206 C.ar    1  UNL1       -0.0473
     32 C          -2.4238    5.2260    1.3043 C.ar    1  UNL1       -0.0586
     33 C          -3.3730    6.1350    1.7487 C.ar    1  UNL1       -0.0615
     34 C          -4.5866    5.6744    2.2392 C.ar    1  UNL1       -0.0617
     35 C          -4.8303    4.3037    2.3254 C.ar    1  UNL1       -0.0615
     36 C          -3.8523    3.3885    1.9319 C.ar    1  UNL1       -0.0586
     37 H           4.5957    0.7493    1.3733 H       1  UNL1        0.0627
     38 H           6.0517   -0.7984    2.5943 H       1  UNL1        0.0685
     39 H           3.1049   -3.9516    2.1069 H       1  UNL1        0.0685
     40 H           1.7391   -2.4174    0.7323 H       1  UNL1        0.0627
     41 H           6.4194    1.5832   -3.3094 H       1  UNL1        0.1489
     42 H           5.9459    4.3767   -2.9774 H       1  UNL1        0.0462
     43 H           5.0365    3.8325   -4.4050 H       1  UNL1        0.0462
     44 H           7.1361    2.9815   -5.4208 H       1  UNL1        0.0283
     45 H           8.0650    3.5318   -4.0261 H       1  UNL1        0.0283
     46 H           7.3925    5.9043   -4.5119 H       1  UNL1        0.0314
     47 H           6.5104    5.3756   -5.9497 H       1  UNL1        0.0314
     48 H           9.0368    3.1852   -6.4036 H       1  UNL1        0.0620
     49 H          11.2349    3.4840   -7.4011 H       1  UNL1        0.0618
     50 H          12.0598    5.7496   -7.9774 H       1  UNL1        0.0618
     51 H          10.7187    7.7418   -7.3540 H       1  UNL1        0.0618
     52 H           8.5668    7.4768   -6.1705 H       1  UNL1        0.0620
     53 H           1.5551    3.9491   -1.2449 H       1  UNL1        0.1489
     54 H           1.0369    2.0785    0.8586 H       1  UNL1        0.0462
     55 H           0.1197    1.6437   -0.6441 H       1  UNL1        0.0462
     56 H          -0.8776    3.8244   -0.7192 H       1  UNL1        0.0283
     57 H           0.0409    4.3012    0.7225 H       1  UNL1        0.0283
     58 H          -1.1070    2.5045    2.0442 H       1  UNL1        0.0314
     59 H          -1.9741    1.9727    0.6014 H       1  UNL1        0.0314
     60 H          -1.5153    5.6340    0.8728 H       1  UNL1        0.0620
     61 H          -3.1482    7.1967    1.7152 H       1  UNL1        0.0618
     62 H          -5.3413    6.3884    2.5517 H       1  UNL1        0.0618
     63 H          -5.7780    3.9485    2.7195 H       1  UNL1        0.0618
     64 H          -4.0484    2.3226    2.0310 H       1  UNL1        0.0620
@<TRIPOS>UNITY_ATOM_ATTR
7 1
charge 1
9 1
charge -1
@<TRIPOS>BOND
     1     1     2    2
     2     2     3    1
     3     3     4   ar
     4     4     5   ar
     5     5     6   ar
     6     6     7    1
     7     7     8    2
     8     7     9    1
     9     6    10   ar
    10    10    11   ar
    11     3    11   ar
    12     2    12   am
    13    12    13   ar
    14    13    14   ar
    15    14    15    1
    16    15    16    1
    17    16    17    1
    18    17    18    1
    19    18    19    1
    20    19    20   ar
    21    20    21   ar
    22    21    22   ar
    23    22    23   ar
    24    23    24   ar
    25    19    24   ar
    26    14    25   ar
    27    25    26   ar
    28    12    26   ar
    29    26    27    1
    30    27    28    1
    31    28    29    1
    32    29    30    1
    33    30    31    1
    34    31    32   ar
    35    32    33   ar
    36    33    34   ar
    37    34    35   ar
    38    35    36   ar
    39    31    36   ar
    40     4    37    1
    41     5    38    1
    42    10    39    1
    43    11    40    1
    44    15    41    1
    45    16    42    1
    46    16    43    1
    47    17    44    1
    48    17    45    1
    49    18    46    1
    50    18    47    1
    51    20    48    1
    52    21    49    1
    53    22    50    1
    54    23    51    1
    55    24    52    1
    56    27    53    1
    57    28    54    1
    58    28    55    1
    59    29    56    1
    60    29    57    1
    61    30    58    1
    62    30    59    1
    63    32    60    1
    64    33    61    1
    65    34    62    1
    66    35    63    1
    67    36    64    1
