@<TRIPOS>MOLECULE
*****
 55 59 0 0 0
SMALL
GASTEIGER

@<TRIPOS>ATOM
      1 O           1.0178   -0.0987   -0.1312 O.2     1  UNL1       -0.2755
      2 C           2.2271    0.0281   -0.1062 C.2     1  UNL1        0.2162
      3 N           2.8699    1.0129   -0.8314 N.am    1  UNL1       -0.3148
      4 C           2.2053    1.8386   -1.7884 C.3     1  UNL1        0.0155
      5 C           3.2289    2.6034   -2.6337 C.3     1  UNL1       -0.0092
      6 C           2.5631    3.5111   -3.6030 C.2     1  UNL1        0.0092
      7 C           1.6976    3.1709   -4.5641 C.ar    1  UNL1        0.0523
      8 C           1.1361    1.9365   -4.9968 C.ar    1  UNL1       -0.0298
      9 C           0.2665    1.9475   -6.0185 C.ar    1  UNL1        0.0419
     10 CL         -0.4416    0.4742   -6.5572 Cl      1  UNL1       -0.0835
     11 C          -0.0839    3.1880   -6.6969 C.ar    1  UNL1       -0.0372
     12 C           0.4086    4.3937   -6.3515 C.ar    1  UNL1        0.0112
     13 C           1.3561    4.4527   -5.2142 C.ar    1  UNL1        0.2086
     14 N           1.9520    5.4357   -4.6873 N.2     1  UNL1       -0.2369
     15 C           2.8054    4.9894   -3.5667 C.3     1  UNL1        0.1661
     16 C           3.1648   -0.9001    0.6979 C.3     1  UNL1        0.0379
     17 C           4.6553   -0.5757    0.5180 C.3     1  UNL1       -0.0290
     18 C           5.1757   -0.8840   -0.9502 C.3     1  UNL1        0.0020
     19 N           5.0290   -2.2801   -1.3790 N.3     1  UNL1       -0.2757
     20 C           5.2792   -2.6033   -2.8989 C.3     1  UNL1        0.1289
     21 N           6.3889   -2.4855   -3.9853 N.pl3   1  UNL1       -0.3178
     22 C           6.2231   -3.5772   -4.9556 C.ar    1  UNL1        0.0612
     23 C           6.7655   -3.7574   -6.2395 C.ar    1  UNL1       -0.0368
     24 C           6.8248   -5.0692   -6.8002 C.ar    1  UNL1       -0.0418
     25 C           6.1989   -6.1212   -6.1486 C.ar    1  UNL1        0.0290
     26 N           5.5504   -5.9547   -4.9947 N.ar    1  UNL1       -0.2468
     27 C           5.6303   -4.7216   -4.4506 C.ar    1  UNL1        0.1206
     28 S           4.9320   -4.4508   -2.9016 S.3     1  UNL1       -0.0657
     29 C           3.5617   -2.6364   -1.0848 C.3     1  UNL1        0.0020
     30 C           3.0025   -2.3621    0.3201 C.3     1  UNL1       -0.0290
     31 H           3.8465    1.1974   -0.6916 H       1  UNL1        0.1487
     32 H           1.5544    2.5249   -1.2420 H       1  UNL1        0.0465
     33 H           1.5813    1.1834   -2.3992 H       1  UNL1        0.0465
     34 H           3.8939    1.9186   -3.1795 H       1  UNL1        0.0327
     35 H           3.8904    3.1851   -1.9776 H       1  UNL1        0.0327
     36 H           1.4004    1.0062   -4.5070 H       1  UNL1        0.0640
     37 H          -0.7792    3.0970   -7.5310 H       1  UNL1        0.0634
     38 H           0.1276    5.2912   -6.8893 H       1  UNL1        0.0684
     39 H           1.8546    6.4063   -5.0062 H       1  UNL1        0.4459
     40 H           2.4510    5.4457   -2.6384 H       1  UNL1        0.1077
     41 H           3.8468    5.2448   -3.7763 H       1  UNL1        0.1077
     42 H           2.8613   -0.7756    1.7490 H       1  UNL1        0.0395
     43 H           5.2344   -1.1322    1.2657 H       1  UNL1        0.0285
     44 H           4.8063    0.4805    0.7805 H       1  UNL1        0.0285
     45 H           6.2047   -0.5264   -1.0122 H       1  UNL1        0.0428
     46 H           4.6019   -0.3011   -1.6694 H       1  UNL1        0.0428
     47 H           4.5401   -1.9358   -3.3543 H       1  UNL1        0.0794
     48 H           6.4674   -1.5976   -4.4765 H       1  UNL1        0.1484
     49 H           7.1359   -2.9543   -6.8712 H       1  UNL1        0.0637
     50 H           7.3733   -5.2931   -7.7149 H       1  UNL1        0.0633
     51 H           6.1903   -7.1384   -6.5345 H       1  UNL1        0.0830
     52 H           3.3629   -3.7020   -1.2169 H       1  UNL1        0.0428
     53 H           2.9261   -2.1062   -1.8062 H       1  UNL1        0.0428
     54 H           3.5223   -2.9985    1.0506 H       1  UNL1        0.0285
     55 H           1.9457   -2.6647    0.3635 H       1  UNL1        0.0285
@<TRIPOS>UNITY_ATOM_ATTR
14 1
charge 1
@<TRIPOS>BOND
     1     1     2    2
     2     2     3   am
     3     3     4    1
     4     4     5    1
     5     5     6    1
     6     6     7    2
     7     7     8   ar
     8     8     9   ar
     9     9    10    1
    10     9    11   ar
    11    11    12   ar
    12    12    13   ar
    13     7    13   ar
    14    13    14    2
    15    14    15    1
    16     6    15    1
    17     2    16    1
    18    16    17    1
    19    17    18    1
    20    18    19    1
    21    19    20    1
    22    20    21    1
    23    21    22    1
    24    22    23   ar
    25    23    24   ar
    26    24    25   ar
    27    25    26   ar
    28    26    27   ar
    29    22    27   ar
    30    27    28    1
    31    20    28    1
    32    19    29    1
    33    29    30    1
    34    16    30    1
    35     3    31    1
    36     4    32    1
    37     4    33    1
    38     5    34    1
    39     5    35    1
    40     8    36    1
    41    11    37    1
    42    12    38    1
    43    14    39    1
    44    15    40    1
    45    15    41    1
    46    16    42    1
    47    17    43    1
    48    17    44    1
    49    18    45    1
    50    18    46    1
    51    20    47    1
    52    21    48    1
    53    23    49    1
    54    24    50    1
    55    25    51    1
    56    29    52    1
    57    29    53    1
    58    30    54    1
    59    30    55    1
