REMARK  11 active torsions:
REMARK  status: ('A' for Active; 'I' for Inactive)
REMARK    1  A    between atoms: C_3  and  O_4 
REMARK    2  A    between atoms: O_4  and  C_5 
REMARK    3  A    between atoms: C_5  and  C_6 
REMARK       I    between atoms: C_6  and  N_8 
REMARK    4  A    between atoms: N_8  and  C_9 
REMARK    5  A    between atoms: C_10  and  C_9 
REMARK    6  A    between atoms: C_13  and  C_14 
REMARK       I    between atoms: C_14  and  N_16 
REMARK    7  A    between atoms: N_16  and  C_17 
REMARK    8  A    between atoms: C_17  and  C_18 
REMARK    9  A    between atoms: C_18  and  C_19 
REMARK   10  A    between atoms: C_19  and  O_20 
REMARK   11  A    between atoms: C_26  and  C_27 
ROOT
ATOM      1  C   UNL d   1       4.256  11.586  -3.780  0.00  0.00     0.278 C 
ENDROOT
BRANCH   1   2
ATOM      2  O   UNL d   1       4.851  11.717  -5.056  0.00  0.00    -0.341 OA
BRANCH   2   3
ATOM      3  C   UNL d   1       5.222  12.951  -5.486  0.00  0.00     0.078 C 
ATOM      4  C   UNL d   1       5.929  12.985  -6.700  0.00  0.00     0.006 C 
ATOM      5  C   UNL d   1       6.316  11.724  -7.418  0.00  0.00     0.054 C 
ATOM      6  C   UNL d   1       6.291  14.229  -7.223  0.00  0.00     0.099 A 
ATOM      7  O   UNL d   1       6.808  14.286  -8.532  0.00  0.00    -0.274 OA
ATOM      8  C   UNL d   1       6.130  15.388  -6.477  0.00  0.00     0.010 A 
ATOM      9  C   UNL d   1       7.097  15.501  -9.140  0.00  0.00     0.289 A 
ATOM     10  C   UNL d   1       6.950  16.707  -8.308  0.00  0.00     0.095 A 
ATOM     11  O   UNL d   1       7.474  15.589 -10.294  0.00  0.00    -0.260 OA
ATOM     12  C   UNL d   1       6.513  16.677  -7.042  0.00  0.00    -0.007 A 
ATOM     13  C   UNL d   1       5.527  15.312  -5.221  0.00  0.00     0.018 C 
ATOM     14  C   UNL d   1       4.954  14.127  -4.794  0.00  0.00     0.038 C 
BRANCH  12  15
ATOM     15  C   UNL d   1       6.421  17.954  -6.322  0.00  0.00    -0.025 C 
ATOM     16  C   UNL d   1       7.224  18.171  -5.197  0.00  0.00     0.012 C 
ATOM     17  C   UNL d   1       7.255  19.427  -4.607  0.00  0.00     0.001 C 
ATOM     18  C   UNL d   1       6.318  20.386  -4.984  0.00  0.00     0.000 C 
ATOM     19  C   UNL d   1       5.416  20.123  -6.015  0.00  0.00     0.001 C 
ATOM     20  C   UNL d   1       5.514  18.935  -6.732  0.00  0.00     0.012 C 
ENDBRANCH  12  15
ENDBRANCH   2   3
ENDBRANCH   1   2
BRANCH   1  21
ATOM     21  C   UNL d   1       4.175  10.072  -3.490  0.00  0.00     0.241 C 
ATOM     22  O   UNL d   1       4.607   9.191  -4.216  0.00  0.00    -0.271 OA
ATOM     23  N   UNL d   1       3.519   9.814  -2.315  0.00  0.00    -0.359 N 
ATOM     24  H   UNL d   1       2.767  10.468  -2.233  0.00  0.00     0.162 HD
BRANCH  23  25
ATOM     25  C   UNL d   1       3.188   8.502  -1.784  0.00  0.00     0.127 C 
BRANCH  25  26
ATOM     26  C   UNL d   1       2.381   8.603  -0.462  0.00  0.00     0.003 C 
ATOM     27  C   UNL d   1       3.251   8.568   0.806  0.00  0.00     0.007 C 
ATOM     28  C   UNL d   1       4.053   9.851   0.978  0.00  0.00     0.014 C 
ATOM     29  C   UNL d   1       3.146  11.089   1.037  0.00  0.00     0.078 C 
ATOM     30  C   UNL d   1       2.186  11.189  -0.144  0.00  0.00     0.014 C 
ATOM     31  C   UNL d   1       1.463   9.846  -0.448  0.00  0.00     0.007 C 
BRANCH  29  32
ATOM     32  C   UNL d   1       2.279  11.113   2.278  0.00  0.00     0.221 C 
ATOM     33  O   UNL d   1       1.142  10.650   2.314  0.00  0.00    -0.273 OA
ATOM     34  N   UNL d   1       2.843  11.681   3.382  0.00  0.00    -0.361 N 
ATOM     35  H   UNL d   1       3.748  12.131   3.332  0.00  0.00     0.162 HD
BRANCH  34  36
ATOM     36  C   UNL d   1       2.019  11.765   4.560  0.00  0.00     0.124 C 
BRANCH  36  37
ATOM     37  C   UNL d   1       2.727  12.467   5.689  0.00  0.00     0.046 C 
BRANCH  37  38
ATOM     38  C   UNL d   1       1.845  12.495   6.924  0.00  0.00     0.165 C 
BRANCH  38  39
ATOM     39  O   UNL d   1       2.525  13.168   7.971  0.00  0.00    -0.401 OA
ATOM     40  H   UNL d   1       3.336  12.666   8.164  0.00  0.00     0.209 HD
ENDBRANCH  38  39
ENDBRANCH  37  38
ENDBRANCH  36  37
ENDBRANCH  34  36
ENDBRANCH  29  32
ENDBRANCH  25  26
ENDBRANCH  23  25
ENDBRANCH   1  21
TORSDOF 11
