@<TRIPOS>MOLECULE
*****
 51 54 0 0 0
SMALL
GASTEIGER

@<TRIPOS>ATOM
      1 O           7.6363    2.8059    1.7033 O.2     0  UNK0       -0.2749
      2 C           6.8639    3.7288    1.3215 C.2     0  UNK0        0.2235
      3 C           5.3389    3.5726    1.4608 C.3     0  UNK0        0.0738
      4 S           4.5212    2.4248    2.8790 S.3     0  UNK0       -0.1035
      5 C           2.5836    2.9033    3.4910 C.3     0  UNK0        0.1727
      6 N           2.4067    2.5844    4.8974 N.3     0  UNK0       -0.2179
      7 N           2.0074    4.0782    5.6673 N.3     0  UNK0       -0.2225
      8 C           1.9554    5.0283    4.5596 C.3     0  UNK0        0.1506
      9 C           1.3237    6.4749    4.3375 C.ar    0  UNK0       -0.0017
     10 C           1.7049    7.4699    5.2581 C.ar    0  UNK0       -0.0547
     11 C           1.2512    8.7963    5.1898 C.ar    0  UNK0       -0.0600
     12 C           0.4518    9.2179    4.1360 C.ar    0  UNK0       -0.0434
     13 C           0.2418    8.3481    3.0818 C.ar    0  UNK0        0.0414
     14 CL         -0.6600    8.8919    1.7081 Cl      0  UNK0       -0.0835
     15 C           0.7093    7.0173    3.1598 C.ar    0  UNK0       -0.0364
     16 O           2.0343    4.1873    3.4666 O.3     0  UNK0       -0.3280
     17 N           7.4349    4.9270    0.8844 N.am    1  TRP1       -0.3064
     18 CA          6.9265    6.3027    0.4150 C.3     1  TRP1        0.0666
     19 CB          6.4168    7.2688    1.5078 C.3     1  TRP1       -0.0019
     20 CG          5.1627    6.7469    2.0372 C.ar    1  TRP1       -0.0203
     21 CD1         5.0680    6.2557    3.3163 C.ar    1  TRP1        0.0060
     22 NE1         4.0398    5.3878    3.1669 N.ar    1  TRP1       -0.3604
     23 CE2         3.2586    5.5282    1.9774 C.ar    1  TRP1        0.0467
     24 CZ2         2.0533    4.8981    1.3723 C.ar    1  TRP1       -0.0378
     25 CH2         1.6725    4.9401    0.0768 C.ar    1  TRP1       -0.0598
     26 CZ3         2.5235    5.6490   -0.6955 C.ar    1  TRP1       -0.0611
     27 CE3         3.6412    6.3601   -0.1495 C.ar    1  TRP1       -0.0523
     28 CD2         4.0262    6.3520    1.2158 C.ar    1  TRP1        0.0029
     29 C           7.9870    7.2471   -0.2277 C.2     1  TRP1        0.0623
     30 O           9.1623    6.7790   -0.2391 O.co2   1  TRP1       -0.5479
     31 OXT         7.5586    8.3529   -0.6714 O.co2   1  TRP1       -0.5479
     32 H           4.7843    3.7589    0.5359 H       0  UNK0        0.0472
     33 H           5.3787    4.4151    2.0667 H       0  UNK0        0.0472
     34 H           2.0168    2.3117    2.7569 H       0  UNK0        0.0904
     35 H           3.3223    2.2668    5.2055 H       0  UNK0        0.1442
     36 H           2.8763    4.3307    6.1525 H       0  UNK0        0.1437
     37 H           2.9069    5.5034    4.7763 H       0  UNK0        0.0833
     38 H           2.4436    7.2304    6.0184 H       0  UNK0        0.0622
     39 H           1.5233    9.4876    5.9812 H       0  UNK0        0.0618
     40 H           0.0248   10.2157    4.1321 H       0  UNK0        0.0632
     41 H           0.6185    6.4908    2.2169 H       0  UNK0        0.0636
     42 H           8.4501    4.9218    0.7985 H       1  TRP1        0.1494
     43 HA          6.1847    6.0957   -0.3523 H       1  TRP1        0.0563
     44 HB1         6.1325    8.2702    1.1673 H       1  TRP1        0.0335
     45 HB2         7.1605    7.3972    2.3090 H       1  TRP1        0.0335
     46 HD1         5.7949    6.1544    4.1329 H       1  TRP1        0.0810
     47 HE1         4.0422    4.5620    3.7625 H       1  TRP1        0.1653
     48 HZ2         1.2167    4.4025    1.8887 H       1  TRP1        0.0638
     49 HH2         0.7664    4.4144   -0.2254 H       1  TRP1        0.0618
     50 HZ3         2.3284    5.6399   -1.7543 H       1  TRP1        0.0618
     51 HE3         4.2961    6.8451   -0.8502 H       1  TRP1        0.0624
@<TRIPOS>UNITY_ATOM_ATTR
31 1
charge -1
@<TRIPOS>BOND
     1     1     2    2
     2     2     3    1
     3     3     4    1
     4     5     6    1
     5     6     7    1
     6     7     8    1
     7     9    10   ar
     8    10    11   ar
     9    11    12   ar
    10    12    13   ar
    11    13    14    1
    12    13    15   ar
    13     9    15   ar
    14     8    16    1
    15     5    16    1
    16     2    17   am
    17    17    18    1
    18    18    19    1
    19    19    20    1
    20    20    21   ar
    21    21    22   ar
    22    22    23   ar
    23    23    24   ar
    24    24    25   ar
    25    25    26   ar
    26    26    27   ar
    27    27    28   ar
    28    20    28   ar
    29    23    28   ar
    30    18    29    1
    31    29    30   ar
    32    29    31   ar
    33     8     9    1
    34     5     4    1
    35     3    32    1
    36     3    33    1
    37     5    34    1
    38     6    35    1
    39     7    36    1
    40     8    37    1
    41    10    38    1
    42    11    39    1
    43    12    40    1
    44    15    41    1
    45    17    42    1
    46    18    43    1
    47    19    44    1
    48    19    45    1
    49    21    46    1
    50    22    47    1
    51    24    48    1
    52    25    49    1
    53    26    50    1
    54    27    51    1
