@<TRIPOS>MOLECULE
*****
 66 69 0 0 0
SMALL
GASTEIGER

@<TRIPOS>ATOM
      1 C           0.7683    0.0695   -0.4623 C.3     1  UNL1       -0.0307
      2 C           2.2764    0.1413   -0.5631 C.3     1  UNL1        0.0870
      3 O           2.9353   -1.0118   -1.0907 O.3     1  UNL1       -0.4886
      4 C           4.3194   -1.1168   -1.0288 C.ar    1  UNL1        0.1619
      5 C           4.8907   -1.4250   -2.2886 C.ar    1  UNL1       -0.0160
      6 C           6.2457   -1.7846   -2.4366 C.ar    1  UNL1       -0.0548
      7 C           7.0964   -1.7719   -1.3329 C.ar    1  UNL1       -0.0422
      8 C           8.5801   -2.0138   -1.4698 C.3     1  UNL1       -0.0119
      9 C           9.3513   -1.8764   -0.1442 C.3     1  UNL1        0.0156
     10 N          10.7746   -2.1211   -0.2861 N.am    1  UNL1       -0.3148
     11 C          11.5948   -1.9844    0.8177 C.2     1  UNL1        0.2162
     12 O          11.1489   -1.8055    1.9483 O.2     1  UNL1       -0.2755
     13 C          13.1006   -2.2145    0.5978 C.3     1  UNL1        0.0379
     14 C          13.6069   -2.1280   -0.8494 C.3     1  UNL1       -0.0286
     15 C          13.3557   -3.4244   -1.6932 C.3     1  UNL1        0.0117
     16 N          13.8610   -4.8004   -0.9216 N.3     1  UNL1       -0.1843
     17 C          13.9168   -6.1399   -1.6987 C.3     1  UNL1        0.4121
     18 N          14.6414   -7.6480   -1.5589 N.2     1  UNL1       -0.1606
     19 C          13.7735   -8.5101   -2.0233 C.ar    1  UNL1        0.2788
     20 C          13.4859   -9.9397   -2.3880 C.ar    1  UNL1        0.0176
     21 C          12.5241  -10.0697   -3.3540 C.ar    1  UNL1       -0.0367
     22 C          11.8431   -8.9243   -3.9729 C.ar    1  UNL1        0.0476
     23 CL         10.7961   -9.1134   -5.3161 Cl      1  UNL1       -0.0833
     24 C          11.9053   -7.7033   -3.4551 C.ar    1  UNL1        0.0345
     25 C          12.5476   -7.6929   -2.1694 C.ar    1  UNL1        0.2801
     26 N          12.5791   -6.7147   -1.4118 N.2     1  UNL1       -0.1605
     27 C          13.1529   -4.7378    0.4202 C.3     1  UNL1        0.0117
     28 C          13.5555   -3.5315    1.2272 C.3     1  UNL1       -0.0286
     29 C           6.5316   -1.4858   -0.0890 C.ar    1  UNL1       -0.0131
     30 C           5.1782   -1.1841    0.0996 C.ar    1  UNL1        0.1621
     31 O           4.9843   -1.0602    1.4750 O.3     1  UNL1       -0.4886
     32 C           3.7315   -0.5374    1.7448 C.3     1  UNL1        0.0870
     33 C           3.2140   -0.1761    3.1057 C.3     1  UNL1       -0.0307
     34 H           0.4404    0.8418    0.2556 H       1  UNL1        0.0262
     35 H           0.4719   -0.8922   -0.0209 H       1  UNL1        0.0262
     36 H           0.2671    0.2202   -1.4094 H       1  UNL1        0.0262
     37 H           2.3339    0.1340    0.4904 H       1  UNL1        0.0694
     38 H           2.7201    1.0904   -0.8752 H       1  UNL1        0.0694
     39 H           4.2663   -1.3987   -3.1824 H       1  UNL1        0.0655
     40 H           6.6173   -2.0712   -3.4195 H       1  UNL1        0.0621
     41 H           8.9801   -1.2804   -2.1830 H       1  UNL1        0.0328
     42 H           8.7583   -3.0085   -1.8967 H       1  UNL1        0.0328
     43 H           8.9788   -2.5994    0.5923 H       1  UNL1        0.0465
     44 H           9.2203   -0.8673    0.2709 H       1  UNL1        0.0465
     45 H          11.1458   -1.8758   -1.1881 H       1  UNL1        0.1487
     46 H          13.5740   -1.4012    1.1715 H       1  UNL1        0.0395
     47 H          14.6856   -1.9384   -0.8220 H       1  UNL1        0.0285
     48 H          13.1669   -1.2297   -1.3161 H       1  UNL1        0.0285
     49 H          13.7844   -3.3439   -2.6970 H       1  UNL1        0.0431
     50 H          12.2696   -3.5521   -1.8178 H       1  UNL1        0.0431
     51 H          13.9209   -5.8955   -2.7797 H       1  UNL1        0.2157
     52 H          15.4972   -7.9547   -1.0734 H       1  UNL1        0.4544
     53 H          13.9007  -10.8446   -1.9381 H       1  UNL1        0.0686
     54 H          12.2061  -11.0439   -3.7448 H       1  UNL1        0.0634
     55 H          11.5259   -6.7812   -3.8687 H       1  UNL1        0.0700
     56 H          12.8350   -6.8863   -0.4113 H       1  UNL1        0.4544
     57 H          13.3876   -5.6460    0.9692 H       1  UNL1        0.0431
     58 H          12.0714   -4.7101    0.2075 H       1  UNL1        0.0431
     59 H          14.6463   -3.5309    1.3080 H       1  UNL1        0.0285
     60 H          13.1342   -3.6455    2.2303 H       1  UNL1        0.0285
     61 H           7.1305   -1.4982    0.8187 H       1  UNL1        0.0658
     62 H           3.0322   -1.3042    1.3875 H       1  UNL1        0.0694
     63 H           3.7860    0.4484    1.2674 H       1  UNL1        0.0694
     64 H           3.2959   -1.0044    3.8017 H       1  UNL1        0.0262
     65 H           2.1506    0.0936    2.9884 H       1  UNL1        0.0262
     66 H           3.7268    0.7098    3.4826 H       1  UNL1        0.0262
@<TRIPOS>UNITY_ATOM_ATTR
18 1
charge 1
26 1
charge 1
@<TRIPOS>BOND
     1     1     2    1
     2     2     3    1
     3     3     4    1
     4     4     5   ar
     5     5     6   ar
     6     6     7   ar
     7     7     8    1
     8     8     9    1
     9     9    10    1
    10    10    11   am
    11    11    12    2
    12    11    13    1
    13    13    14    1
    14    14    15    1
    15    15    16    1
    16    16    17    1
    17    17    18    1
    18    18    19    2
    19    19    20   ar
    20    20    21   ar
    21    21    22   ar
    22    22    23    1
    23    22    24   ar
    24    24    25   ar
    25    19    25   ar
    26    25    26    2
    27    17    26    1
    28    16    27    1
    29    27    28    1
    30    13    28    1
    31     7    29   ar
    32    29    30   ar
    33     4    30   ar
    34    30    31    1
    35    31    32    1
    36    32    33    1
    37     1    34    1
    38     1    35    1
    39     1    36    1
    40     2    37    1
    41     2    38    1
    42     5    39    1
    43     6    40    1
    44     8    41    1
    45     8    42    1
    46     9    43    1
    47     9    44    1
    48    10    45    1
    49    13    46    1
    50    14    47    1
    51    14    48    1
    52    15    49    1
    53    15    50    1
    54    17    51    1
    55    18    52    1
    56    20    53    1
    57    21    54    1
    58    24    55    1
    59    26    56    1
    60    27    57    1
    61    27    58    1
    62    28    59    1
    63    28    60    1
    64    29    61    1
    65    32    62    1
    66    32    63    1
    67    33    64    1
    68    33    65    1
    69    33    66    1
