REMARK  12 active torsions:
REMARK  status: ('A' for Active; 'I' for Inactive)
REMARK    1  A    between atoms: C_2  and  O_3 
REMARK    2  A    between atoms: O_3  and  C_4 
REMARK    3  A    between atoms: C_6  and  C_7 
REMARK    4  A    between atoms: C_7  and  N_8 
REMARK    5  A    between atoms: N_8  and  C_9 
REMARK    6  A    between atoms: C_9  and  C_10 
REMARK    7  A    between atoms: C_10  and  N_11 
REMARK       I    between atoms: N_11  and  C_12 
REMARK    8  A    between atoms: C_12  and  C_14 
REMARK    9  A    between atoms: C_18  and  N_19 
REMARK   10  A    between atoms: C_23  and  O_24 
REMARK   11  A    between atoms: O_24  and  C_25 
REMARK   12  A    between atoms: C_25  and  C_26 
ROOT
ATOM      1  C   UNL d   1       4.372   0.986  -1.321  0.00  0.00     0.103 A 
ATOM      2  C   UNL d   1       5.193  -0.139  -1.158  0.00  0.00     0.048 A 
ATOM      3  C   UNL d   1       6.573  -0.037  -1.348  0.00  0.00    -0.029 A 
ATOM      4  C   UNL d   1       7.105   1.192  -1.732  0.00  0.00     0.031 A 
ATOM      5  C   UNL d   1       6.322   2.315  -1.941  0.00  0.00     0.047 A 
ATOM      6 BR   UNL d   1       7.432   3.787  -2.476  0.00  0.00    -0.048 Br
ATOM      7  C   UNL d   1       4.934   2.230  -1.746  0.00  0.00     0.119 A 
ENDROOT
BRANCH   3   8
ATOM      8  C   UNL d   1       7.468  -1.220  -1.148  0.00  0.00     0.271 C 
BRANCH   8   9
ATOM      9  N   UNL d   1       8.907  -0.882  -1.385  0.00  0.00    -0.070 N 
ATOM     10  H   UNL d   1       9.166  -0.112  -0.750  0.00  0.00     0.277 HD
ATOM     11  H   UNL d   1       9.001  -0.525  -2.347  0.00  0.00     0.277 HD
BRANCH   9  12
ATOM     12  C   UNL d   1       9.833  -2.012  -1.186  0.00  0.00     0.252 C 
BRANCH  12  13
ATOM     13  C   UNL d   1      11.275  -1.583  -1.452  0.00  0.00     0.150 C 
BRANCH  13  14
ATOM     14  N   UNL d   1      12.198  -2.689  -1.313  0.00  0.00    -0.354 N 
ATOM     15  C   UNL d   1      13.564  -2.482  -1.451  0.00  0.00     0.276 C 
ATOM     16  O   UNL d   1      14.001  -1.359  -1.718  0.00  0.00    -0.266 OA
ATOM     17  H   UNL d   1      11.902  -3.586  -0.935  0.00  0.00     0.162 HD
BRANCH  15  18
ATOM     18  C   UNL d   1      14.401  -3.656  -1.265  0.00  0.00     0.201 A 
ATOM     19  N   UNL d   1      15.576  -3.591  -0.628  0.00  0.00    -0.096 NA
ATOM     20  O   UNL d   1      16.081  -4.886  -0.664  0.00  0.00    -0.104 OA
ATOM     21  N   UNL d   1      15.209  -5.747  -1.319  0.00  0.00    -0.085 NA
ATOM     22  C   UNL d   1      14.173  -4.994  -1.674  0.00  0.00     0.188 A 
BRANCH  22  23
ATOM     23  N   UNL d   1      13.078  -5.462  -2.314  0.00  0.00    -0.380 N 
ATOM     24  H   UNL d   1      13.154  -6.392  -2.728  0.00  0.00     0.158 HD
ATOM     25  H   UNL d   1      12.442  -4.855  -2.815  0.00  0.00     0.158 HD
ENDBRANCH  22  23
ENDBRANCH  15  18
ENDBRANCH  13  14
ENDBRANCH  12  13
ENDBRANCH   9  12
ENDBRANCH   8   9
ENDBRANCH   3   8
BRANCH   1  26
ATOM     26  O   UNL d   1       3.002   0.882  -1.168  0.00  0.00    -0.349 OA
BRANCH  26  27
ATOM     27  C   UNL d   1       2.541   0.139  -0.023  0.00  0.00     0.171 C 
ATOM     28  C   UNL d   1       1.017   0.120  -0.002  0.00  0.00     0.034 C 
ENDBRANCH  26  27
ENDBRANCH   1  26
BRANCH   7  29
ATOM     29  O   UNL d   1       4.028   3.240  -1.917  0.00  0.00    -0.342 OA
BRANCH  29  30
ATOM     30  C   UNL d   1       4.528   4.506  -2.340  0.00  0.00     0.214 C 
BRANCH  30  31
ATOM     31  C   UNL d   1       3.449   5.530  -2.464  0.00  0.00    -0.034 A 
ATOM     32  C   UNL d   1       3.787   6.891  -2.522  0.00  0.00     0.009 A 
ATOM     33  C   UNL d   1       2.778   7.846  -2.488  0.00  0.00     0.001 A 
ATOM     34  C   UNL d   1       1.444   7.441  -2.499  0.00  0.00     0.000 A 
ATOM     35  C   UNL d   1       1.112   6.087  -2.513  0.00  0.00     0.001 A 
ATOM     36  C   UNL d   1       2.114   5.133  -2.497  0.00  0.00     0.009 A 
ENDBRANCH  30  31
ENDBRANCH  29  30
ENDBRANCH   7  29
TORSDOF 12
