REMARK  7 active torsions:
REMARK  status: ('A' for Active; 'I' for Inactive)
REMARK    1  A    between atoms: O_2  and  C_3 
REMARK    2  A    between atoms: C_6  and  N_7 
REMARK       I    between atoms: N_7  and  C_8 
REMARK    3  A    between atoms: C_8  and  C_10 
REMARK    4  A    between atoms: C_13  and  C_14 
REMARK    5  A    between atoms: C_14  and  N_15 
REMARK    6  A    between atoms: C_17  and  O_18 
REMARK    7  A    between atoms: C_19  and  O_20 
ROOT
ATOM      1  C   UNL d   1       5.495  -6.426  -3.598  0.00  0.00     0.032 A 
ATOM      2  C   UNL d   1       5.816  -6.576  -4.957  0.00  0.00     0.017 A 
ATOM      3  C   UNL d   1       6.322  -7.782  -5.433  0.00  0.00     0.010 A 
ATOM      4  C   UNL d   1       6.585  -8.831  -4.539  0.00  0.00    -0.038 A 
ATOM      5  C   UNL d   1       6.245  -8.678  -3.188  0.00  0.00     0.010 A 
ATOM      6  C   UNL d   1       5.694  -7.484  -2.715  0.00  0.00     0.017 A 
ENDROOT
BRANCH   4   7
ATOM      7  C   UNL d   1       7.296 -10.052  -5.050  0.00  0.00     0.188 C 
BRANCH   7   8
ATOM      8  N   UNL d   1       7.586 -11.062  -4.056  0.00  0.00    -0.280 NA
ATOM      9  C   UNL d   1       8.235 -12.115  -4.385  0.00  0.00     0.116 A 
ATOM     10  C   UNL d   1       8.646 -13.245  -3.537  0.00  0.00     0.132 A 
ATOM     11  C   UNL d   1       8.854 -12.757  -5.537  0.00  0.00     0.098 A 
ATOM     12  C   UNL d   1       9.227 -13.864  -4.604  0.00  0.00     0.130 A 
ATOM     13  N   UNL d   1       9.011 -12.517  -6.806  0.00  0.00    -0.377 N 
ATOM     14  C   UNL d   1       9.748 -13.432  -7.750  0.00  0.00     0.123 C 
ATOM     15  C   UNL d   1       8.541 -11.331  -7.606  0.00  0.00     0.123 C 
ATOM     16  C   UNL d   1      10.353 -12.461  -8.761  0.00  0.00     0.021 C 
ATOM     17  C   UNL d   1       9.316 -11.370  -8.921  0.00  0.00     0.021 C 
BRANCH  10  18
ATOM     18  O   UNL d   1       8.527 -13.566  -2.298  0.00  0.00    -0.356 OA
ATOM     19  H   UNL d   1       8.037 -12.877  -1.800  0.00  0.00     0.218 HD
ENDBRANCH  10  18
BRANCH  12  20
ATOM     20  O   UNL d   1       9.846 -14.979  -4.728  0.00  0.00    -0.356 OA
ATOM     21  H   UNL d   1       9.868 -15.426  -3.850  0.00  0.00     0.218 HD
ENDBRANCH  12  20
ENDBRANCH   7   8
ENDBRANCH   4   7
BRANCH   1  22
ATOM     22  C   UNL d   1       4.739  -5.218  -3.215  0.00  0.00     0.256 C 
ATOM     23  N   UNL d   1       5.030  -4.588  -2.007  0.00  0.00    -0.323 N 
ATOM     24  H   UNL d   1       5.779  -4.955  -1.433  0.00  0.00     0.169 HD
ATOM     25  O   UNL d   1       3.895  -4.882  -4.042  0.00  0.00    -0.267 OA
BRANCH  23  26
ATOM     26  C   UNL d   1       4.371  -3.411  -1.541  0.00  0.00     0.036 A 
ATOM     27  C   UNL d   1       4.741  -2.804  -0.336  0.00  0.00     0.032 A 
ATOM     28  C   UNL d   1       4.061  -1.651   0.118  0.00  0.00     0.041 A 
ATOM     29  C   UNL d   1       2.999  -1.092  -0.614  0.00  0.00     0.090 A 
ATOM     30  C   UNL d   1       2.682  -1.658  -1.845  0.00  0.00     0.069 A 
ATOM     31  C   UNL d   1       3.346  -2.808  -2.272  0.00  0.00     0.056 A 
ATOM     32 CL   UNL d   1       1.569  -0.995  -2.990  0.00  0.00    -0.081 Cl
BRANCH  29  33
ATOM     33  O   UNL d   1       2.424   0.034  -0.083  0.00  0.00    -0.354 OA
ATOM     34  C   UNL d   1       0.995   0.015  -0.030  0.00  0.00     0.210 C 
ENDBRANCH  29  33
ENDBRANCH  23  26
ENDBRANCH   1  22
TORSDOF 7
