@<TRIPOS>MOLECULE
*****
 33 34 0 0 0
SMALL
GASTEIGER

@<TRIPOS>ATOM
      1 C           1.0360    0.0594    0.0667 C.3     1  UNL1        0.0004
      2 N           2.4783    0.0020    0.0810 N.am    1  UNL1       -0.3144
      3 C           3.1381   -1.0371    0.7073 C.2     1  UNL1        0.2439
      4 O           2.5611   -1.9625    1.2760 O.2     1  UNL1       -0.2702
      5 C           4.6242   -1.0017    0.7041 C.ar    1  UNL1        0.0384
      6 C           5.3709   -2.1729    0.6007 C.ar    1  UNL1       -0.0495
      7 C           6.7578   -2.1279    0.7840 C.ar    1  UNL1       -0.0593
      8 C           7.4076   -0.9056    1.0277 C.ar    1  UNL1       -0.0404
      9 C           6.6625    0.2754    1.1364 C.ar    1  UNL1        0.0344
     10 N           7.3072    1.5008    1.4647 N.am    1  UNL1       -0.2815
     11 C           6.6366    2.6949    1.6973 C.2     1  UNL1        0.2483
     12 O           5.4208    2.8867    1.6455 O.2     1  UNL1       -0.2699
     13 C           7.4193    3.9009    2.0175 C.ar    1  UNL1        0.0385
     14 C           6.8533    4.8327    2.9047 C.ar    1  UNL1       -0.0482
     15 C           7.4126    6.1016    3.0408 C.ar    1  UNL1       -0.0413
     16 C           8.5781    6.4209    2.3420 C.ar    1  UNL1        0.0593
     17 CL          9.2906    7.9653    2.6380 Cl      1  UNL1       -0.0820
     18 C           9.1407    5.4892    1.4562 C.ar    1  UNL1        0.0600
     19 CL         10.5249    5.8563    0.4902 Cl      1  UNL1       -0.0820
     20 C           8.5599    4.2278    1.2883 C.ar    1  UNL1       -0.0298
     21 C           5.2760    0.2022    0.9603 C.ar    1  UNL1       -0.0284
     22 H           0.7129    0.9257   -0.5162 H       1  UNL1        0.0426
     23 H           0.6637    0.1443    1.0919 H       1  UNL1        0.0426
     24 H           0.6436   -0.8567   -0.3833 H       1  UNL1        0.0426
     25 H           2.9971    0.7336   -0.3897 H       1  UNL1        0.1487
     26 H           4.8712   -3.1168    0.3955 H       1  UNL1        0.0625
     27 H           7.3267   -3.0562    0.7678 H       1  UNL1        0.0618
     28 H           8.4890   -0.9127    1.1483 H       1  UNL1        0.0636
     29 H           8.3105    1.4652    1.6087 H       1  UNL1        0.1551
     30 H           5.9480    4.5822    3.4597 H       1  UNL1        0.0625
     31 H           6.9222    6.8400    3.6721 H       1  UNL1        0.0633
     32 H           8.9569    3.5390    0.5490 H       1  UNL1        0.0640
     33 H           4.6457    1.0701    1.0755 H       1  UNL1        0.0644
@<TRIPOS>BOND
     1     1     2    1
     2     2     3   am
     3     3     4    2
     4     3     5    1
     5     5     6   ar
     6     6     7   ar
     7     7     8   ar
     8     8     9   ar
     9     9    10    1
    10    10    11   am
    11    11    12    2
    12    11    13    1
    13    13    14   ar
    14    14    15   ar
    15    15    16   ar
    16    16    17    1
    17    16    18   ar
    18    18    19    1
    19    18    20   ar
    20    13    20   ar
    21     9    21   ar
    22     5    21   ar
    23     1    22    1
    24     1    23    1
    25     1    24    1
    26     2    25    1
    27     6    26    1
    28     7    27    1
    29     8    28    1
    30    10    29    1
    31    14    30    1
    32    15    31    1
    33    20    32    1
    34    21    33    1
