REMARK  10 active torsions:
REMARK  status: ('A' for Active; 'I' for Inactive)
REMARK    1  A    between atoms: C_2  and  C_3 
REMARK       I    between atoms: C_2  and  N_24 
REMARK    2  A    between atoms: C_3  and  C_4 
REMARK    3  A    between atoms: C_4  and  N_5 
REMARK    4  A    between atoms: N_8  and  C_9 
REMARK    5  A    between atoms: C_9  and  C_10 
REMARK    6  A    between atoms: C_9  and  C_16 
REMARK    7  A    between atoms: N_24  and  N_25 
REMARK    8  A    between atoms: N_25  and  C_26 
REMARK    9  A    between atoms: C_26  and  N_28 
REMARK   10  A    between atoms: N_28  and  C_29 
ROOT
ATOM      1  N   UNL d   1       2.836   0.266  -3.674  0.00  0.00    -0.067 N 
ATOM      2  C   UNL d   1       3.460   1.649  -3.856  0.00  0.00     0.265 C 
ATOM      3  C   UNL d   1       4.425   1.655  -5.064  0.00  0.00     0.301 C 
ATOM      4  N   UNL d   1       5.483   0.637  -4.917  0.00  0.00     0.105 N 
ATOM      5  C   UNL d   1       4.783  -0.669  -5.035  0.00  0.00     0.301 C 
ATOM      6  C   UNL d   1       3.810  -0.915  -3.871  0.00  0.00     0.265 C 
ATOM      7  H   UNL d   1       2.156   0.190  -4.443  0.00  0.00     0.280 HD
ENDROOT
BRANCH   1   8
ATOM      8  C   UNL d   1       2.038   0.169  -2.370  0.00  0.00     0.244 C 
BRANCH   8   9
ATOM      9  C   UNL d   1       2.972   0.086  -1.162  0.00  0.00     0.132 C 
BRANCH   9  10
ATOM     10  C   UNL d   1       2.230  -0.011   0.125  0.00  0.00     0.237 C 
ATOM     11  O   UNL d   1       0.994  -0.009   0.150  0.00  0.00    -0.272 OA
ATOM     12  N   UNL d   1       2.985  -0.115   1.260  0.00  0.00    -0.268 N 
ATOM     13  H   UNL d   1       2.486  -0.183   2.152  0.00  0.00     0.190 HD
BRANCH  12  14
ATOM     14  N   UNL d   1       4.412  -0.144   1.366  0.00  0.00    -0.274 N 
ATOM     15  H   UNL d   1       4.985  -0.052   0.538  0.00  0.00     0.189 HD
BRANCH  14  16
ATOM     16  C   UNL d   1       4.977  -0.185   2.652  0.00  0.00     0.191 C 
ATOM     17  S   UNL d   1       3.971  -0.180   4.010  0.00  0.00    -0.039 SA
BRANCH  16  18
ATOM     18  N   UNL d   1       6.381  -0.191   2.655  0.00  0.00    -0.332 N 
ATOM     19  H   UNL d   1       6.880   0.104   1.825  0.00  0.00     0.168 HD
BRANCH  18  20
ATOM     20  C   UNL d   1       7.204  -0.357   3.814  0.00  0.00     0.034 A 
ATOM     21  C   UNL d   1       8.373   0.397   3.994  0.00  0.00     0.029 A 
ATOM     22  C   UNL d   1       9.177   0.196   5.133  0.00  0.00     0.002 A 
ATOM     23  C   UNL d   1       8.803  -0.726   6.110  0.00  0.00     0.000 A 
ATOM     24  C   UNL d   1       7.660  -1.491   5.925  0.00  0.00     0.002 A 
ATOM     25  C   UNL d   1       6.889  -1.323   4.774  0.00  0.00     0.029 A 
ENDBRANCH  18  20
ENDBRANCH  16  18
ENDBRANCH  14  16
ENDBRANCH  12  14
ENDBRANCH   9  10
ENDBRANCH   8   9
ENDBRANCH   1   8
BRANCH   4  26
ATOM     26  C   UNL d   1       6.263   0.749  -3.626  0.00  0.00     0.289 C 
BRANCH  26  27
ATOM     27  C   UNL d   1       7.224  -0.435  -3.477  0.00  0.00    -0.021 A 
ATOM     28  C   UNL d   1       7.148  -1.331  -2.395  0.00  0.00     0.010 A 
ATOM     29  C   UNL d   1       8.173  -2.252  -2.185  0.00  0.00     0.001 A 
ATOM     30  C   UNL d   1       9.244  -2.315  -3.076  0.00  0.00     0.000 A 
ATOM     31  C   UNL d   1       9.297  -1.467  -4.180  0.00  0.00     0.001 A 
ATOM     32  C   UNL d   1       8.274  -0.557  -4.399  0.00  0.00     0.010 A 
ENDBRANCH  26  27
BRANCH  26  33
ATOM     33  C   UNL d   1       6.941   2.115  -3.360  0.00  0.00    -0.021 A 
ATOM     34  C   UNL d   1       8.301   2.216  -3.028  0.00  0.00     0.010 A 
ATOM     35  C   UNL d   1       8.889   3.439  -2.713  0.00  0.00     0.001 A 
ATOM     36  C   UNL d   1       8.154   4.612  -2.789  0.00  0.00     0.000 A 
ATOM     37  C   UNL d   1       6.810   4.555  -3.091  0.00  0.00     0.001 A 
ATOM     38  C   UNL d   1       6.215   3.321  -3.314  0.00  0.00     0.010 A 
ENDBRANCH  26  33
ENDBRANCH   4  26
TORSDOF 10
