REMARK  9 active torsions:
REMARK  status: ('A' for Active; 'I' for Inactive)
REMARK    1  A    between atoms: C_2  and  O_3 
REMARK    2  A    between atoms: O_3  and  C_4 
REMARK    3  A    between atoms: C_8  and  C_9 
REMARK       I    between atoms: C_9  and  N_11 
REMARK    4  A    between atoms: N_11  and  C_12 
REMARK    5  A    between atoms: C_12  and  N_14 
REMARK    6  A    between atoms: N_14  and  C_15 
REMARK    7  A    between atoms: C_20  and  C_21 
REMARK       I    between atoms: C_21  and  N_23 
REMARK    8  A    between atoms: N_23  and  C_24 
REMARK    9  A    between atoms: C_24  and  C_25 
ROOT
ATOM      1  N   UNL d   1       7.136   1.724  -4.757  0.00  0.00    -0.332 N 
ATOM      2  H   UNL d   1       6.132   1.575  -4.817  0.00  0.00     0.168 HD
ENDROOT
BRANCH   1   3
ATOM      3  C   UNL d   1       7.753   2.584  -3.735  0.00  0.00     0.179 C 
ATOM      4  S   UNL d   1       9.265   3.284  -3.886  0.00  0.00    -0.040 SA
BRANCH   3   5
ATOM      5  N   UNL d   1       6.931   2.708  -2.541  0.00  0.00    -0.299 N 
ATOM      6  C   UNL d   1       7.307   2.802  -1.041  0.00  0.00     0.257 C 
ATOM      7  O   UNL d   1       8.470   3.091  -0.736  0.00  0.00    -0.267 OA
ATOM      8  H   UNL d   1       6.145   2.136  -2.753  0.00  0.00     0.171 HD
BRANCH   6   9
ATOM      9  C   UNL d   1       6.313   2.329   0.278  0.00  0.00     0.035 C 
ATOM     10  C   UNL d   1       6.936   2.161   1.531  0.00  0.00     0.017 C 
ATOM     11  C   UNL d   1       6.159   1.856   2.685  0.00  0.00     0.004 C 
ATOM     12  C   UNL d   1       4.805   1.457   2.608  0.00  0.00     0.037 C 
ATOM     13  C   UNL d   1       4.195   1.361   1.371  0.00  0.00     0.069 C 
ATOM     14  C   UNL d   1       4.908   1.905   0.284  0.00  0.00     0.053 C 
BRANCH  13  15
ATOM     15  O   UNL d   1       2.886   0.934   1.282  0.00  0.00    -0.351 OA
BRANCH  15  16
ATOM     16  C   UNL d   1       2.485   0.040   0.212  0.00  0.00     0.171 C 
ATOM     17  C   UNL d   1       0.955   0.006   0.115  0.00  0.00     0.034 C 
ENDBRANCH  15  16
ENDBRANCH  13  15
ENDBRANCH   6   9
ENDBRANCH   3   5
ENDBRANCH   1   3
BRANCH   1  18
ATOM     18  C   UNL d   1       7.806   1.412  -6.006  0.00  0.00     0.050 A 
ATOM     19  C   UNL d   1       7.256   1.937  -7.203  0.00  0.00     0.030 A 
ATOM     20  C   UNL d   1       7.970   1.880  -8.412  0.00  0.00     0.002 A 
ATOM     21  C   UNL d   1       9.243   1.323  -8.431  0.00  0.00     0.001 A 
ATOM     22  C   UNL d   1       9.759   0.727  -7.272  0.00  0.00     0.019 A 
ATOM     23  C   UNL d   1       9.035   0.718  -6.059  0.00  0.00     0.058 A 
BRANCH  23  24
ATOM     24  C   UNL d   1       9.681  -0.028  -4.896  0.00  0.00     0.254 C 
ATOM     25  O   UNL d   1      10.835  -0.356  -4.937  0.00  0.00    -0.268 OA
ATOM     26  N   UNL d   1       8.858  -0.319  -3.808  0.00  0.00    -0.354 N 
ATOM     27  H   UNL d   1       7.993   0.195  -3.762  0.00  0.00     0.162 HD
BRANCH  26  28
ATOM     28  C   UNL d   1       9.392  -0.638  -2.471  0.00  0.00     0.155 C 
BRANCH  28  29
ATOM     29  C   UNL d   1       8.258  -0.594  -1.425  0.00  0.00     0.139 C 
ATOM     30  C   UNL d   1       7.160  -1.646  -1.439  0.00  0.00     0.035 C 
ATOM     31  C   UNL d   1       5.942  -0.935  -0.881  0.00  0.00     0.029 C 
ATOM     32  C   UNL d   1       6.104   0.250  -1.721  0.00  0.00     0.168 C 
ATOM     33  O   UNL d   1       7.477   0.501  -1.870  0.00  0.00    -0.384 OA
ENDBRANCH  28  29
ENDBRANCH  26  28
ENDBRANCH  23  24
ENDBRANCH   1  18
TORSDOF 9
