REMARK  11 active torsions:
REMARK  status: ('A' for Active; 'I' for Inactive)
REMARK    1  A    between atoms: C_2  and  C_3 
REMARK       I    between atoms: C_2  and  N_20 
REMARK    2  A    between atoms: C_3  and  C_4 
REMARK    3  A    between atoms: C_4  and  C_5 
REMARK    4  A    between atoms: C_5  and  C_6 
REMARK    5  A    between atoms: C_6  and  C_7 
REMARK       I    between atoms: C_7  and  N_9 
REMARK    6  A    between atoms: N_9  and  N_10 
REMARK    7  A    between atoms: C_11  and  C_12 
REMARK    8  A    between atoms: C_18  and  O_19 
REMARK    9  A    between atoms: N_20  and  N_21 
REMARK   10  A    between atoms: C_22  and  C_23 
REMARK   11  A    between atoms: C_29  and  O_30 
ROOT
ATOM      1  C   UNL d   1       1.962  -0.116  -2.471  0.00  0.00     0.010 C 
ENDROOT
BRANCH   1   2
ATOM      2  C   UNL d   1       2.938  -0.084  -1.279  0.00  0.00     0.105 C 
BRANCH   2   3
ATOM      3  C   UNL d   1       2.211  -0.051   0.062  0.00  0.00     0.237 C 
ATOM      4  O   UNL d   1       0.980  -0.041   0.153  0.00  0.00    -0.272 OA
ATOM      5  N   UNL d   1       2.986  -0.037   1.205  0.00  0.00    -0.247 N 
ATOM      6  H   UNL d   1       2.490   0.006   2.088  0.00  0.00     0.192 HD
BRANCH   5   7
ATOM      7  N   UNL d   1       4.346  -0.026   1.165  0.00  0.00    -0.184 NA
ATOM      8  C   UNL d   1       4.972  -0.007   2.301  0.00  0.00     0.153 C 
BRANCH   8   9
ATOM      9  C   UNL d   1       6.456   0.028   2.352  0.00  0.00     0.018 A 
ATOM     10  C   UNL d   1       7.132  -0.790   3.268  0.00  0.00     0.039 A 
ATOM     11  C   UNL d   1       8.531  -0.797   3.278  0.00  0.00     0.035 A 
ATOM     12 CL   UNL d   1       9.381  -1.820   4.372  0.00  0.00    -0.084 Cl
ATOM     13  C   UNL d   1       9.258   0.011   2.402  0.00  0.00     0.026 A 
ATOM     14  C   UNL d   1       8.584   0.844   1.509  0.00  0.00     0.039 A 
ATOM     15  C   UNL d   1       7.188   0.856   1.491  0.00  0.00     0.077 A 
BRANCH  15  16
ATOM     16  O   UNL d   1       6.538   1.724   0.662  0.00  0.00    -0.360 OA
ATOM     17  H   UNL d   1       7.173   2.170   0.080  0.00  0.00     0.217 HD
ENDBRANCH  15  16
ENDBRANCH   8   9
ENDBRANCH   5   7
ENDBRANCH   2   3
ENDBRANCH   1   2
BRANCH   1  18
ATOM     18  C   UNL d   1       2.695  -0.152  -3.816  0.00  0.00     0.010 C 
BRANCH  18  19
ATOM     19  C   UNL d   1       1.751  -0.185  -5.039  0.00  0.00     0.105 C 
BRANCH  19  20
ATOM     20  C   UNL d   1       2.556  -0.215  -6.342  0.00  0.00     0.237 C 
ATOM     21  O   UNL d   1       3.791  -0.215  -6.322  0.00  0.00    -0.272 OA
ATOM     22  N   UNL d   1       1.806  -0.233  -7.519  0.00  0.00    -0.247 N 
ATOM     23  H   UNL d   1       0.793  -0.258  -7.516  0.00  0.00     0.192 HD
BRANCH  22  24
ATOM     24  N   UNL d   1       2.492  -0.283  -8.710  0.00  0.00    -0.184 NA
ATOM     25  C   UNL d   1       1.842  -0.300  -9.829  0.00  0.00     0.153 C 
BRANCH  25  26
ATOM     26  C   UNL d   1       2.564  -0.365 -11.134  0.00  0.00     0.018 A 
ATOM     27  C   UNL d   1       2.141   0.453 -12.192  0.00  0.00     0.039 A 
ATOM     28  C   UNL d   1       2.836   0.428 -13.408  0.00  0.00     0.035 A 
ATOM     29 CL   UNL d   1       2.339   1.444 -14.708  0.00  0.00    -0.084 Cl
ATOM     30  C   UNL d   1       3.939  -0.408 -13.587  0.00  0.00     0.026 A 
ATOM     31  C   UNL d   1       4.350  -1.237 -12.544  0.00  0.00     0.039 A 
ATOM     32  C   UNL d   1       3.658  -1.220 -11.328  0.00  0.00     0.077 A 
BRANCH  32  33
ATOM     33  O   UNL d   1       4.021  -2.100 -10.349  0.00  0.00    -0.360 OA
ATOM     34  H   UNL d   1       4.856  -2.535 -10.579  0.00  0.00     0.217 HD
ENDBRANCH  32  33
ENDBRANCH  25  26
ENDBRANCH  22  24
ENDBRANCH  19  20
ENDBRANCH  18  19
ENDBRANCH   1  18
TORSDOF 11
