@<TRIPOS>MOLECULE
*****
 56 57 0 0 0
SMALL
GASTEIGER

@<TRIPOS>ATOM
      1 C           1.1073   -0.0071    0.0515 C.3     1  UNL1       -0.0442
      2 C           2.6495    0.0259    0.0580 C.3     1  UNL1        0.0265
      3 C           3.1093    0.7181   -1.2350 C.3     1  UNL1       -0.0442
      4 C           3.0970    0.8284    1.2885 C.3     1  UNL1       -0.0442
      5 N           3.2027   -1.3356    0.1342 N.am    1  UNL1       -0.3066
      6 C           4.5658   -1.5799    0.2272 C.2     1  UNL1        0.2445
      7 O           5.4453   -0.7128    0.2168 O.2     1  UNL1       -0.2702
      8 C           5.0076   -2.9812    0.2796 C.ar    1  UNL1        0.0368
      9 C           6.1223   -3.4227    1.0139 C.ar    1  UNL1       -0.0479
     10 C           6.6278   -4.7531    0.8742 C.ar    1  UNL1       -0.0398
     11 C           5.9974   -5.6641    0.0134 C.ar    1  UNL1        0.0326
     12 N           6.3723   -7.0814   -0.0896 N.am    1  UNL1       -0.2966
     13 C           5.6660   -8.0886   -0.8234 C.2     1  UNL1        0.1408
     14 S           4.2546   -7.8230   -1.7250 S.2     1  UNL1       -0.0182
     15 N           6.1983   -9.4028   -0.7660 N.am    1  UNL1       -0.2676
     16 C           5.6307  -10.4662   -1.4957 C.2     1  UNL1        0.2186
     17 O           4.6843  -10.3539   -2.2774 O.2     1  UNL1       -0.2754
     18 C           6.1736  -11.8649   -1.3890 C.3     1  UNL1        0.0274
     19 C           5.3225  -12.7444   -2.3641 C.3     1  UNL1       -0.0104
     20 C           5.7750  -14.1825   -2.3600 C.3     1  UNL1        0.0901
     21 O           4.9641  -14.9660   -3.2335 O.3     1  UNL1       -0.4905
     22 C           5.1870  -16.3217   -3.2165 C.ar    1  UNL1        0.1388
     23 C           5.1000  -16.9357   -4.4817 C.ar    1  UNL1       -0.0171
     24 C           5.1763  -18.3285   -4.6141 C.ar    1  UNL1       -0.0398
     25 C           5.4093  -19.1118   -3.4910 C.ar    1  UNL1        0.0426
     26 CL          5.6184  -20.8112   -3.6384 Cl      1  UNL1       -0.0835
     27 C           5.4996  -18.5250   -2.2375 C.ar    1  UNL1       -0.0215
     28 C           5.3730  -17.1412   -2.0885 C.ar    1  UNL1        0.0839
     29 CL          5.4088  -16.6255   -0.4378 Cl      1  UNL1       -0.0797
     30 C           4.9617   -5.1065   -0.7442 C.ar    1  UNL1       -0.0398
     31 C           4.4247   -3.8405   -0.6073 C.ar    1  UNL1       -0.0479
     32 H           0.6977    1.0110    0.0118 H       1  UNL1        0.0250
     33 H           0.7097   -0.4860    0.9533 H       1  UNL1        0.0250
     34 H           0.7143   -0.5533   -0.8135 H       1  UNL1        0.0250
     35 H           2.7231    1.7413   -1.2938 H       1  UNL1        0.0250
     36 H           2.7586    0.1717   -2.1189 H       1  UNL1        0.0250
     37 H           4.1989    0.7778   -1.3046 H       1  UNL1        0.0250
     38 H           2.7063    1.8492    1.2630 H       1  UNL1        0.0250
     39 H           4.1853    0.9047    1.3566 H       1  UNL1        0.0250
     40 H           2.7516    0.3454    2.2101 H       1  UNL1        0.0250
     41 H           2.5525   -2.1146    0.1664 H       1  UNL1        0.1495
     42 H           6.6027   -2.7156    1.6894 H       1  UNL1        0.0626
     43 H           7.5287   -5.0073    1.4286 H       1  UNL1        0.0636
     44 H           7.1424   -7.3509    0.5162 H       1  UNL1        0.1538
     45 H           6.9773   -9.6067   -0.1552 H       1  UNL1        0.1565
     46 H           6.0634  -12.2275   -0.3627 H       1  UNL1        0.0359
     47 H           7.2215  -11.8834   -1.6942 H       1  UNL1        0.0359
     48 H           5.3465  -12.3521   -3.3911 H       1  UNL1        0.0302
     49 H           4.2583  -12.7107   -2.0724 H       1  UNL1        0.0302
     50 H           5.6551  -14.4684   -1.3262 H       1  UNL1        0.0696
     51 H           6.8213  -14.2533   -2.6652 H       1  UNL1        0.0696
     52 H           4.9738  -16.3313   -5.3797 H       1  UNL1        0.0655
     53 H           5.0495  -18.7961   -5.5877 H       1  UNL1        0.0633
     54 H           5.6467  -19.1450   -1.3573 H       1  UNL1        0.0648
     55 H           4.4972   -5.5854   -1.5768 H       1  UNL1        0.0636
     56 H           3.6147   -3.5575   -1.2722 H       1  UNL1        0.0626
@<TRIPOS>BOND
     1     1     2    1
     2     2     3    1
     3     2     4    1
     4     2     5    1
     5     5     6   am
     6     6     7    2
     7     6     8    1
     8     8     9   ar
     9     9    10   ar
    10    10    11   ar
    11    11    12    1
    12    12    13    1
    13    13    14    2
    14    13    15    1
    15    15    16   am
    16    16    17    2
    17    16    18    1
    18    18    19    1
    19    19    20    1
    20    20    21    1
    21    21    22    1
    22    22    23   ar
    23    23    24   ar
    24    24    25   ar
    25    25    26    1
    26    25    27   ar
    27    27    28   ar
    28    22    28   ar
    29    28    29    1
    30    11    30   ar
    31    30    31   ar
    32     8    31   ar
    33     1    32    1
    34     1    33    1
    35     1    34    1
    36     3    35    1
    37     3    36    1
    38     3    37    1
    39     4    38    1
    40     4    39    1
    41     4    40    1
    42     5    41    1
    43     9    42    1
    44    10    43    1
    45    12    44    1
    46    15    45    1
    47    18    46    1
    48    18    47    1
    49    19    48    1
    50    19    49    1
    51    20    50    1
    52    20    51    1
    53    23    52    1
    54    24    53    1
    55    27    54    1
    56    30    55    1
    57    31    56    1
