@<TRIPOS>MOLECULE
*****
 49 50 0 0 0
SMALL
GASTEIGER

@<TRIPOS>ATOM
      1 C           1.0343    0.0967   -0.0481 C.3     1  UNL1       -0.0380
      2 C           2.5679    0.0537   -0.0569 C.3     1  UNL1        0.0983
      3 N           3.0766   -1.2698    0.3576 N.am    1  UNL1       -0.3003
      4 C           2.7149   -1.8602    1.5616 C.2     1  UNL1        0.2447
      5 O           2.0062   -1.3267    2.4119 O.2     1  UNL1       -0.2702
      6 C           3.2111   -3.2391    1.8129 C.ar    1  UNL1        0.0368
      7 C           4.5523   -3.5485    1.5706 C.ar    1  UNL1       -0.0483
      8 C           5.0309   -4.8366    1.8286 C.ar    1  UNL1       -0.0427
      9 C           4.1725   -5.8147    2.3313 C.ar    1  UNL1        0.0410
     10 CL          4.7673   -7.4057    2.6085 Cl      1  UNL1       -0.0835
     11 C           2.8408   -5.5083    2.6082 C.ar    1  UNL1       -0.0427
     12 C           2.3598   -4.2152    2.3586 C.ar    1  UNL1       -0.0483
     13 C           3.0556    0.4876   -1.4801 C.2     1  UNL1        0.2491
     14 O           2.2876    0.8206   -2.3864 O.2     1  UNL1       -0.2723
     15 N           4.4193    0.5370   -1.6770 N.am    1  UNL1       -0.2329
     16 N           4.9258    0.9261   -2.9523 N.am    1  UNL1       -0.2344
     17 C           6.2878    1.0995   -3.0459 C.2     1  UNL1        0.2293
     18 O           6.9707    0.9678   -2.0291 O.2     1  UNL1       -0.2743
     19 C           6.8554    1.4347   -4.4353 C.3     1  UNL1        0.0282
     20 C           8.4066    1.4500   -4.4945 C.3     1  UNL1       -0.0327
     21 C           8.9571    2.7282   -3.8393 C.3     1  UNL1       -0.0498
     22 C          10.4785    2.7289   -3.7289 C.3     1  UNL1       -0.0528
     23 C          10.9854    1.4731   -3.0327 C.3     1  UNL1       -0.0530
     24 C          10.5378    0.2212   -3.7798 C.3     1  UNL1       -0.0528
     25 C           9.0238    0.1686   -3.9008 C.3     1  UNL1       -0.0498
     26 H           0.6069   -0.1573    0.9247 H       1  UNL1        0.0252
     27 H           0.6235   -0.6079   -0.7794 H       1  UNL1        0.0252
     28 H           0.6710    1.0989   -0.3003 H       1  UNL1        0.0252
     29 H           2.9463    0.7821    0.6719 H       1  UNL1        0.0592
     30 H           3.5656   -1.8289   -0.3312 H       1  UNL1        0.1498
     31 H           5.2375   -2.7836    1.2181 H       1  UNL1        0.0625
     32 H           6.0766   -5.0677    1.6443 H       1  UNL1        0.0632
     33 H           2.1793   -6.2681    3.0202 H       1  UNL1        0.0632
     34 H           1.3227   -3.9779    2.5912 H       1  UNL1        0.0625
     35 H           5.1167    0.4011   -0.9440 H       1  UNL1        0.1728
     36 H           4.2506    1.1835   -3.6708 H       1  UNL1        0.1728
     37 H           6.4733    2.4171   -4.7426 H       1  UNL1        0.0361
     38 H           6.4843    0.7056   -5.1676 H       1  UNL1        0.0361
     39 H           8.7058    1.4886   -5.5544 H       1  UNL1        0.0305
     40 H           8.5310    2.8471   -2.8376 H       1  UNL1        0.0268
     41 H           8.6416    3.6056   -4.4185 H       1  UNL1        0.0268
     42 H          10.8017    3.6167   -3.1735 H       1  UNL1        0.0265
     43 H          10.9228    2.7954   -4.7291 H       1  UNL1        0.0265
     44 H          10.6087    1.4501   -2.0012 H       1  UNL1        0.0265
     45 H          12.0783    1.4936   -2.9735 H       1  UNL1        0.0265
     46 H          10.8767   -0.6669   -3.2334 H       1  UNL1        0.0265
     47 H          10.9909    0.1897   -4.7755 H       1  UNL1        0.0265
     48 H           8.6727   -0.0138   -2.8860 H       1  UNL1        0.0268
     49 H           8.7102   -0.7029   -4.4860 H       1  UNL1        0.0268
@<TRIPOS>BOND
     1     1     2    1
     2     2     3    1
     3     3     4   am
     4     4     5    2
     5     4     6    1
     6     6     7   ar
     7     7     8   ar
     8     8     9   ar
     9     9    10    1
    10     9    11   ar
    11    11    12   ar
    12     6    12   ar
    13     2    13    1
    14    13    14    2
    15    13    15   am
    16    15    16    1
    17    16    17   am
    18    17    18    2
    19    17    19    1
    20    19    20    1
    21    20    21    1
    22    21    22    1
    23    22    23    1
    24    23    24    1
    25    24    25    1
    26    20    25    1
    27     1    26    1
    28     1    27    1
    29     1    28    1
    30     2    29    1
    31     3    30    1
    32     7    31    1
    33     8    32    1
    34    11    33    1
    35    12    34    1
    36    15    35    1
    37    16    36    1
    38    19    37    1
    39    19    38    1
    40    20    39    1
    41    21    40    1
    42    21    41    1
    43    22    42    1
    44    22    43    1
    45    23    44    1
    46    23    45    1
    47    24    46    1
    48    24    47    1
    49    25    48    1
    50    25    49    1
