@<TRIPOS>MOLECULE
*****
 47 49 0 0 0
SMALL
GASTEIGER

@<TRIPOS>ATOM
      1 O           1.1115   -0.0609    0.2196 O.2     1  UNL1       -0.2743
      2 C           2.3413   -0.0415    0.1403 C.2     1  UNL1        0.2292
      3 C           3.0644    0.2422   -1.1658 C.3     1  UNL1        0.0285
      4 C           2.1006    0.4991   -2.3321 C.3     1  UNL1       -0.0103
      5 C           2.8437    0.7780   -3.6427 C.3     1  UNL1        0.0902
      6 O           1.8833    1.0436   -4.6708 O.3     1  UNL1       -0.4891
      7 C           2.3903    1.2796   -5.9233 C.ar    1  UNL1        0.1557
      8 C           3.4202    0.5314   -6.5007 C.ar    1  UNL1       -0.0144
      9 C           3.8067    0.7760   -7.8243 C.ar    1  UNL1       -0.0228
     10 C           3.1634    1.7626   -8.5653 C.ar    1  UNL1        0.1264
     11 F           3.5313    1.9771   -9.8353 F       1  UNL1       -0.2054
     12 C           2.1427    2.5181   -8.0097 C.ar    1  UNL1        0.0124
     13 C           1.7586    2.2653   -6.6950 C.ar    1  UNL1        0.1675
     14 F           0.7674    2.9998   -6.1681 F       1  UNL1       -0.2016
     15 N           3.1035   -0.2840    1.2583 N.am    1  UNL1       -0.2344
     16 N           4.5092   -0.3017    1.3284 N.am    1  UNL1       -0.2341
     17 C           5.0806   -0.5553    2.5734 C.2     1  UNL1        0.2335
     18 O           4.3736   -0.7616    3.5614 O.2     1  UNL1       -0.2739
     19 C           6.6144   -0.5531    2.5890 C.3     1  UNL1        0.0525
     20 C           7.1659   -0.8577    3.9521 C.ar    1  UNL1       -0.0136
     21 C           7.6812    0.0337    4.8749 C.ar    1  UNL1        0.0064
     22 N           7.9573   -0.6541    6.0306 N.ar    1  UNL1       -0.3604
     23 C           7.7224   -1.9983    5.8532 C.ar    1  UNL1        0.0467
     24 C           7.8904   -3.0789    6.7304 C.ar    1  UNL1       -0.0378
     25 C           7.5810   -4.3567    6.2496 C.ar    1  UNL1       -0.0598
     26 C           7.0938   -4.5408    4.9583 C.ar    1  UNL1       -0.0611
     27 C           6.9025   -3.4479    4.1097 C.ar    1  UNL1       -0.0523
     28 C           7.2351   -2.1542    4.5557 C.ar    1  UNL1        0.0033
     29 H           3.6984   -0.6203   -1.3994 H       1  UNL1        0.0360
     30 H           3.7012    1.1216   -1.0207 H       1  UNL1        0.0360
     31 H           1.4362    1.3416   -2.1010 H       1  UNL1        0.0302
     32 H           1.4361   -0.3643   -2.4714 H       1  UNL1        0.0302
     33 H           3.4535   -0.0975   -3.8857 H       1  UNL1        0.0696
     34 H           3.4905    1.6548   -3.5231 H       1  UNL1        0.0696
     35 H           3.9116   -0.2709   -5.9618 H       1  UNL1        0.0656
     36 H           4.5947    0.1902   -8.2890 H       1  UNL1        0.0647
     37 H           1.6467    3.2857   -8.5920 H       1  UNL1        0.0676
     38 H           2.6101   -0.4727    2.1352 H       1  UNL1        0.1728
     39 H           5.0589   -0.1154    0.4995 H       1  UNL1        0.1728
     40 H           6.9754    0.4246    2.2495 H       1  UNL1        0.0408
     41 H           6.9779   -1.3038    1.8754 H       1  UNL1        0.0408
     42 H           7.8339    1.1037    4.8283 H       1  UNL1        0.0810
     43 H           8.2896   -0.2393    6.8906 H       1  UNL1        0.1653
     44 H           8.2526   -2.9428    7.7444 H       1  UNL1        0.0638
     45 H           7.7199   -5.2216    6.8942 H       1  UNL1        0.0618
     46 H           6.8537   -5.5392    4.6031 H       1  UNL1        0.0618
     47 H           6.5047   -3.5975    3.1117 H       1  UNL1        0.0624
@<TRIPOS>BOND
     1     1     2    2
     2     2     3    1
     3     3     4    1
     4     4     5    1
     5     5     6    1
     6     6     7    1
     7     7     8   ar
     8     8     9   ar
     9     9    10   ar
    10    10    11    1
    11    10    12   ar
    12    12    13   ar
    13     7    13   ar
    14    13    14    1
    15     2    15   am
    16    15    16    1
    17    16    17   am
    18    17    18    2
    19    17    19    1
    20    19    20    1
    21    20    21   ar
    22    21    22   ar
    23    22    23   ar
    24    23    24   ar
    25    24    25   ar
    26    25    26   ar
    27    26    27   ar
    28    27    28   ar
    29    20    28   ar
    30    23    28   ar
    31     3    29    1
    32     3    30    1
    33     4    31    1
    34     4    32    1
    35     5    33    1
    36     5    34    1
    37     8    35    1
    38     9    36    1
    39    12    37    1
    40    15    38    1
    41    16    39    1
    42    19    40    1
    43    19    41    1
    44    21    42    1
    45    22    43    1
    46    24    44    1
    47    25    45    1
    48    26    46    1
    49    27    47    1
