@<TRIPOS>MOLECULE
*****
 51 55 0 0 0
SMALL
GASTEIGER

@<TRIPOS>ATOM
      1 C           0.9081   -0.0682   -0.0991 C.3     1  UNL1        0.0020
      2 C           2.4264   -0.1544   -0.1303 C.3     1  UNL1        0.1787
      3 N           2.9438    1.0479    0.5746 N.2     1  UNL1       -0.2341
      4 C           3.6453    0.6933    1.5856 C.ar    1  UNL1        0.2092
      5 C           4.3261    1.5582    2.5604 C.ar    1  UNL1        0.0098
      6 C           5.0189    0.9474    3.5385 C.ar    1  UNL1       -0.0555
      7 C           5.1063   -0.4999    3.6632 C.ar    1  UNL1       -0.0608
      8 C           4.4950   -1.3328    2.8027 C.ar    1  UNL1       -0.0478
      9 C           3.7409   -0.7736    1.7229 C.ar    1  UNL1        0.0572
     10 C           3.0341   -1.2696    0.6932 C.2     1  UNL1        0.0587
     11 C           2.7800   -2.6341    0.3629 C.ar    1  UNL1        0.0833
     12 C           3.1317   -3.3003   -0.7923 C.ar    1  UNL1        0.0048
     13 S           2.6889   -4.9766   -0.6418 S.2     1  UNL1       -0.0599
     14 C           2.0386   -4.6625    0.9124 C.ar    1  UNL1        0.1649
     15 N           1.4782   -5.7313    1.6072 N.am    1  UNL1       -0.2640
     16 C           0.9111   -5.4965    2.8605 C.2     1  UNL1        0.2289
     17 O           0.8835   -4.3721    3.3636 O.2     1  UNL1       -0.2745
     18 C           0.3101   -6.7213    3.6157 C.3     1  UNL1        0.0779
     19 S          -0.3816   -6.1520    5.2159 S.3     1  UNL1       -0.0785
     20 C          -1.0095   -7.4914    6.1032 C.ar    1  UNL1        0.1672
     21 N          -1.7900   -7.3649    7.1530 N.ar    1  UNL1       -0.2298
     22 C          -1.9742   -8.6370    7.6308 C.ar    1  UNL1        0.0543
     23 C          -1.2995   -9.5618    6.8562 C.ar    1  UNL1        0.0667
     24 C          -1.1771  -11.0047    7.0103 C.ar    1  UNL1       -0.0002
     25 C          -2.3269  -11.8016    7.0890 C.ar    1  UNL1       -0.0526
     26 C          -2.2336  -13.1484    7.4500 C.ar    1  UNL1       -0.0611
     27 C          -0.9840  -13.7348    7.6318 C.ar    1  UNL1       -0.0617
     28 C           0.1704  -12.9773    7.4421 C.ar    1  UNL1       -0.0611
     29 C           0.0747  -11.6062    7.1829 C.ar    1  UNL1       -0.0526
     30 N          -0.6867   -8.7991    5.8837 N.ar    1  UNL1       -0.3329
     31 N           2.1495   -3.4125    1.3040 N.ar    1  UNL1       -0.2247
     32 H           0.5573    0.8382   -0.6082 H       1  UNL1        0.0297
     33 H           0.5222   -0.0309    0.9274 H       1  UNL1        0.0297
     34 H           0.4602   -0.9309   -0.5998 H       1  UNL1        0.0297
     35 H           2.8233   -0.1179   -1.1502 H       1  UNL1        0.1115
     36 H           2.7667    2.0227    0.3486 H       1  UNL1        0.4462
     37 H           4.2732    2.6391    2.4961 H       1  UNL1        0.0683
     38 H           5.5428    1.5353    4.2916 H       1  UNL1        0.0620
     39 H           5.6842   -0.8949    4.4966 H       1  UNL1        0.0618
     40 H           4.5540   -2.4109    2.9161 H       1  UNL1        0.0626
     41 H           3.6438   -2.9349   -1.6736 H       1  UNL1        0.0716
     42 H           1.5015   -6.6459    1.1753 H       1  UNL1        0.1567
     43 H           1.0972   -7.4573    3.8025 H       1  UNL1        0.0475
     44 H          -0.4899   -7.1698    3.0197 H       1  UNL1        0.0475
     45 H          -2.5591   -8.8291    8.5241 H       1  UNL1        0.0851
     46 H          -3.3084  -11.3757    6.8926 H       1  UNL1        0.0624
     47 H          -3.1360  -13.7369    7.5983 H       1  UNL1        0.0618
     48 H          -0.9109  -14.7795    7.9254 H       1  UNL1        0.0618
     49 H           1.1452  -13.4506    7.5278 H       1  UNL1        0.0618
     50 H           0.9839  -11.0111    7.1662 H       1  UNL1        0.0624
     51 H          -0.0926   -9.1484    5.1521 H       1  UNL1        0.1679
@<TRIPOS>UNITY_ATOM_ATTR
3 1
charge 1
@<TRIPOS>BOND
     1     1     2    1
     2     2     3    1
     3     3     4    2
     4     4     5   ar
     5     5     6   ar
     6     6     7   ar
     7     7     8   ar
     8     8     9   ar
     9     4     9   ar
    10     9    10    2
    11     2    10    1
    12    10    11    1
    13    11    12   ar
    14    12    13   ar
    15    13    14   ar
    16    14    15    1
    17    15    16   am
    18    16    17    2
    19    16    18    1
    20    18    19    1
    21    19    20    1
    22    20    21   ar
    23    21    22   ar
    24    22    23   ar
    25    23    24    1
    26    24    25   ar
    27    25    26   ar
    28    26    27   ar
    29    27    28   ar
    30    28    29   ar
    31    24    29   ar
    32    23    30   ar
    33    20    30   ar
    34    14    31   ar
    35    11    31   ar
    36     1    32    1
    37     1    33    1
    38     1    34    1
    39     2    35    1
    40     3    36    1
    41     5    37    1
    42     6    38    1
    43     7    39    1
    44     8    40    1
    45    12    41    1
    46    15    42    1
    47    18    43    1
    48    18    44    1
    49    22    45    1
    50    25    46    1
    51    26    47    1
    52    27    48    1
    53    28    49    1
    54    29    50    1
    55    30    51    1
