@<TRIPOS>MOLECULE
*****
 49 50 0 0 0
SMALL
GASTEIGER

@<TRIPOS>ATOM
      1 C           1.0506    0.8363    0.3154 C.3     1  UNL1       -0.0588
      2 C           2.5223    0.4007    0.1801 C.3     1  UNL1       -0.0009
      3 C           3.1554    1.6071   -0.4906 C.3     1  UNL1       -0.0588
      4 C           3.0321   -0.1159    1.5511 C.3     1  UNL1        0.1780
      5 O           2.5654   -1.4901    1.8814 O.3     1  UNL1       -0.4781
      6 C           1.2232   -1.8402    1.9180 C.ar    1  UNL1        0.1389
      7 C           0.6959   -2.1791    3.1780 C.ar    1  UNL1       -0.0186
      8 C          -0.6850   -2.3806    3.3551 C.ar    1  UNL1       -0.0582
      9 C          -1.5640   -2.1221    2.3107 C.ar    1  UNL1       -0.0603
     10 C          -1.0494   -1.8471    1.0515 C.ar    1  UNL1       -0.0408
     11 C           0.3410   -1.9142    0.8073 C.ar    1  UNL1        0.0933
     12 C           0.7260   -1.7929   -0.5748 C.1     1  UNL1        0.1028
     13 N           0.9603   -1.5337   -1.6951 N.1     1  UNL1       -0.1907
     14 C           4.5936   -0.1847    1.4995 C.2     1  UNL1        0.2582
     15 O           5.2053   -0.1526    0.4288 O.2     1  UNL1       -0.2714
     16 N           5.2688   -0.3080    2.7072 N.am    1  UNL1       -0.2824
     17 C           6.6862   -0.2658    2.7568 C.ar    1  UNL1        0.0335
     18 C           7.4133   -1.1322    3.5721 C.ar    1  UNL1       -0.0402
     19 C           8.8138   -1.0090    3.6625 C.ar    1  UNL1       -0.0553
     20 C           9.5158   -0.0638    2.8894 C.ar    1  UNL1       -0.0302
     21 C          11.0293   -0.0667    2.8975 C.3     1  UNL1        0.0383
     22 N          11.6609    0.9074    2.0292 N.am    1  UNL1       -0.2955
     23 C          12.9719    1.1218    1.8156 C.2     1  UNL1        0.2973
     24 N          13.8405    0.3516    2.4905 N.am    1  UNL1       -0.3134
     25 O          13.3521    1.9899    1.0396 O.2     1  UNL1       -0.2531
     26 C           8.7642    0.8059    2.0954 C.ar    1  UNL1       -0.0553
     27 C           7.3774    0.6967    2.0212 C.ar    1  UNL1       -0.0402
     28 H           0.5036    0.8604   -0.6351 H       1  UNL1        0.0234
     29 H           0.8580    1.7479    0.8783 H       1  UNL1        0.0234
     30 H           0.5544    0.1755    0.9835 H       1  UNL1        0.0234
     31 H           2.7330   -0.4402   -0.4936 H       1  UNL1        0.0336
     32 H           2.8704    2.5070    0.0539 H       1  UNL1        0.0234
     33 H           2.7572    1.6710   -1.5139 H       1  UNL1        0.0234
     34 H           4.2378    1.5803   -0.5838 H       1  UNL1        0.0234
     35 H           2.7426    0.5970    2.3353 H       1  UNL1        0.0834
     36 H           1.3476   -2.2991    4.0403 H       1  UNL1        0.0654
     37 H          -1.0838   -2.7022    4.3159 H       1  UNL1        0.0619
     38 H          -2.6411   -2.1651    2.4575 H       1  UNL1        0.0618
     39 H          -1.7314   -1.5205    0.2625 H       1  UNL1        0.0632
     40 H           4.7669   -0.6171    3.5279 H       1  UNL1        0.1549
     41 H           6.9233   -1.9606    4.0773 H       1  UNL1        0.0636
     42 H           9.3576   -1.6699    4.3367 H       1  UNL1        0.0621
     43 H          11.3798   -1.0536    2.5697 H       1  UNL1        0.0512
     44 H          11.3980    0.1087    3.9140 H       1  UNL1        0.0512
     45 H          11.0984    1.5131    1.4530 H       1  UNL1        0.1506
     46 H          13.5609   -0.3881    3.1097 H       1  UNL1        0.1465
     47 H          14.8241    0.5082    2.3232 H       1  UNL1        0.1465
     48 H           9.2132    1.5973    1.5072 H       1  UNL1        0.0621
     49 H           6.8489    1.3969    1.3799 H       1  UNL1        0.0636
@<TRIPOS>BOND
     1     1     2    1
     2     2     3    1
     3     2     4    1
     4     4     5    1
     5     5     6    1
     6     6     7   ar
     7     7     8   ar
     8     8     9   ar
     9     9    10   ar
    10    10    11   ar
    11     6    11   ar
    12    11    12    1
    13    12    13    3
    14     4    14    1
    15    14    15    2
    16    14    16   am
    17    16    17    1
    18    17    18   ar
    19    18    19   ar
    20    19    20   ar
    21    20    21    1
    22    21    22    1
    23    22    23   am
    24    23    24   am
    25    23    25    2
    26    20    26   ar
    27    26    27   ar
    28    17    27   ar
    29     1    28    1
    30     1    29    1
    31     1    30    1
    32     2    31    1
    33     3    32    1
    34     3    33    1
    35     3    34    1
    36     4    35    1
    37     7    36    1
    38     8    37    1
    39     9    38    1
    40    10    39    1
    41    16    40    1
    42    18    41    1
    43    19    42    1
    44    21    43    1
    45    21    44    1
    46    22    45    1
    47    24    46    1
    48    24    47    1
    49    26    48    1
    50    27    49    1
