REMARK  14 active torsions:
REMARK  status: ('A' for Active; 'I' for Inactive)
REMARK    1  A    between atoms: C_2  and  C_3 
REMARK    2  A    between atoms: C_3  and  C_4 
REMARK    3  A    between atoms: C_4  and  C_5 
REMARK    4  A    between atoms: C_5  and  C_6 
REMARK    5  A    between atoms: C_6  and  N_7 
REMARK       I    between atoms: N_7  and  C_8 
REMARK    6  A    between atoms: N_7  and  C_13 
REMARK    7  A    between atoms: C_8  and  C_10 
REMARK    8  A    between atoms: C_10  and  C_11 
REMARK    9  A    between atoms: C_13  and  C_14 
REMARK   10  A    between atoms: C_13  and  C_28 
REMARK       I    between atoms: C_14  and  N_16 
REMARK   11  A    between atoms: N_16  and  C_17 
REMARK   12  A    between atoms: C_17  and  S_18 
REMARK   13  A    between atoms: S_18  and  C_21 
REMARK   14  A    between atoms: C_31  and  N_32 
ROOT
ATOM      1  C   UNL d   1       8.488   3.136   3.037  0.00  0.00     0.212 C 
ENDROOT
BRANCH   1   2
ATOM      2  N   UNL d   1       6.987   2.983   2.904  0.00  0.00    -0.335 N 
ATOM      3  C   UNL d   1       6.203   3.861   3.694  0.00  0.00     0.220 C 
ATOM      4  O   UNL d   1       6.723   4.663   4.474  0.00  0.00    -0.273 OA
BRANCH   2   5
ATOM      5  C   UNL d   1       6.506   2.143   1.754  0.00  0.00     0.127 C 
BRANCH   5   6
ATOM      6  C   UNL d   1       5.033   1.890   1.703  0.00  0.00     0.020 C 
BRANCH   6   7
ATOM      7  C   UNL d   1       4.545   0.832   0.772  0.00  0.00     0.002 C 
BRANCH   7   8
ATOM      8  C   UNL d   1       3.022   0.884   0.861  0.00  0.00    -0.000 C 
BRANCH   8   9
ATOM      9  C   UNL d   1       2.459  -0.132  -0.099  0.00  0.00    -0.005 C 
ATOM     10  C   UNL d   1       0.951  -0.106  -0.074  0.00  0.00     0.005 C 
ENDBRANCH   8   9
ENDBRANCH   7   8
ENDBRANCH   6   7
ENDBRANCH   5   6
ENDBRANCH   2   5
BRANCH   3  11
ATOM     11  C   UNL d   1       4.676   3.784   3.629  0.00  0.00     0.103 C 
BRANCH  11  12
ATOM     12  C   UNL d   1       3.840   4.689   4.506  0.00  0.00     0.005 C 
ATOM     13  C   UNL d   1       2.356   4.408   4.239  0.00  0.00     0.005 C 
ENDBRANCH  11  12
ENDBRANCH   3  11
ENDBRANCH   1   2
BRANCH   1  14
ATOM     14  C   UNL d   1       9.057   3.974   1.799  0.00  0.00     0.246 C 
ATOM     15  O   UNL d   1       8.359   4.355   0.857  0.00  0.00    -0.271 OA
ATOM     16  N   UNL d   1      10.400   4.290   1.803  0.00  0.00    -0.345 N 
ATOM     17  H   UNL d   1      10.966   4.142   2.624  0.00  0.00     0.163 HD
BRANCH  16  18
ATOM     18  C   UNL d   1      11.076   4.986   0.695  0.00  0.00     0.268 C 
BRANCH  18  19
ATOM     19  S   UNL d   1      12.867   5.201   0.920  0.00  0.00     0.192 S 
ATOM     20  O   UNL d   1      13.065   6.068   2.077  0.00  0.00    -0.221 OA
ATOM     21  O   UNL d   1      13.483   3.892   0.897  0.00  0.00    -0.221 OA
BRANCH  19  22
ATOM     22  C   UNL d   1      13.410   6.098  -0.515  0.00  0.00     0.060 A 
ATOM     23  C   UNL d   1      13.255   7.485  -0.549  0.00  0.00     0.024 A 
ATOM     24  C   UNL d   1      13.629   8.196  -1.691  0.00  0.00     0.008 A 
ATOM     25  C   UNL d   1      14.182   7.535  -2.795  0.00  0.00    -0.062 A 
ATOM     26  C   UNL d   1      14.536   8.297  -4.041  0.00  0.00     0.048 C 
ATOM     27  C   UNL d   1      14.392   6.150  -2.724  0.00  0.00     0.008 A 
ATOM     28  C   UNL d   1      14.018   5.430  -1.583  0.00  0.00     0.024 A 
ENDBRANCH  19  22
ENDBRANCH  18  19
ENDBRANCH  16  18
ENDBRANCH   1  14
BRANCH   1  29
ATOM     29  C   UNL d   1       9.213   1.781   3.256  0.00  0.00    -0.026 C 
ATOM     30  C   UNL d   1      10.604   1.680   3.414  0.00  0.00     0.012 C 
ATOM     31  C   UNL d   1      11.248   0.436   3.450  0.00  0.00     0.037 C 
ATOM     32  C   UNL d   1      10.498  -0.735   3.321  0.00  0.00     0.102 C 
ATOM     33  C   UNL d   1       9.116  -0.669   3.255  0.00  0.00     0.037 C 
ATOM     34  C   UNL d   1       8.502   0.573   3.348  0.00  0.00     0.012 C 
BRANCH  32  35
ATOM     35  N   UNL d   1      11.142  -2.046   3.364  0.00  0.00    -0.116 N 
ATOM     36  O   UNL d   1      12.368  -2.079   3.527  0.00  0.00    -0.532 OA
ATOM     37  O   UNL d   1      10.416  -3.045   3.250  0.00  0.00    -0.532 OA
ENDBRANCH  32  35
ENDBRANCH   1  29
TORSDOF 14
