@<TRIPOS>MOLECULE
*****
 47 49 0 0 0
SMALL
GASTEIGER

@<TRIPOS>ATOM
      1 C           1.0339    0.1251   -0.0684 C.3     1  UNL1       -0.0611
      2 C           2.5663    0.1643   -0.0081 C.3     1  UNL1       -0.0271
      3 C           3.0766   -0.8679    0.9698 C.ar    1  UNL1       -0.0054
      4 C           2.8734   -2.2007    0.6101 C.ar    1  UNL1       -0.0441
      5 C           3.0316   -3.2967    1.4621 C.ar    1  UNL1        0.0228
      6 C           2.6631   -4.7026    1.1534 C.ar    1  UNL1       -0.0130
      7 C           1.9951   -5.1990   -0.1281 C.3     1  UNL1        0.0353
      8 N           1.9287   -4.1383   -1.1225 N.pl3   1  UNL1       -0.3396
      9 C           1.2591   -4.2592   -2.3347 C.ar    1  UNL1        0.0291
     10 C           1.6201   -3.4437   -3.4008 C.ar    1  UNL1       -0.0407
     11 C           0.8275   -3.3982   -4.5480 C.ar    1  UNL1       -0.0583
     12 C          -0.3390   -4.1785   -4.6326 C.ar    1  UNL1       -0.0404
     13 C          -0.7653   -4.9196   -3.5246 C.ar    1  UNL1        0.0352
     14 N          -1.9874   -5.6457   -3.5265 N.am    1  UNL1       -0.2836
     15 C          -2.4832   -6.3526   -2.4276 C.2     1  UNL1        0.2427
     16 O          -1.9541   -6.4658   -1.3198 O.2     1  UNL1       -0.2730
     17 C          -3.7941   -7.0936   -2.6425 C.3     1  UNL1        0.1205
     18 O          -4.1696   -7.7958   -1.4555 O.3     1  UNL1       -0.3858
     19 C           0.0423   -4.9119   -2.3949 C.ar    1  UNL1       -0.0196
     20 C           2.9124   -5.6148    2.1100 C.ar    1  UNL1        0.0282
     21 C           3.5417   -5.3130    3.4057 C.ar    1  UNL1        0.3375
     22 O           3.7751   -6.2029    4.2072 O.2     1  UNL1       -0.2452
     23 O           3.8452   -3.9861    3.6570 O.2     1  UNL1       -0.4220
     24 C           3.5859   -2.9877    2.6993 C.ar    1  UNL1        0.1428
     25 C           3.9480   -1.6770    3.0565 C.ar    1  UNL1        0.0231
     26 C           3.6716   -0.6186    2.1893 C.ar    1  UNL1        0.1235
     27 O           3.9938    0.6646    2.5054 O.3     1  UNL1       -0.5064
     28 H           0.6528    0.8788   -0.7629 H       1  UNL1        0.0233
     29 H           0.5988    0.3067    0.9201 H       1  UNL1        0.0233
     30 H           0.6572   -0.8480   -0.4117 H       1  UNL1        0.0233
     31 H           2.9092    1.1693    0.2458 H       1  UNL1        0.0312
     32 H           2.9631   -0.0634   -1.0077 H       1  UNL1        0.0312
     33 H           2.5993   -2.2735   -0.4273 H       1  UNL1        0.0629
     34 H           0.9915   -5.5581    0.1359 H       1  UNL1        0.0511
     35 H           2.5616   -6.0452   -0.5341 H       1  UNL1        0.0511
     36 H           1.3471   -3.4269   -0.6772 H       1  UNL1        0.1464
     37 H           2.5230   -2.8404   -3.3274 H       1  UNL1        0.0636
     38 H           1.1276   -2.7477   -5.3671 H       1  UNL1        0.0619
     39 H          -0.8917   -4.1705   -5.5668 H       1  UNL1        0.0636
     40 H          -2.5193   -5.6372   -4.3886 H       1  UNL1        0.1549
     41 H          -3.6713   -7.8331   -3.4336 H       1  UNL1        0.0654
     42 H          -4.5862   -6.3817   -2.8793 H       1  UNL1        0.0654
     43 H          -3.3370   -8.1380   -1.0682 H       1  UNL1        0.2100
     44 H          -0.2741   -5.3828   -1.4827 H       1  UNL1        0.0655
     45 H           2.6620   -6.6638    1.9788 H       1  UNL1        0.0692
     46 H           4.4277   -1.5083    4.0140 H       1  UNL1        0.0691
     47 H           4.4591    0.6684    3.3566 H       1  UNL1        0.2921
@<TRIPOS>BOND
     1     1     2    1
     2     2     3    1
     3     3     4   ar
     4     4     5   ar
     5     5     6   ar
     6     6     7    1
     7     7     8    1
     8     8     9    1
     9     9    10   ar
    10    10    11   ar
    11    11    12   ar
    12    12    13   ar
    13    13    14    1
    14    14    15   am
    15    15    16    2
    16    15    17    1
    17    17    18    1
    18    13    19   ar
    19     9    19   ar
    20     6    20   ar
    21    20    21   ar
    22    21    22    2
    23    21    23   ar
    24    23    24   ar
    25     5    24   ar
    26    24    25   ar
    27    25    26   ar
    28     3    26   ar
    29    26    27    1
    30     1    28    1
    31     1    29    1
    32     1    30    1
    33     2    31    1
    34     2    32    1
    35     4    33    1
    36     7    34    1
    37     7    35    1
    38     8    36    1
    39    10    37    1
    40    11    38    1
    41    12    39    1
    42    14    40    1
    43    17    41    1
    44    17    42    1
    45    18    43    1
    46    19    44    1
    47    20    45    1
    48    25    46    1
    49    27    47    1
