REMARK  10 active torsions:
REMARK  status: ('A' for Active; 'I' for Inactive)
REMARK    1  A    between atoms: C_2  and  C_4 
REMARK    2  A    between atoms: C_4  and  C_5 
REMARK    3  A    between atoms: C_5  and  N_6 
REMARK    4  A    between atoms: N_6  and  C_7 
REMARK    5  A    between atoms: C_7  and  N_9 
REMARK    6  A    between atoms: N_9  and  N_10 
REMARK       I    between atoms: N_10  and  C_11 
REMARK    7  A    between atoms: C_11  and  C_13 
REMARK    8  A    between atoms: C_13  and  N_14 
REMARK       I    between atoms: N_14  and  C_15 
REMARK    9  A    between atoms: C_15  and  C_17 
REMARK   10  A    between atoms: C_21  and  N_22 
ROOT
ATOM      1  N   UNL d   1       8.409   3.711   2.907  0.00  0.00    -0.267 N 
ATOM      2  C   UNL d   1       8.798   4.761   3.732  0.00  0.00     0.253 C 
ATOM      3  O   UNL d   1       7.981   5.489   4.301  0.00  0.00    -0.270 OA
ATOM      4  H   UNL d   1       9.065   3.095   2.429  0.00  0.00     0.190 HD
ENDROOT
BRANCH   2   5
ATOM      5  C   UNL d   1      10.331   4.972   3.896  0.00  0.00     0.227 C 
BRANCH   5   6
ATOM      6  N   UNL d   1      10.652   6.099   4.792  0.00  0.00    -0.348 N 
ATOM      7  C   UNL d   1      11.948   6.506   5.034  0.00  0.00     0.252 C 
ATOM      8  O   UNL d   1      12.925   5.956   4.519  0.00  0.00    -0.268 OA
ATOM      9  H   UNL d   1       9.863   6.615   5.167  0.00  0.00     0.163 HD
BRANCH   7  10
ATOM     10  C   UNL d   1      12.185   7.640   5.984  0.00  0.00     0.034 A 
ATOM     11  C   UNL d   1      13.290   8.488   5.772  0.00  0.00     0.017 A 
ATOM     12  C   UNL d   1      13.700   9.401   6.753  0.00  0.00     0.003 A 
ATOM     13  C   UNL d   1      12.977   9.523   7.938  0.00  0.00     0.036 A 
ATOM     14  C   UNL d   1      11.859   8.700   8.141  0.00  0.00     0.103 A 
ATOM     15  C   UNL d   1      11.454   7.763   7.170  0.00  0.00     0.053 A 
BRANCH  14  16
ATOM     16  N   UNL d   1      11.149   8.763   9.427  0.00  0.00    -0.116 N 
ATOM     17  O   UNL d   1      11.550   9.575  10.272  0.00  0.00    -0.532 OA
ATOM     18  O   UNL d   1      10.194   7.991   9.591  0.00  0.00    -0.532 OA
ENDBRANCH  14  16
ENDBRANCH   7  10
ENDBRANCH   5   6
ENDBRANCH   2   5
BRANCH   1  19
ATOM     19  N   UNL d   1       7.013   3.420   2.684  0.00  0.00    -0.274 N 
ATOM     20  H   UNL d   1       6.352   4.028   3.164  0.00  0.00     0.189 HD
BRANCH  19  21
ATOM     21  C   UNL d   1       6.632   2.358   1.864  0.00  0.00     0.186 C 
ATOM     22  S   UNL d   1       7.768   1.383   1.091  0.00  0.00    -0.040 SA
BRANCH  21  23
ATOM     23  N   UNL d   1       5.253   2.176   1.750  0.00  0.00    -0.366 N 
ATOM     24  H   UNL d   1       4.622   2.818   2.211  0.00  0.00     0.161 HD
BRANCH  23  25
ATOM     25  C   UNL d   1       4.649   1.131   0.906  0.00  0.00     0.122 C 
BRANCH  25  26
ATOM     26  C   UNL d   1       3.115   1.097   0.861  0.00  0.00     0.023 C 
BRANCH  26  27
ATOM     27  C   UNL d   1       2.580  -0.037  -0.052  0.00  0.00    -0.021 C 
ATOM     28  C   UNL d   1       1.049  -0.065  -0.038  0.00  0.00     0.009 C 
ATOM     29  C   UNL d   1       3.061   0.112  -1.499  0.00  0.00     0.009 C 
ENDBRANCH  26  27
ENDBRANCH  25  26
ENDBRANCH  23  25
ENDBRANCH  21  23
ENDBRANCH  19  21
ENDBRANCH   1  19
TORSDOF 10
