REMARK  8 active torsions:
REMARK  status: ('A' for Active; 'I' for Inactive)
REMARK    1  A    between atoms: C_2  and  O_4 
REMARK    2  A    between atoms: C_2  and  C_12 
REMARK    3  A    between atoms: O_4  and  C_5 
REMARK       I    between atoms: C_12  and  N_14 
REMARK    4  A    between atoms: N_14  and  N_15 
REMARK       I    between atoms: N_15  and  C_16 
REMARK       I    between atoms: C_16  and  N_18 
REMARK    5  A    between atoms: N_18  and  C_19 
REMARK    6  A    between atoms: C_19  and  C_20 
REMARK    7  A    between atoms: C_20  and  C_21 
REMARK    8  A    between atoms: C_21  and  N_22 
ROOT
ATOM      1  C   UNL d   1       3.047  -0.538   1.475  0.00  0.00     0.270 C 
ATOM      2  O   UNL d   1       2.300  -0.920   2.385  0.00  0.00    -0.268 OA
ATOM      3  N   UNL d   1       4.423  -0.624   1.647  0.00  0.00    -0.264 N 
ATOM      4  H   UNL d   1       5.100  -0.296   0.962  0.00  0.00     0.190 HD
ENDROOT
BRANCH   3   5
ATOM      5  N   UNL d   1       4.954  -1.155   2.878  0.00  0.00    -0.249 N 
ATOM      6  C   UNL d   1       6.323  -1.228   3.059  0.00  0.00     0.334 C 
ATOM      7  O   UNL d   1       7.126  -0.867   2.196  0.00  0.00    -0.246 OA
ATOM      8  N   UNL d   1       6.733  -1.738   4.280  0.00  0.00    -0.342 N 
ATOM      9  H   UNL d   1       6.032  -2.022   4.950  0.00  0.00     0.164 HD
ATOM     10  H   UNL d   1       4.261  -1.432   3.571  0.00  0.00     0.192 HD
BRANCH   8  11
ATOM     11  C   UNL d   1       8.158  -1.871   4.598  0.00  0.00     0.126 C 
BRANCH  11  12
ATOM     12  C   UNL d   1       8.440  -2.451   5.989  0.00  0.00     0.040 C 
BRANCH  12  13
ATOM     13  C   UNL d   1       9.940  -2.576   6.286  0.00  0.00     0.130 C 
BRANCH  13  14
ATOM     14  N   UNL d   1      10.157  -3.158   7.626  0.00  0.00    -0.352 N 
ATOM     15  C   UNL d   1      10.076  -4.510   7.947  0.00  0.00     0.108 A 
ATOM     16  C   UNL d   1      10.250  -4.610   9.298  0.00  0.00     0.106 A 
ATOM     17  N   UNL d   1      10.470  -3.332   9.752  0.00  0.00    -0.361 N 
ATOM     18  C   UNL d   1      10.437  -2.459   8.740  0.00  0.00     0.182 A 
ATOM     19  H   UNL d   1      10.635  -3.075  10.724  0.00  0.00     0.166 HD
ENDBRANCH  13  14
ENDBRANCH  12  13
ENDBRANCH  11  12
ENDBRANCH   8  11
ENDBRANCH   3   5
BRANCH   1  20
ATOM     20  C   UNL d   1       2.488   0.014   0.085  0.00  0.00     0.142 C 
ATOM     21  C   UNL d   1       0.954  -0.146   0.169  0.00  0.00     0.057 C 
ATOM     22  C   UNL d   1       2.999  -0.871  -1.060  0.00  0.00     0.057 C 
BRANCH  20  23
ATOM     23  O   UNL d   1       2.938   1.384  -0.121  0.00  0.00    -0.331 OA
BRANCH  23  24
ATOM     24  C   UNL d   1       2.529   2.114  -1.217  0.00  0.00     0.070 A 
ATOM     25  C   UNL d   1       1.212   2.193  -1.675  0.00  0.00     0.038 A 
ATOM     26  C   UNL d   1       0.851   2.938  -2.800  0.00  0.00     0.026 A 
ATOM     27  C   UNL d   1       1.796   3.729  -3.425  0.00  0.00     0.034 A 
ATOM     28 CL   UNL d   1       1.318   4.721  -4.744  0.00  0.00    -0.084 Cl
ATOM     29  C   UNL d   1       3.103   3.749  -2.942  0.00  0.00     0.026 A 
ATOM     30  C   UNL d   1       3.472   2.932  -1.851  0.00  0.00     0.038 A 
ENDBRANCH  23  24
ENDBRANCH  20  23
ENDBRANCH   1  20
TORSDOF 8
