@<TRIPOS>MOLECULE
*****
 41 41 0 0 0
SMALL
GASTEIGER

@<TRIPOS>ATOM
      1 C           1.0742   -0.0114   -0.0676 C.3     1  UNL1       -0.0627
      2 C           2.6082   -0.0243   -0.0908 C.3     1  UNL1       -0.0463
      3 C           3.0838   -1.2525   -0.8662 C.3     1  UNL1       -0.0627
      4 C           3.1502    1.2829   -0.7081 C.3     1  UNL1       -0.0424
      5 C           4.6897    1.3811   -0.7425 C.3     1  UNL1        0.0256
      6 C           5.1774    2.6882   -1.3747 C.2     1  UNL1        0.2291
      7 O           4.4109    3.5533   -1.7999 O.2     1  UNL1       -0.2743
      8 N           6.5560    2.8347   -1.4519 N.am    1  UNL1       -0.2342
      9 N           7.0946    4.0199   -2.0416 N.am    1  UNL1       -0.2309
     10 C           8.4674    4.1872   -2.1242 C.2     1  UNL1        0.2530
     11 O           9.2647    3.3440   -1.7118 O.2     1  UNL1       -0.2693
     12 C           8.9292    5.4764   -2.7542 C.2     1  UNL1        0.0022
     13 C          10.2433    5.7541   -2.9060 C.2     1  UNL1       -0.0494
     14 C          10.8171    6.9823   -3.5141 C.ar    1  UNL1       -0.0184
     15 C          10.3126    8.2537   -3.2277 C.ar    1  UNL1       -0.0528
     16 C          10.8987    9.4042   -3.7784 C.ar    1  UNL1       -0.0362
     17 C          12.0136    9.3259   -4.6248 C.ar    1  UNL1        0.1178
     18 CL         12.5819   10.8457   -5.2256 Cl      1  UNL1       -0.0765
     19 C          12.5549    8.0659   -4.9042 C.ar    1  UNL1        0.2918
     20 N          13.7466    7.8827   -5.7565 N.pl3   1  UNL1        0.0811
     21 O          14.1436    6.7216   -5.9316 O.2     1  UNL1        0.0415
     22 O          14.3007    8.8694   -6.2541 O.co2   1  UNL1       -0.5760
     23 C          11.9542    6.9030   -4.3437 C.ar    1  UNL1        0.0242
     24 H           0.6825   -0.9285    0.3877 H       1  UNL1        0.0232
     25 H           0.6639    0.0580   -1.0814 H       1  UNL1        0.0232
     26 H           0.6928    0.8363    0.5108 H       1  UNL1        0.0232
     27 H           2.9611   -0.1026    0.9455 H       1  UNL1        0.0296
     28 H           2.7518   -1.2045   -1.9090 H       1  UNL1        0.0232
     29 H           2.6900   -2.1733   -0.4243 H       1  UNL1        0.0232
     30 H           4.1737   -1.3341   -0.8582 H       1  UNL1        0.0232
     31 H           2.7495    2.1331   -0.1398 H       1  UNL1        0.0272
     32 H           2.7569    1.3855   -1.7280 H       1  UNL1        0.0272
     33 H           5.1040    0.5565   -1.3313 H       1  UNL1        0.0359
     34 H           5.0786    1.3017    0.2793 H       1  UNL1        0.0359
     35 H           7.2261    2.1395   -1.1259 H       1  UNL1        0.1728
     36 H           6.4056    4.6923   -2.3745 H       1  UNL1        0.1731
     37 H           8.1670    6.1657   -3.0953 H       1  UNL1        0.0670
     38 H          10.9856    5.0294   -2.5673 H       1  UNL1        0.0625
     39 H           9.4655    8.3790   -2.5567 H       1  UNL1        0.0624
     40 H          10.4773   10.3789   -3.5324 H       1  UNL1        0.0634
     41 H          12.3746    5.9200   -4.5605 H       1  UNL1        0.0692
@<TRIPOS>UNITY_ATOM_ATTR
20 1
charge 1
22 1
charge -1
@<TRIPOS>BOND
     1     1     2    1
     2     2     3    1
     3     2     4    1
     4     4     5    1
     5     5     6    1
     6     6     7    2
     7     6     8   am
     8     8     9    1
     9     9    10   am
    10    10    11    2
    11    10    12    1
    12    12    13    2
    13    13    14    1
    14    14    15   ar
    15    15    16   ar
    16    16    17   ar
    17    17    18    1
    18    17    19   ar
    19    19    20    1
    20    20    21    2
    21    20    22    1
    22    19    23   ar
    23    14    23   ar
    24     1    24    1
    25     1    25    1
    26     1    26    1
    27     2    27    1
    28     3    28    1
    29     3    29    1
    30     3    30    1
    31     4    31    1
    32     4    32    1
    33     5    33    1
    34     5    34    1
    35     8    35    1
    36     9    36    1
    37    12    37    1
    38    13    38    1
    39    15    39    1
    40    16    40    1
    41    23    41    1
