REMARK  8 active torsions:
REMARK  status: ('A' for Active; 'I' for Inactive)
REMARK    1  A    between atoms: O_2  and  C_3 
REMARK    2  A    between atoms: C_5  and  N_6 
REMARK    3  A    between atoms: N_6  and  C_7 
REMARK    4  A    between atoms: C_10  and  O_11 
REMARK    5  A    between atoms: C_12  and  O_13 
REMARK    6  A    between atoms: C_15  and  C_16 
REMARK       I    between atoms: C_16  and  N_18 
REMARK    7  A    between atoms: N_18  and  C_19 
REMARK    8  A    between atoms: C_27  and  O_28 
ROOT
ATOM      1  C   UNL d   1       7.544  -2.045   2.618  0.00  0.00     0.163 C 
ATOM      2  N   UNL d   1       8.260  -1.832   3.669  0.00  0.00    -0.258 NA
ATOM      3  C   UNL d   1       9.064  -3.022   4.064  0.00  0.00     0.157 C 
ATOM      4  C   UNL d   1       8.530  -3.571   5.429  0.00  0.00     0.172 C 
ATOM      5  C   UNL d   1       8.932  -5.016   5.682  0.00  0.00     0.149 C 
ATOM      6  C   UNL d   1       8.534  -5.913   4.501  0.00  0.00     0.049 C 
ATOM      7  C   UNL d   1       9.269  -5.548   3.212  0.00  0.00     0.096 C 
ATOM      8  C   UNL d   1       9.245  -4.024   2.898  0.00  0.00     0.096 C 
ATOM      9  S   UNL d   1       7.904  -3.543   1.762  0.00  0.00    -0.084 SA
ENDROOT
BRANCH   1  10
ATOM     10  N   UNL d   1       6.620  -1.152   2.111  0.00  0.00    -0.335 N 
ATOM     11  H   UNL d   1       6.787  -0.186   2.368  0.00  0.00     0.168 HD
BRANCH  10  12
ATOM     12  C   UNL d   1       5.241  -1.426   1.875  0.00  0.00     0.039 C 
ATOM     13  C   UNL d   1       4.376  -0.442   1.352  0.00  0.00     0.066 C 
ATOM     14  C   UNL d   1       3.117  -0.784   0.816  0.00  0.00     0.073 C 
ATOM     15  C   UNL d   1       2.695  -2.110   0.848  0.00  0.00     0.073 C 
ATOM     16  C   UNL d   1       3.500  -3.081   1.434  0.00  0.00     0.073 C 
ATOM     17  C   UNL d   1       4.733  -2.724   1.975  0.00  0.00     0.066 C 
BRANCH  14  18
ATOM     18  O   UNL d   1       2.440   0.216   0.165  0.00  0.00    -0.356 OA
ATOM     19  C   UNL d   1       1.021   0.094   0.060  0.00  0.00     0.210 C 
ENDBRANCH  14  18
BRANCH  16  20
ATOM     20  O   UNL d   1       3.229  -4.422   1.484  0.00  0.00    -0.356 OA
ATOM     21  C   UNL d   1       2.043  -4.841   0.822  0.00  0.00     0.210 C 
ENDBRANCH  16  20
ENDBRANCH  10  12
ENDBRANCH   1  10
BRANCH   4  22
ATOM     22  O   UNL d   1       7.124  -3.464   5.594  0.00  0.00    -0.391 OA
ATOM     23  H   UNL d   1       6.701  -3.900   4.840  0.00  0.00     0.210 HD
ENDBRANCH   4  22
BRANCH   7  24
ATOM     24  C   UNL d   1      10.713  -6.149   3.152  0.00  0.00     0.223 C 
ATOM     25  O   UNL d   1      11.065  -6.838   2.222  0.00  0.00    -0.273 OA
ATOM     26  N   UNL d   1      11.562  -5.775   4.178  0.00  0.00    -0.356 N 
ATOM     27  H   UNL d   1      11.174  -5.941   5.105  0.00  0.00     0.162 HD
BRANCH  26  28
ATOM     28  C   UNL d   1      12.982  -6.007   4.268  0.00  0.00     0.084 C 
ATOM     29  C   UNL d   1      13.682  -5.751   2.960  0.00  0.00     0.025 C 
ATOM     30  C   UNL d   1      15.126  -5.545   3.360  0.00  0.00     0.002 C 
ATOM     31  C   UNL d   1      15.096  -4.920   4.754  0.00  0.00     0.002 C 
ATOM     32  C   UNL d   1      13.643  -4.987   5.213  0.00  0.00     0.025 C 
ENDBRANCH  26  28
ENDBRANCH   7  24
BRANCH   5  33
ATOM     33  O   UNL d   1      10.328  -4.961   5.907  0.00  0.00    -0.393 OA
ATOM     34  H   UNL d   1      10.699  -4.399   5.184  0.00  0.00     0.210 HD
ENDBRANCH   5  33
TORSDOF 8
