@<TRIPOS>MOLECULE
*****
 46 47 0 0 0
SMALL
GASTEIGER

@<TRIPOS>ATOM
      1 C           0.9598   -0.0368   -0.0649 C.3     1  UNL1        0.0622
      2 O           2.3787   -0.0430   -0.0670 O.3     1  UNL1       -0.2819
      3 N           2.8666   -1.3709   -0.0903 N.am    1  UNL1       -0.1787
      4 C           4.2260   -1.4927   -0.1634 C.2     1  UNL1        0.3230
      5 O           5.0037   -0.5350   -0.2025 O.2     1  UNL1       -0.2507
      6 N           4.6594   -2.7943   -0.1689 N.am    1  UNL1       -0.2912
      7 C           6.0796   -3.1136   -0.1582 C.3     1  UNL1        0.0472
      8 C           6.7425   -2.5268    1.1201 C.3     1  UNL1       -0.0424
      9 C           6.3309   -4.6143   -0.2281 C.ar    1  UNL1       -0.0238
     10 C           5.4384   -5.5784   -0.7109 C.ar    1  UNL1       -0.0531
     11 C           5.7191   -6.9447   -0.5535 C.ar    1  UNL1       -0.0160
     12 C           6.9325   -7.3645    0.0103 C.ar    1  UNL1        0.1623
     13 O           7.1240   -8.7236   -0.0069 O.3     1  UNL1       -0.4852
     14 C           8.3801   -9.2756    0.3903 C.3     1  UNL1        0.1004
     15 C           9.6280   -8.7559   -0.3460 C.3     1  UNL1       -0.0158
     16 C          10.7608   -8.9612    0.6557 C.3     1  UNL1       -0.0496
     17 C          10.1383   -9.1293    2.0559 C.3     1  UNL1       -0.0496
     18 C           8.6217   -9.1763    1.9011 C.3     1  UNL1       -0.0158
     19 C           7.8258   -6.3905    0.4767 C.ar    1  UNL1        0.1618
     20 O           8.9444   -6.7291    1.1631 O.3     1  UNL1       -0.4914
     21 C           9.9246   -5.7979    1.5778 C.3     1  UNL1        0.0790
     22 C           7.5487   -5.0626    0.2747 C.ar    1  UNL1       -0.0114
     23 H           0.6224    1.0035   -0.0363 H       1  UNL1        0.0547
     24 H           0.5754   -0.5507    0.8211 H       1  UNL1        0.0547
     25 H           0.5741   -0.5025   -0.9763 H       1  UNL1        0.0547
     26 H           2.2174   -2.1415   -0.1265 H       1  UNL1        0.1840
     27 H           3.9890   -3.5381   -0.0662 H       1  UNL1        0.1509
     28 H           6.5368   -2.6561   -1.0444 H       1  UNL1        0.0546
     29 H           6.3504   -3.0208    2.0183 H       1  UNL1        0.0251
     30 H           6.5899   -1.4549    1.2294 H       1  UNL1        0.0251
     31 H           7.8319   -2.6356    1.1317 H       1  UNL1        0.0251
     32 H           4.5195   -5.2932   -1.2146 H       1  UNL1        0.0622
     33 H           4.9802   -7.6841   -0.8610 H       1  UNL1        0.0655
     34 H           8.3279  -10.3477    0.1602 H       1  UNL1        0.0733
     35 H           9.5818   -7.7133   -0.6756 H       1  UNL1        0.0301
     36 H           9.8010   -9.2723   -1.2953 H       1  UNL1        0.0301
     37 H          11.4665   -8.1209    0.6246 H       1  UNL1        0.0266
     38 H          11.3272   -9.8572    0.3927 H       1  UNL1        0.0266
     39 H          10.4261   -8.3133    2.7293 H       1  UNL1        0.0266
     40 H          10.5043  -10.0418    2.5298 H       1  UNL1        0.0266
     41 H           8.1360   -8.3099    2.3670 H       1  UNL1        0.0301
     42 H           8.1669  -10.0047    2.4498 H       1  UNL1        0.0301
     43 H          10.7636   -6.3605    1.9954 H       1  UNL1        0.0660
     44 H           9.5300   -5.1694    2.3767 H       1  UNL1        0.0660
     45 H          10.3214   -5.2372    0.7294 H       1  UNL1        0.0660
     46 H           8.3097   -4.3593    0.5682 H       1  UNL1        0.0659
@<TRIPOS>BOND
     1     1     2    1
     2     2     3    1
     3     3     4   am
     4     4     5    2
     5     4     6   am
     6     6     7    1
     7     7     8    1
     8     7     9    1
     9     9    10   ar
    10    10    11   ar
    11    11    12   ar
    12    12    13    1
    13    13    14    1
    14    14    15    1
    15    15    16    1
    16    16    17    1
    17    17    18    1
    18    14    18    1
    19    12    19   ar
    20    19    20    1
    21    20    21    1
    22    19    22   ar
    23     9    22   ar
    24     1    23    1
    25     1    24    1
    26     1    25    1
    27     3    26    1
    28     6    27    1
    29     7    28    1
    30     8    29    1
    31     8    30    1
    32     8    31    1
    33    10    32    1
    34    11    33    1
    35    14    34    1
    36    15    35    1
    37    15    36    1
    38    16    37    1
    39    16    38    1
    40    17    39    1
    41    17    40    1
    42    18    41    1
    43    18    42    1
    44    21    43    1
    45    21    44    1
    46    21    45    1
    47    22    46    1
