REMARK  11 active torsions:
REMARK  status: ('A' for Active; 'I' for Inactive)
REMARK    1  A    between atoms: C_2  and  C_3 
REMARK    2  A    between atoms: C_3  and  C_4 
REMARK    3  A    between atoms: C_4  and  O_5 
REMARK    4  A    between atoms: O_5  and  C_6 
REMARK    5  A    between atoms: C_11  and  C_12 
REMARK       I    between atoms: C_12  and  N_14 
REMARK    6  A    between atoms: N_14  and  C_15 
REMARK    7  A    between atoms: C_15  and  N_17 
REMARK    8  A    between atoms: N_17  and  N_18 
REMARK       I    between atoms: N_18  and  C_19 
REMARK    9  A    between atoms: C_19  and  C_21 
REMARK   10  A    between atoms: C_24  and  N_25 
REMARK       I    between atoms: N_25  and  C_26 
REMARK   11  A    between atoms: C_26  and  C_28 
ROOT
ATOM      1  N   UNL d   1       3.297   2.633   0.341  0.00  0.00    -0.273 N 
ATOM      2  H   UNL d   1       2.655   1.973   0.774  0.00  0.00     0.189 HD
ENDROOT
BRANCH   1   3
ATOM      3  C   UNL d   1       4.698   2.670   0.522  0.00  0.00     0.193 C 
ATOM      4  S   UNL d   1       5.618   3.720  -0.425  0.00  0.00    -0.039 SA
BRANCH   3   5
ATOM      5  N   UNL d   1       5.234   1.795   1.506  0.00  0.00    -0.298 N 
ATOM      6  C   UNL d   1       6.605   1.426   1.645  0.00  0.00     0.260 C 
ATOM      7  O   UNL d   1       7.526   2.125   1.223  0.00  0.00    -0.267 OA
ATOM      8  H   UNL d   1       4.587   1.234   2.045  0.00  0.00     0.171 HD
BRANCH   6   9
ATOM      9  C   UNL d   1       7.048   0.160   2.350  0.00  0.00     0.065 A 
ATOM     10  C   UNL d   1       8.426   0.090   2.704  0.00  0.00     0.020 A 
ATOM     11  C   UNL d   1       8.976  -0.987   3.415  0.00  0.00     0.001 A 
ATOM     12  C   UNL d   1       8.156  -2.034   3.796  0.00  0.00     0.003 A 
ATOM     13  C   UNL d   1       6.820  -2.037   3.381  0.00  0.00     0.038 A 
ATOM     14  C   UNL d   1       6.265  -0.957   2.649  0.00  0.00     0.084 A 
BRANCH  14  15
ATOM     15  O   UNL d   1       4.926  -1.051   2.411  0.00  0.00    -0.350 OA
BRANCH  15  16
ATOM     16  C   UNL d   1       4.508  -0.959   1.047  0.00  0.00     0.175 C 
BRANCH  16  17
ATOM     17  C   UNL d   1       3.006  -0.713   1.124  0.00  0.00     0.026 C 
BRANCH  17  18
ATOM     18  C   UNL d   1       2.432  -0.352  -0.234  0.00  0.00    -0.002 C 
ATOM     19  C   UNL d   1       0.931  -0.174  -0.129  0.00  0.00     0.005 C 
ENDBRANCH  17  18
ENDBRANCH  16  17
ENDBRANCH  15  16
ENDBRANCH  14  15
ENDBRANCH   6   9
ENDBRANCH   3   5
ENDBRANCH   1   3
BRANCH   1  20
ATOM     20  N   UNL d   1       2.708   3.374  -0.783  0.00  0.00    -0.264 N 
ATOM     21  C   UNL d   1       1.345   3.343  -1.055  0.00  0.00     0.270 C 
ATOM     22  O   UNL d   1       0.561   2.521  -0.595  0.00  0.00    -0.266 OA
ATOM     23  H   UNL d   1       3.294   4.133  -1.125  0.00  0.00     0.190 HD
BRANCH  21  24
ATOM     24  C   UNL d   1       0.771   4.424  -1.907  0.00  0.00     0.033 A 
ATOM     25  C   UNL d   1      -0.482   4.966  -1.565  0.00  0.00     0.019 A 
ATOM     26  C   UNL d   1      -1.084   5.976  -2.348  0.00  0.00     0.030 A 
ATOM     27  C   UNL d   1      -0.405   6.502  -3.454  0.00  0.00     0.034 A 
ATOM     28  C   UNL d   1       0.802   5.892  -3.819  0.00  0.00     0.030 A 
ATOM     29  C   UNL d   1       1.394   4.870  -3.063  0.00  0.00     0.019 A 
BRANCH  27  30
ATOM     30  N   UNL d   1      -0.917   7.638  -4.152  0.00  0.00    -0.327 N 
ATOM     31  C   UNL d   1      -0.268   8.303  -5.186  0.00  0.00     0.226 C 
ATOM     32  O   UNL d   1       0.823   8.011  -5.684  0.00  0.00    -0.273 OA
ATOM     33  H   UNL d   1      -1.789   8.035  -3.817  0.00  0.00     0.169 HD
BRANCH  31  34
ATOM     34  C   UNL d   1      -0.991   9.464  -5.777  0.00  0.00     0.078 A 
ATOM     35  C   UNL d   1      -0.953  10.826  -5.124  0.00  0.00     0.015 A 
ATOM     36  C   UNL d   1      -0.221  10.618  -6.414  0.00  0.00     0.015 A 
ENDBRANCH  31  34
ENDBRANCH  27  30
ENDBRANCH  21  24
ENDBRANCH   1  20
TORSDOF 11
