REMARK  5 active torsions:
REMARK  status: ('A' for Active; 'I' for Inactive)
REMARK    1  A    between atoms: O_1  and  C_2 
REMARK    2  A    between atoms: C_4  and  N_5 
REMARK    3  A    between atoms: N_5  and  C_6 
REMARK    4  A    between atoms: C_13  and  N_14 
REMARK    5  A    between atoms: N_14  and  C_15 
ROOT
ATOM      1  C   UNL d   1      -0.808   0.029  -0.529  0.00  0.00     0.142 C 
ATOM      2  C   UNL d   1       0.139  -1.144  -0.608  0.00  0.00     0.059 C 
ATOM      3  C   UNL d   1       1.278  -0.801   0.364  0.00  0.00     0.086 C 
ATOM      4  C   UNL d   1       1.250   0.746   0.470  0.00  0.00     0.052 C 
ATOM      5  C   UNL d   1       0.152   1.216  -0.509  0.00  0.00     0.112 C 
ENDROOT
BRANCH   3   6
ATOM      6  N   UNL d   1       1.154  -1.443   1.677  0.00  0.00    -0.385 N 
ATOM      7  H   UNL d   1       0.817  -0.856   2.438  0.00  0.00     0.160 HD
BRANCH   6   8
ATOM      8  C   UNL d   1       0.955  -2.809   1.858  0.00  0.00     0.028 C 
ATOM      9  C   UNL d   1       1.030  -3.742   0.812  0.00  0.00     0.029 C 
ATOM     10  C   UNL d   1       0.733  -5.094   1.011  0.00  0.00     0.002 C 
ATOM     11  C   UNL d   1       0.494  -5.568   2.288  0.00  0.00     0.000 C 
ATOM     12  C   UNL d   1       0.519  -4.683   3.365  0.00  0.00     0.002 C 
ATOM     13  C   UNL d   1       0.736  -3.315   3.143  0.00  0.00     0.029 C 
ENDBRANCH   6   8
ENDBRANCH   3   6
BRANCH   1  14
ATOM     14  O   UNL d   1      -1.582  -0.062   0.669  0.00  0.00    -0.393 OA
ATOM     15  H   UNL d   1      -2.094  -0.888   0.624  0.00  0.00     0.210 HD
ENDBRANCH   1  14
BRANCH   5  16
ATOM     16  N   UNL d   1      -0.392   2.526  -0.139  0.00  0.00    -0.383 N 
ATOM     17  H   UNL d   1      -0.437   2.703   0.862  0.00  0.00     0.160 HD
BRANCH  16  18
ATOM     18  C   UNL d   1      -1.486   3.068  -0.819  0.00  0.00     0.028 A 
ATOM     19  C   UNL d   1      -1.420   4.422  -1.163  0.00  0.00     0.029 A 
ATOM     20  C   UNL d   1      -2.492   5.069  -1.787  0.00  0.00     0.002 A 
ATOM     21  C   UNL d   1      -3.653   4.370  -2.092  0.00  0.00     0.000 A 
ATOM     22  C   UNL d   1      -3.764   3.038  -1.716  0.00  0.00     0.002 A 
ATOM     23  C   UNL d   1      -2.703   2.416  -1.047  0.00  0.00     0.029 A 
ENDBRANCH  16  18
ENDBRANCH   5  16
TORSDOF 5
