@<TRIPOS>MOLECULE
*****
 63 66 0 0 0
SMALL
GASTEIGER

@<TRIPOS>ATOM
      1 O           0.9647   -0.3632   -0.1506 O.2     1  UNL1       -0.2525
      2 C           2.1733   -0.1218   -0.1544 C.2     1  UNL1        0.3041
      3 N           2.8016    0.9300   -0.7718 N.am    1  UNL1       -0.2678
      4 C           2.1439    2.0560   -1.3330 C.ar    1  UNL1        0.0576
      5 C           2.6414    2.5798   -2.5560 C.ar    1  UNL1       -0.0174
      6 C           2.0511    3.7129   -3.1445 C.ar    1  UNL1        0.0355
      7 N           2.6296    4.3454   -4.2757 N.am    1  UNL1       -0.2814
      8 C           2.1929    5.5428   -4.8381 C.2     1  UNL1        0.2497
      9 O           1.2596    6.2529   -4.4556 O.2     1  UNL1       -0.2698
     10 C           2.9223    6.0632   -6.0111 C.ar    1  UNL1        0.0553
     11 C           3.1337    7.4574   -6.0835 C.ar    1  UNL1       -0.0482
     12 C           3.6807    8.0308   -7.2318 C.ar    1  UNL1       -0.0610
     13 C           4.0689    7.2128   -8.2887 C.ar    1  UNL1       -0.0603
     14 C           3.8539    5.8346   -8.2238 C.ar    1  UNL1       -0.0427
     15 C           3.2689    5.2562   -7.0955 C.ar    1  UNL1        0.0531
     16 CL          2.9740    3.5551   -7.1491 Cl      1  UNL1       -0.0828
     17 C           0.9026    4.2256   -2.5614 C.ar    1  UNL1       -0.0386
     18 C           0.4417    3.7468   -1.3457 C.ar    1  UNL1       -0.0371
     19 C           1.0561    2.6786   -0.6877 C.ar    1  UNL1        0.0514
     20 N           0.5773    2.3594    0.5628 N.pl3   1  UNL1       -0.3285
     21 C          -0.7989    1.9034    0.6970 C.3     1  UNL1        0.0122
     22 C          -1.4911    2.8163    1.7016 C.3     1  UNL1       -0.0372
     23 C          -0.7094    2.8683    3.0201 C.3     1  UNL1       -0.0502
     24 C           0.7751    3.1941    2.8001 C.3     1  UNL1       -0.0372
     25 C           1.4005    2.2698    1.7534 C.3     1  UNL1        0.0122
     26 N           2.9676   -1.0088    0.5109 N.am    1  UNL1       -0.2963
     27 C           4.4136   -1.0566    0.6186 C.3     1  UNL1        0.0246
     28 C           4.9440    0.1854    1.3425 C.3     1  UNL1       -0.0345
     29 C           6.4580    0.1599    1.4497 C.3     1  UNL1       -0.0514
     30 C           6.9278   -1.0914    2.1744 C.3     1  UNL1       -0.0529
     31 C           6.4103   -2.3501    1.4827 C.3     1  UNL1       -0.0514
     32 C           4.8860   -2.3298    1.3456 C.3     1  UNL1       -0.0345
     33 H           3.7689    0.8095   -1.0171 H       1  UNL1        0.1564
     34 H           3.4536    2.0637   -3.0625 H       1  UNL1        0.0655
     35 H           3.4520    3.9088   -4.6767 H       1  UNL1        0.1551
     36 H           2.8502    8.1038   -5.2514 H       1  UNL1        0.0625
     37 H           3.7877    9.1112   -7.3108 H       1  UNL1        0.0618
     38 H           4.5306    7.6466   -9.1721 H       1  UNL1        0.0618
     39 H           4.1223    5.2112   -9.0721 H       1  UNL1        0.0632
     40 H           0.3319    5.0292   -3.0061 H       1  UNL1        0.0637
     41 H          -0.3870    4.2732   -0.8815 H       1  UNL1        0.0637
     42 H          -0.8093    0.8751    1.0768 H       1  UNL1        0.0464
     43 H          -1.3376    1.8931   -0.2581 H       1  UNL1        0.0464
     44 H          -2.5119    2.4632    1.8796 H       1  UNL1        0.0280
     45 H          -1.5606    3.8284    1.2851 H       1  UNL1        0.0280
     46 H          -0.7934    1.8986    3.5262 H       1  UNL1        0.0266
     47 H          -1.1572    3.6186    3.6798 H       1  UNL1        0.0266
     48 H           1.3216    3.1111    3.7453 H       1  UNL1        0.0280
     49 H           0.8636    4.2331    2.4585 H       1  UNL1        0.0280
     50 H           1.3996    1.2411    2.1335 H       1  UNL1        0.0464
     51 H           2.4415    2.5599    1.5738 H       1  UNL1        0.0464
     52 H           2.4177   -1.7378    0.9510 H       1  UNL1        0.1505
     53 H           4.7944   -1.0861   -0.4101 H       1  UNL1        0.0499
     54 H           4.4900    0.2496    2.3395 H       1  UNL1        0.0283
     55 H           4.6668    1.1072    0.8276 H       1  UNL1        0.0283
     56 H           6.7963    1.0564    1.9783 H       1  UNL1        0.0266
     57 H           6.8935    0.1917    0.4429 H       1  UNL1        0.0266
     58 H           6.5691   -1.0675    3.2109 H       1  UNL1        0.0265
     59 H           8.0219   -1.1037    2.2090 H       1  UNL1        0.0265
     60 H           6.7271   -3.2350    2.0452 H       1  UNL1        0.0266
     61 H           6.8602   -2.4250    0.4848 H       1  UNL1        0.0266
     62 H           4.4316   -2.3851    2.3443 H       1  UNL1        0.0283
     63 H           4.5555   -3.2277    0.8083 H       1  UNL1        0.0283
@<TRIPOS>BOND
     1     1     2    2
     2     2     3   am
     3     3     4    1
     4     4     5   ar
     5     5     6   ar
     6     6     7    1
     7     7     8   am
     8     8     9    2
     9     8    10    1
    10    10    11   ar
    11    11    12   ar
    12    12    13   ar
    13    13    14   ar
    14    14    15   ar
    15    10    15   ar
    16    15    16    1
    17     6    17   ar
    18    17    18   ar
    19    18    19   ar
    20     4    19   ar
    21    19    20    1
    22    20    21    1
    23    21    22    1
    24    22    23    1
    25    23    24    1
    26    24    25    1
    27    20    25    1
    28     2    26   am
    29    26    27    1
    30    27    28    1
    31    28    29    1
    32    29    30    1
    33    30    31    1
    34    31    32    1
    35    27    32    1
    36     3    33    1
    37     5    34    1
    38     7    35    1
    39    11    36    1
    40    12    37    1
    41    13    38    1
    42    14    39    1
    43    17    40    1
    44    18    41    1
    45    21    42    1
    46    21    43    1
    47    22    44    1
    48    22    45    1
    49    23    46    1
    50    23    47    1
    51    24    48    1
    52    24    49    1
    53    25    50    1
    54    25    51    1
    55    26    52    1
    56    27    53    1
    57    28    54    1
    58    28    55    1
    59    29    56    1
    60    29    57    1
    61    30    58    1
    62    30    59    1
    63    31    60    1
    64    31    61    1
    65    32    62    1
    66    32    63    1
