@<TRIPOS>MOLECULE
*****
 41 42 0 0 0
SMALL
GASTEIGER

@<TRIPOS>ATOM
      1 C           1.0696   -0.0119    0.0569 C.3     1  UNL1       -0.0189
      2 C           2.6055   -0.0655    0.1089 C.3     1  UNL1        0.1761
      3 O           3.0546   -0.9221    1.1820 O.3     1  UNL1       -0.4487
      4 C           2.6276   -0.5737    2.4316 C.2     1  UNL1        0.3399
      5 O           1.9877    0.4122    2.7391 O.2     1  UNL1       -0.2449
      6 C           3.1260   -1.4974    3.4699 C.ar    1  UNL1        0.0591
      7 C           2.3920   -1.7422    4.6420 C.ar    1  UNL1       -0.0460
      8 C           3.0167   -2.3260    5.7664 C.ar    1  UNL1       -0.0397
      9 C           4.3721   -2.6870    5.7110 C.ar    1  UNL1        0.0348
     10 N           4.9783   -3.3602    6.7972 N.am    1  UNL1       -0.2696
     11 C           6.2147   -3.9132    6.9653 C.2     1  UNL1        0.3013
     12 N           7.1650   -3.7755    6.0154 N.am    1  UNL1       -0.3131
     13 O           6.4944   -4.5207    7.9970 O.2     1  UNL1       -0.2527
     14 C           5.0685   -2.3625    4.5496 C.ar    1  UNL1       -0.0397
     15 C           4.4583   -1.8515    3.4146 C.ar    1  UNL1       -0.0460
     16 C           3.0704   -0.6252   -1.2628 C.2     1  UNL1        0.2578
     17 O           2.2537   -1.0913   -2.0606 O.2     1  UNL1       -0.2714
     18 N           4.4370   -0.6035   -1.5264 N.am    1  UNL1       -0.2812
     19 C           4.9431   -1.0429   -2.7886 C.ar    1  UNL1        0.0520
     20 C           6.0111   -1.9561   -2.8099 C.ar    1  UNL1       -0.0390
     21 C           6.5496   -2.4004   -4.0289 C.ar    1  UNL1       -0.0599
     22 C           6.0064   -1.9697   -5.2372 C.ar    1  UNL1       -0.0603
     23 C           4.9589   -1.0535   -5.2316 C.ar    1  UNL1       -0.0416
     24 C           4.4389   -0.5767   -4.0223 C.ar    1  UNL1        0.0621
     25 CL          3.2928    0.7191   -4.1525 Cl      1  UNL1       -0.0816
     26 H           0.6119    0.3689    0.9703 H       1  UNL1        0.0270
     27 H           0.6641   -1.0204   -0.0870 H       1  UNL1        0.0270
     28 H           0.7251    0.6251   -0.7634 H       1  UNL1        0.0270
     29 H           3.0289    0.9399    0.2383 H       1  UNL1        0.0830
     30 H           1.3454   -1.4443    4.6938 H       1  UNL1        0.0626
     31 H           2.4365   -2.4305    6.6838 H       1  UNL1        0.0636
     32 H           4.3931   -3.5463    7.6062 H       1  UNL1        0.1564
     33 H           6.9188   -3.8246    5.0437 H       1  UNL1        0.1465
     34 H           8.0286   -4.2668    6.2044 H       1  UNL1        0.1465
     35 H           6.1409   -2.3738    4.4921 H       1  UNL1        0.0636
     36 H           5.0755   -1.6364    2.5496 H       1  UNL1        0.0626
     37 H           5.0705   -0.5895   -0.7376 H       1  UNL1        0.1550
     38 H           6.4030   -2.3864   -1.8915 H       1  UNL1        0.0636
     39 H           7.3904   -3.0922   -4.0426 H       1  UNL1        0.0618
     40 H           6.3990   -2.3353   -6.1836 H       1  UNL1        0.0618
     41 H           4.5633   -0.6848   -6.1749 H       1  UNL1        0.0633
@<TRIPOS>BOND
     1     1     2    1
     2     2     3    1
     3     3     4    1
     4     4     5    2
     5     4     6    1
     6     6     7   ar
     7     7     8   ar
     8     8     9   ar
     9     9    10    1
    10    10    11   am
    11    11    12   am
    12    11    13    2
    13     9    14   ar
    14    14    15   ar
    15     6    15   ar
    16     2    16    1
    17    16    17    2
    18    16    18   am
    19    18    19    1
    20    19    20   ar
    21    20    21   ar
    22    21    22   ar
    23    22    23   ar
    24    23    24   ar
    25    19    24   ar
    26    24    25    1
    27     1    26    1
    28     1    27    1
    29     1    28    1
    30     2    29    1
    31     7    30    1
    32     8    31    1
    33    10    32    1
    34    12    33    1
    35    12    34    1
    36    14    35    1
    37    15    36    1
    38    18    37    1
    39    20    38    1
    40    21    39    1
    41    22    40    1
    42    23    41    1
