REMARK  7 active torsions:
REMARK  status: ('A' for Active; 'I' for Inactive)
REMARK    1  A    between atoms: CA_3  and  C_2 
REMARK    2  A    between atoms: CA_3  and  N_6 
REMARK    3  A    between atoms: CA_3  and  C_4 
REMARK    4  A    between atoms: C_4  and  O_5 
REMARK       I    between atoms: N_6  and  C_7 
REMARK       I    between atoms: C_7  and  N_9 
REMARK    5  A    between atoms: N_9  and  C_10 
REMARK    6  A    between atoms: C_10  and  C_11 
REMARK    7  A    between atoms: C_14  and  N_15 
ROOT
ATOM      1  C   UNL d   1       8.940   0.410   3.643  0.00  0.00    -0.040 A 
ATOM      2  C   UNL d   1       9.648  -0.794   3.559  0.00  0.00     0.011 A 
ATOM      3  C   UNL d   1      11.052  -0.800   3.459  0.00  0.00     0.030 A 
ATOM      4  C   UNL d   1      11.794   0.385   3.377  0.00  0.00     0.030 A 
ATOM      5  C   UNL d   1      11.079   1.584   3.480  0.00  0.00     0.030 A 
ATOM      6  C   UNL d   1       9.677   1.601   3.599  0.00  0.00     0.011 A 
ENDROOT
BRANCH   1   7
ATOM      7  C   UNL d   1       7.442   0.435   3.857  0.00  0.00     0.162 C 
BRANCH   7   8
ATOM      8  N   UNL d   1       6.653   0.265   2.649  0.00  0.00    -0.339 N 
ATOM      9  C   UNL d   1       5.282   0.315   2.727  0.00  0.00     0.316 C 
ATOM     10  N   UNL d   1       4.636   0.025   1.544  0.00  0.00    -0.336 N 
ATOM     11  O   UNL d   1       4.694   0.555   3.772  0.00  0.00    -0.247 OA
ATOM     12  H   UNL d   1       5.167  -0.053   0.690  0.00  0.00     0.164 HD
ATOM     13  H   UNL d   1       7.120   0.146   1.766  0.00  0.00     0.164 HD
BRANCH  10  14
ATOM     14  CA  UNL d   1       3.159   0.013   1.452  0.00  0.00     0.109 C 
BRANCH  14  15
ATOM     15  C   UNL d   1       2.658  -0.021  -0.017  0.00  0.00     0.189 C 
BRANCH  15  16
ATOM     16  O   UNL d   1       2.848  -1.269  -0.674  0.00  0.00    -0.399 OA
ATOM     17  H   UNL d   1       2.077  -1.827  -0.473  0.00  0.00     0.209 HD
ENDBRANCH  15  16
ENDBRANCH  14  15
BRANCH  14  18
ATOM     18  C   UNL d   1       2.539  -1.050   2.401  0.00  0.00     0.023 C 
ATOM     19  C   UNL d   1       2.150  -2.403   1.832  0.00  0.00     0.007 C 
ENDBRANCH  14  18
ENDBRANCH  10  14
ENDBRANCH   7   8
ENDBRANCH   1   7
BRANCH   4  20
ATOM     20  N   UNL d   1      13.152   0.376   3.136  0.00  0.00    -0.370 N 
ATOM     21  C   UNL d   1      13.712  -0.321   1.979  0.00  0.00     0.143 C 
ATOM     22  C   UNL d   1      14.528   0.705   1.179  0.00  0.00     0.142 C 
ATOM     23  N   UNL d   1      15.559   1.314   2.000  0.00  0.00    -0.358 N 
ATOM     24  C   UNL d   1      15.372   1.585   3.336  0.00  0.00     0.235 C 
ATOM     25  H   UNL d   1      16.367   1.751   1.575  0.00  0.00     0.162 HD
ATOM     26  O   UNL d   1      16.231   2.225   3.942  0.00  0.00    -0.272 OA
ATOM     27  C   UNL d   1      14.130   0.993   4.050  0.00  0.00     0.225 C 
ENDBRANCH   4  20
TORSDOF 7
