@<TRIPOS>MOLECULE
*****
 40 42 0 0 0
SMALL
GASTEIGER

@<TRIPOS>ATOM
      1 O           1.0771    0.1209    0.0288 O.2     1  UNL1       -0.2686
      2 C           2.3091    0.0486    0.0038 C.2     1  UNL1        0.2632
      3 N           3.0412   -0.2066    1.1498 N.am    1  UNL1       -0.2303
      4 N           2.3577   -0.3532    2.3910 N.am    1  UNL1       -0.2334
      5 C           3.1102   -0.4501    3.5457 C.2     1  UNL1        0.2396
      6 O           4.3429   -0.4395    3.4468 O.2     1  UNL1       -0.2733
      7 C           2.3580   -0.6367    4.9208 C.3     1  UNL1        0.0732
      8 C           3.3632   -0.4455    6.0860 C.ar    1  UNL1       -0.0323
      9 C           4.4739   -1.3070    6.2022 C.ar    1  UNL1       -0.0562
     10 C           5.4405   -1.1179    7.1936 C.ar    1  UNL1       -0.0431
     11 C           5.3003   -0.0776    8.1041 C.ar    1  UNL1        0.0410
     12 CL          6.4720    0.1505    9.3406 Cl      1  UNL1       -0.0835
     13 C           4.2152    0.7845    8.0182 C.ar    1  UNL1       -0.0431
     14 C           3.2615    0.6048    7.0149 C.ar    1  UNL1       -0.0562
     15 C           1.1051    0.2709    5.0424 C.3     1  UNL1       -0.0349
     16 C           0.2363   -0.3752    6.1251 C.3     1  UNL1       -0.0518
     17 C           0.5182   -1.8697    6.0256 C.3     1  UNL1       -0.0518
     18 C           1.6723   -2.0257    5.0245 C.3     1  UNL1       -0.0349
     19 C           3.0647    0.2619   -1.2218 C.ar    1  UNL1        0.0757
     20 C           2.7797    1.1868   -2.2754 C.ar    1  UNL1       -0.0117
     21 C           3.7350    0.9983   -3.2463 C.ar    1  UNL1        0.0924
     22 O           4.5787    0.0003   -2.8820 O.2     1  UNL1       -0.4703
     23 C           4.1689   -0.4439   -1.6623 C.ar    1  UNL1        0.1038
     24 H           4.0573   -0.1264    1.2013 H       1  UNL1        0.1731
     25 H           1.3421   -0.3217    2.3495 H       1  UNL1        0.1728
     26 H           4.6283   -2.1090    5.4808 H       1  UNL1        0.0621
     27 H           6.3054   -1.7739    7.2325 H       1  UNL1        0.0632
     28 H           4.1036    1.6098    8.7157 H       1  UNL1        0.0632
     29 H           2.4463    1.3205    6.9898 H       1  UNL1        0.0621
     30 H           0.5217    0.2819    4.1167 H       1  UNL1        0.0278
     31 H           1.3301    1.3194    5.2565 H       1  UNL1        0.0278
     32 H          -0.8246   -0.1476    5.9808 H       1  UNL1        0.0266
     33 H           0.4996   -0.0134    7.1262 H       1  UNL1        0.0266
     34 H          -0.3692   -2.4165    5.6879 H       1  UNL1        0.0266
     35 H           0.7870   -2.2746    7.0092 H       1  UNL1        0.0266
     36 H           1.2533   -2.3244    4.0558 H       1  UNL1        0.0278
     37 H           2.3401   -2.8360    5.3361 H       1  UNL1        0.0278
     38 H           1.9744    1.9078   -2.3141 H       1  UNL1        0.0656
     39 H           3.9346    1.4597   -4.2055 H       1  UNL1        0.1029
     40 H           4.7374   -1.2760   -1.2712 H       1  UNL1        0.1037
@<TRIPOS>BOND
     1     1     2    2
     2     2     3   am
     3     3     4    1
     4     4     5   am
     5     5     6    2
     6     5     7    1
     7     7     8    1
     8     8     9   ar
     9     9    10   ar
    10    10    11   ar
    11    11    12    1
    12    11    13   ar
    13    13    14   ar
    14     8    14   ar
    15     7    15    1
    16    15    16    1
    17    16    17    1
    18    17    18    1
    19     7    18    1
    20     2    19    1
    21    19    20   ar
    22    20    21   ar
    23    21    22   ar
    24    22    23   ar
    25    19    23   ar
    26     3    24    1
    27     4    25    1
    28     9    26    1
    29    10    27    1
    30    13    28    1
    31    14    29    1
    32    15    30    1
    33    15    31    1
    34    16    32    1
    35    16    33    1
    36    17    34    1
    37    17    35    1
    38    18    36    1
    39    18    37    1
    40    20    38    1
    41    21    39    1
    42    23    40    1
