@<TRIPOS>MOLECULE
*****
 54 57 0 0 0
SMALL
GASTEIGER

@<TRIPOS>ATOM
      1 C           0.9687   -0.0236    0.0114 C.3     1  UNL1        0.0788
      2 O           2.3923   -0.0850   -0.1348 O.3     1  UNL1       -0.4950
      3 C           2.9958    1.1224   -0.3620 C.ar    1  UNL1        0.1237
      4 C           4.1613    1.1664   -1.1274 C.ar    1  UNL1       -0.0180
      5 C           4.8679    2.3832   -1.3013 C.ar    1  UNL1       -0.0334
      6 C           4.3864    3.5808   -0.7336 C.ar    1  UNL1        0.0758
      7 N           5.0327    4.8419   -1.0203 N.am    1  UNL1       -0.2819
      8 C           4.5032    6.1083   -0.6905 C.2     1  UNL1        0.2276
      9 O           3.4100    6.3456   -0.1881 O.2     1  UNL1       -0.2746
     10 C           5.3236    7.3175   -1.0793 C.3     1  UNL1        0.0779
     11 S           4.6146    8.8279   -0.2956 S.3     1  UNL1       -0.0783
     12 C           5.3645   10.3252   -0.8218 C.ar    1  UNL1        0.1724
     13 N           4.6875   11.3927   -0.4789 N.ar    1  UNL1       -0.2209
     14 C           5.2592   12.6130   -0.8440 C.ar    1  UNL1        0.1043
     15 C           4.7939   13.9408   -0.6616 C.ar    1  UNL1        0.0257
     16 C           3.6354   14.4995    0.0124 C.ar    1  UNL1       -0.0144
     17 C           2.7767   15.3908   -0.6491 C.ar    1  UNL1       -0.0539
     18 C           1.7486   16.0322    0.0487 C.ar    1  UNL1       -0.0612
     19 C           1.5277   15.7337    1.3919 C.ar    1  UNL1       -0.0617
     20 C           2.3683   14.8383    2.0522 C.ar    1  UNL1       -0.0612
     21 C           3.4240   14.2306    1.3674 C.ar    1  UNL1       -0.0539
     22 C           5.7714   14.7644   -1.2103 C.ar    1  UNL1        0.0121
     23 N           6.7677   13.9740   -1.7240 N.ar    1  UNL1       -0.3546
     24 C           6.4508   12.6660   -1.5035 C.ar    1  UNL1        0.1310
     25 C           7.1897   11.5215   -1.8715 C.ar    1  UNL1        0.2785
     26 O           8.2665   11.5986   -2.4745 O.2     1  UNL1       -0.2653
     27 N           6.5907   10.3282   -1.4941 N.ar    1  UNL1       -0.2892
     28 C           7.3483    9.1498   -1.8206 C.3     1  UNL1        0.0172
     29 C           3.2663    3.4714    0.1108 C.ar    1  UNL1        0.1447
     30 O           2.9937    4.4978    0.9543 O.3     1  UNL1       -0.4931
     31 C           1.7291    4.6222    1.5716 C.3     1  UNL1        0.0789
     32 C           2.5660    2.2807    0.2517 C.ar    1  UNL1        0.0236
     33 H           0.6129   -1.0083    0.3246 H       1  UNL1        0.0660
     34 H           0.5198    0.2257   -0.9539 H       1  UNL1        0.0660
     35 H           0.6152    0.6742    0.7790 H       1  UNL1        0.0660
     36 H           4.5149    0.2505   -1.5982 H       1  UNL1        0.0655
     37 H           5.7995    2.3481   -1.8630 H       1  UNL1        0.0638
     38 H           5.8401    4.7927   -1.6322 H       1  UNL1        0.1549
     39 H           5.2545    7.3735   -2.1686 H       1  UNL1        0.0475
     40 H           6.3307    7.1308   -0.7084 H       1  UNL1        0.0475
     41 H           2.9024   15.5919   -1.7103 H       1  UNL1        0.0624
     42 H           1.1246   16.7679   -0.4522 H       1  UNL1        0.0618
     43 H           0.6990   16.1948    1.9231 H       1  UNL1        0.0618
     44 H           2.2125   14.6208    3.1051 H       1  UNL1        0.0618
     45 H           4.0914   13.5568    1.8985 H       1  UNL1        0.0624
     46 H           5.8493   15.8430   -1.2624 H       1  UNL1        0.0814
     47 H           7.6101   14.2931   -2.1884 H       1  UNL1        0.1656
     48 H           8.2953    9.3433   -2.3204 H       1  UNL1        0.0457
     49 H           6.7666    8.5594   -2.5264 H       1  UNL1        0.0457
     50 H           7.5772    8.6211   -0.8934 H       1  UNL1        0.0457
     51 H           1.6203    5.6639    1.8862 H       1  UNL1        0.0660
     52 H           1.7398    3.9924    2.4611 H       1  UNL1        0.0660
     53 H           0.8858    4.3844    0.9120 H       1  UNL1        0.0660
     54 H           1.7241    2.2667    0.9237 H       1  UNL1        0.0691
@<TRIPOS>BOND
     1     1     2    1
     2     2     3    1
     3     3     4   ar
     4     4     5   ar
     5     5     6   ar
     6     6     7    1
     7     7     8   am
     8     8     9    2
     9     8    10    1
    10    10    11    1
    11    11    12    1
    12    12    13   ar
    13    13    14   ar
    14    14    15   ar
    15    15    16    1
    16    16    17   ar
    17    17    18   ar
    18    18    19   ar
    19    19    20   ar
    20    20    21   ar
    21    16    21   ar
    22    15    22   ar
    23    22    23   ar
    24    23    24   ar
    25    14    24   ar
    26    24    25   ar
    27    25    26    2
    28    25    27   ar
    29    12    27   ar
    30    27    28    1
    31     6    29   ar
    32    29    30    1
    33    30    31    1
    34    29    32   ar
    35     3    32   ar
    36     1    33    1
    37     1    34    1
    38     1    35    1
    39     4    36    1
    40     5    37    1
    41     7    38    1
    42    10    39    1
    43    10    40    1
    44    17    41    1
    45    18    42    1
    46    19    43    1
    47    20    44    1
    48    21    45    1
    49    22    46    1
    50    23    47    1
    51    28    48    1
    52    28    49    1
    53    28    50    1
    54    31    51    1
    55    31    52    1
    56    31    53    1
    57    32    54    1
