@<TRIPOS>MOLECULE
*****
 50 52 0 0 0
SMALL
GASTEIGER

@<TRIPOS>ATOM
      1 C           1.1092    0.0818   -0.0236 C.3     1  UNL1        0.0820
      2 O           2.5498    0.0862   -0.0371 O.3     1  UNL1       -0.4645
      3 C           3.1208    0.2766    1.1825 C.2     1  UNL1        0.3389
      4 O           2.5235    0.4649    2.2301 O.2     1  UNL1       -0.2450
      5 C           4.6100    0.2660    1.1099 C.ar    1  UNL1        0.0597
      6 C           5.3462   -0.3156    2.1539 C.ar    1  UNL1       -0.0477
      7 C           6.7249   -0.1134    2.2339 C.ar    1  UNL1       -0.0603
      8 C           7.3835    0.5619    1.2034 C.ar    1  UNL1       -0.0496
      9 C           6.6587    1.1428    0.1326 C.ar    1  UNL1        0.0378
     10 C           7.4199    1.9531   -0.8765 C.2     1  UNL1        0.2496
     11 O           8.6320    1.9978   -0.6778 O.2     1  UNL1       -0.2698
     12 N           6.7635    2.6192   -1.9482 N.am    1  UNL1       -0.2627
     13 C           7.3959    3.4033   -2.9428 C.2     1  UNL1        0.1533
     14 S           9.0573    3.6920   -3.0260 S.2     1  UNL1       -0.0170
     15 N           6.5570    3.9667   -3.9236 N.am    1  UNL1       -0.2454
     16 N           7.1495    4.8018   -4.9778 N.am    1  UNL1       -0.2323
     17 C           6.3552    5.4012   -5.9545 C.2     1  UNL1        0.2667
     18 O           5.1385    5.2151   -5.9793 O.2     1  UNL1       -0.2705
     19 C           7.1111    6.2680   -7.0111 C.3     1  UNL1        0.1666
     20 O           6.2451    6.7937   -8.0161 O.3     1  UNL1       -0.4821
     21 C           6.8371    7.4844   -9.0642 C.ar    1  UNL1        0.1289
     22 C           6.1189    8.6765   -9.4123 C.ar    1  UNL1       -0.0193
     23 C           6.5051    9.4285  -10.5161 C.ar    1  UNL1       -0.0577
     24 C           7.6291    9.0280  -11.2193 C.ar    1  UNL1       -0.0538
     25 C           8.3034    7.8245  -10.9169 C.ar    1  UNL1       -0.0144
     26 C           9.2595    7.3517  -11.8020 C.ar    1  UNL1       -0.0539
     27 C           9.7986    6.0484  -11.7143 C.ar    1  UNL1       -0.0612
     28 C          10.2426    5.5716  -10.5078 C.ar    1  UNL1       -0.0611
     29 C           9.1107    5.8988   -9.7216 C.ar    1  UNL1       -0.0505
     30 C           8.0422    7.0294   -9.8159 C.ar    1  UNL1        0.0238
     31 C           5.2709    0.9854    0.1009 C.ar    1  UNL1       -0.0356
     32 H           0.7478   -0.1198   -1.0383 H       1  UNL1        0.0661
     33 H           0.7187    1.0581    0.2841 H       1  UNL1        0.0661
     34 H           0.7221   -0.7059    0.6324 H       1  UNL1        0.0661
     35 H           4.8518   -0.9219    2.9112 H       1  UNL1        0.0626
     36 H           7.2861   -0.4540    3.1044 H       1  UNL1        0.0618
     37 H           8.4746    0.6312    1.2519 H       1  UNL1        0.0625
     38 H           5.7602    2.5297   -2.0022 H       1  UNL1        0.1569
     39 H           5.5437    3.8735   -3.9900 H       1  UNL1        0.1718
     40 H           8.1657    4.8996   -4.9359 H       1  UNL1        0.1729
     41 H           7.8444    5.6031   -7.4500 H       1  UNL1        0.0795
     42 H           7.6270    7.1030   -6.5244 H       1  UNL1        0.0795
     43 H           5.2981    9.0674   -8.8028 H       1  UNL1        0.0654
     44 H           5.9501   10.3045  -10.8539 H       1  UNL1        0.0619
     45 H           7.9859    9.6500  -12.0400 H       1  UNL1        0.0624
     46 H           9.6516    8.0152  -12.5644 H       1  UNL1        0.0624
     47 H           9.1211    5.1639  -11.8806 H       1  UNL1        0.0618
     48 H          11.1192    5.3588  -11.1573 H       1  UNL1        0.0618
     49 H           8.8081    5.1238   -9.0187 H       1  UNL1        0.0625
     50 H           4.6786    1.4319   -0.6823 H       1  UNL1        0.0633
@<TRIPOS>BOND
     1     1     2    1
     2     2     3    1
     3     3     4    2
     4     3     5    1
     5     5     6   ar
     6     6     7   ar
     7     7     8   ar
     8     8     9   ar
     9     9    10    1
    10    10    11    2
    11    10    12   am
    12    12    13    1
    13    13    14    2
    14    13    15    1
    15    15    16    1
    16    16    17   am
    17    17    18    2
    18    17    19    1
    19    19    20    1
    20    20    21    1
    21    21    22   ar
    22    22    23   ar
    23    23    24   ar
    24    24    25   ar
    25    25    26   ar
    26    26    27   ar
    27    27    28   ar
    28    28    29   ar
    29    29    30   ar
    30    21    30   ar
    31    25    30   ar
    32     9    31   ar
    33     5    31   ar
    34     1    32    1
    35     1    33    1
    36     1    34    1
    37     6    35    1
    38     7    36    1
    39     8    37    1
    40    12    38    1
    41    15    39    1
    42    16    40    1
    43    19    41    1
    44    19    42    1
    45    22    43    1
    46    23    44    1
    47    24    45    1
    48    26    46    1
    49    27    47    1
    50    28    48    1
    51    29    49    1
    52    31    50    1
