REMARK  8 active torsions:
REMARK  status: ('A' for Active; 'I' for Inactive)
REMARK    1  A    between atoms: O_2  and  C_3 
REMARK    2  A    between atoms: C_8  and  O_9 
REMARK    3  A    between atoms: N_12  and  C_13 
REMARK    4  A    between atoms: C_13  and  C_14 
REMARK    5  A    between atoms: C_14  and  C_15 
REMARK    6  A    between atoms: C_18  and  N_19 
REMARK       I    between atoms: N_19  and  C_20 
REMARK    7  A    between atoms: C_20  and  C_22 
REMARK    8  A    between atoms: C_33  and  O_34 
ROOT
ATOM      1  C   UNL d   1       5.336  -7.238  -6.497  0.00  0.00    -0.057 C 
ATOM      2  C   UNL d   1       6.295  -6.861  -7.447  0.00  0.00     0.009 C 
ATOM      3  C   UNL d   1       6.851  -7.829  -8.296  0.00  0.00     0.030 C 
ATOM      4  C   UNL d   1       6.549  -9.183  -8.101  0.00  0.00     0.035 C 
ATOM      5  C   UNL d   1       5.756  -9.533  -7.010  0.00  0.00     0.030 C 
ATOM      6  C   UNL d   1       5.094  -8.581  -6.263  0.00  0.00     0.009 C 
ENDROOT
BRANCH   4   7
ATOM      7  N   UNL d   1       7.014 -10.167  -9.005  0.00  0.00    -0.323 N 
ATOM      8  C   UNL d   1       6.734 -11.536  -8.888  0.00  0.00     0.258 C 
ATOM      9  O   UNL d   1       6.011 -12.079  -8.068  0.00  0.00    -0.267 OA
ATOM     10  H   UNL d   1       7.501  -9.837  -9.828  0.00  0.00     0.169 HD
BRANCH   8  11
ATOM     11  C   UNL d   1       7.347 -12.437  -9.877  0.00  0.00     0.054 C 
ATOM     12  C   UNL d   1       6.548 -13.448 -10.442  0.00  0.00     0.019 C 
ATOM     13  C   UNL d   1       7.054 -14.289 -11.431  0.00  0.00     0.002 C 
ATOM     14  C   UNL d   1       8.411 -14.248 -11.727  0.00  0.00     0.017 C 
ATOM     15  C   UNL d   1       9.233 -13.345 -11.044  0.00  0.00     0.037 C 
ATOM     16  C   UNL d   1      10.687 -13.331 -11.318  0.00  0.00     0.196 C 
ATOM     17  C   UNL d   1       8.723 -12.438 -10.097  0.00  0.00     0.043 C 
ATOM     18  O   UNL d   1      11.222 -14.126 -12.055  0.00  0.00    -0.287 OA
ATOM     19  C   UNL d   1      11.453 -12.256 -10.664  0.00  0.00     0.039 C 
ATOM     20  C   UNL d   1      12.141 -11.340 -11.444  0.00  0.00     0.017 C 
ATOM     21  C   UNL d   1      11.056 -11.864  -9.387  0.00  0.00     0.061 C 
ATOM     22  C   UNL d   1      12.512 -10.128 -10.864  0.00  0.00     0.004 C 
ATOM     23  C   UNL d   1      12.527 -10.018  -9.474  0.00  0.00     0.039 C 
ATOM     24  C   UNL d   1      11.892 -10.982  -8.704  0.00  0.00     0.090 C 
ATOM     25  N   UNL d   1       9.603 -11.615  -9.316  0.00  0.00    -0.255 NA
ATOM     26  H   UNL d   1       9.496 -10.657  -9.685  0.00  0.00     0.134 HD
BRANCH  24  27
ATOM     27  O   UNL d   1      12.155 -10.941  -7.368  0.00  0.00    -0.354 OA
ATOM     28  C   UNL d   1      11.838 -12.102  -6.601  0.00  0.00     0.210 C 
ENDBRANCH  24  27
ENDBRANCH   8  11
ENDBRANCH   4   7
BRANCH   1  29
ATOM     29  C   UNL d   1       4.513  -6.245  -5.751  0.00  0.00     0.066 C 
BRANCH  29  30
ATOM     30  C   UNL d   1       5.256  -5.696  -4.542  0.00  0.00     0.240 C 
BRANCH  30  31
ATOM     31  N   UNL d   1       4.408  -4.674  -3.829  0.00  0.00    -0.067 N 
ATOM     32  C   UNL d   1       5.095  -4.163  -2.575  0.00  0.00     0.274 C 
ATOM     33  C   UNL d   1       4.337  -3.038  -1.919  0.00  0.00    -0.023 A 
ATOM     34  C   UNL d   1       3.345  -2.329  -2.617  0.00  0.00    -0.046 A 
ATOM     35  C   UNL d   1       4.658  -2.636  -0.614  0.00  0.00     0.049 A 
ATOM     36  C   UNL d   1       2.659  -1.284  -1.997  0.00  0.00     0.047 A 
ATOM     37  C   UNL d   1       2.962  -2.678  -4.023  0.00  0.00     0.067 C 
ATOM     38  C   UNL d   1       2.956  -0.915  -0.688  0.00  0.00     0.102 A 
ATOM     39  C   UNL d   1       3.978  -1.573   0.009  0.00  0.00     0.102 A 
ATOM     40  C   UNL d   1       4.027  -3.504  -4.709  0.00  0.00     0.240 C 
ATOM     41  H   UNL d   1       3.547  -5.140  -3.509  0.00  0.00     0.280 HD
BRANCH  38  42
ATOM     42  O   UNL d   1       2.328   0.182  -0.169  0.00  0.00    -0.353 OA
ATOM     43  C   UNL d   1       0.911   0.045  -0.070  0.00  0.00     0.210 C 
ENDBRANCH  38  42
BRANCH  39  44
ATOM     44  O   UNL d   1       4.419  -1.303   1.280  0.00  0.00    -0.353 OA
ATOM     45  C   UNL d   1       3.779  -0.233   1.970  0.00  0.00     0.210 C 
ENDBRANCH  39  44
ENDBRANCH  30  31
ENDBRANCH  29  30
ENDBRANCH   1  29
TORSDOF 8
