REMARK  14 active torsions:
REMARK  status: ('A' for Active; 'I' for Inactive)
REMARK    1  A    between atoms: C_2  and  C_3 
REMARK    2  A    between atoms: C_3  and  C_4 
REMARK    3  A    between atoms: C_4  and  O_5 
REMARK    4  A    between atoms: O_5  and  C_6 
REMARK    5  A    between atoms: C_11  and  C_12 
REMARK       I    between atoms: C_12  and  N_14 
REMARK    6  A    between atoms: N_14  and  C_15 
REMARK    7  A    between atoms: C_15  and  N_17 
REMARK    8  A    between atoms: C_23  and  C_24 
REMARK    9  A    between atoms: C_24  and  C_25 
REMARK   10  A    between atoms: C_25  and  O_27 
REMARK   11  A    between atoms: O_27  and  C_28 
REMARK   12  A    between atoms: C_28  and  C_29 
REMARK   13  A    between atoms: C_29  and  C_30 
REMARK   14  A    between atoms: C_30  and  C_31 
ROOT
ATOM      1  N   UNL d   1       3.360   0.715  -2.389  0.00  0.00    -0.343 N 
ATOM      2  C   UNL d   1       2.896  -0.596  -3.010  0.00  0.00     0.146 C 
ATOM      3  C   UNL d   1       1.911  -1.355  -2.129  0.00  0.00     0.142 C 
ATOM      4  N   UNL d   1       0.757  -0.512  -1.940  0.00  0.00    -0.358 N 
ATOM      5  C   UNL d   1       0.791   0.866  -1.880  0.00  0.00     0.241 C 
ATOM      6  O   UNL d   1      -0.291   1.399  -1.640  0.00  0.00    -0.271 OA
ATOM      7  C   UNL d   1       2.165   1.662  -2.148  0.00  0.00     0.188 C 
ATOM      8  H   UNL d   1      -0.110  -0.915  -1.592  0.00  0.00     0.162 HD
ENDROOT
BRANCH   1   9
ATOM      9  C   UNL d   1       4.748   1.098  -2.527  0.00  0.00     0.177 C 
ATOM     10  S   UNL d   1       5.670   0.483  -3.801  0.00  0.00    -0.041 SA
BRANCH   9  11
ATOM     11  N   UNL d   1       5.350   1.883  -1.485  0.00  0.00    -0.299 N 
ATOM     12  C   UNL d   1       6.726   1.994  -1.129  0.00  0.00     0.260 C 
ATOM     13  O   UNL d   1       7.647   1.752  -1.906  0.00  0.00    -0.267 OA
ATOM     14  H   UNL d   1       4.797   2.301  -0.763  0.00  0.00     0.171 HD
BRANCH  12  15
ATOM     15  C   UNL d   1       7.146   2.466   0.259  0.00  0.00     0.065 A 
ATOM     16  C   UNL d   1       8.512   2.820   0.403  0.00  0.00     0.020 A 
ATOM     17  C   UNL d   1       9.047   3.315   1.601  0.00  0.00     0.001 A 
ATOM     18  C   UNL d   1       8.222   3.482   2.701  0.00  0.00     0.003 A 
ATOM     19  C   UNL d   1       6.892   3.068   2.618  0.00  0.00     0.038 A 
ATOM     20  C   UNL d   1       6.355   2.557   1.413  0.00  0.00     0.084 A 
BRANCH  20  21
ATOM     21  O   UNL d   1       5.013   2.328   1.446  0.00  0.00    -0.350 OA
BRANCH  21  22
ATOM     22  C   UNL d   1       4.626   0.968   1.289  0.00  0.00     0.175 C 
BRANCH  22  23
ATOM     23  C   UNL d   1       3.125   0.948   1.520  0.00  0.00     0.026 C 
BRANCH  23  24
ATOM     24  C   UNL d   1       2.535  -0.180   0.734  0.00  0.00    -0.002 C 
ATOM     25  C   UNL d   1       1.034  -0.172   0.874  0.00  0.00     0.005 C 
ENDBRANCH  23  24
ENDBRANCH  22  23
ENDBRANCH  21  22
ENDBRANCH  20  21
ENDBRANCH  12  15
ENDBRANCH   9  11
ENDBRANCH   1   9
BRANCH   7  26
ATOM     26  C   UNL d   1       2.533   2.776  -1.157  0.00  0.00     0.146 C 
BRANCH  26  27
ATOM     27  C   UNL d   1       1.499   3.546  -0.385  0.00  0.00     0.261 C 
ATOM     28  O   UNL d   1       0.312   3.655  -0.710  0.00  0.00    -0.265 OA
BRANCH  27  29
ATOM     29  O   UNL d   1       2.025   4.206   0.699  0.00  0.00    -0.321 OA
BRANCH  29  30
ATOM     30  C   UNL d   1       1.030   5.019   1.350  0.00  0.00     0.179 C 
BRANCH  30  31
ATOM     31  C   UNL d   1       1.624   5.928   2.419  0.00  0.00     0.031 C 
BRANCH  31  32
ATOM     32  C   UNL d   1       0.534   6.834   2.993  0.00  0.00     0.041 C 
BRANCH  32  33
ATOM     33  C   UNL d   1       1.031   7.791   4.044  0.00  0.00    -0.058 A 
ATOM     34  C   UNL d   1       1.527   7.325   5.269  0.00  0.00     0.007 A 
ATOM     35  C   UNL d   1       1.754   8.218   6.315  0.00  0.00     0.001 A 
ATOM     36  C   UNL d   1       1.586   9.587   6.114  0.00  0.00     0.000 A 
ATOM     37  C   UNL d   1       1.163  10.064   4.876  0.00  0.00     0.001 A 
ATOM     38  C   UNL d   1       0.884   9.169   3.846  0.00  0.00     0.007 A 
ENDBRANCH  32  33
ENDBRANCH  31  32
ENDBRANCH  30  31
ENDBRANCH  29  30
ENDBRANCH  27  29
ENDBRANCH  26  27
ENDBRANCH   7  26
TORSDOF 14
