@<TRIPOS>MOLECULE
*****
 49 51 0 0 0
SMALL
GASTEIGER

@<TRIPOS>ATOM
      1 C           0.9740    0.1066    0.0592 C.3     1  UNL1       -0.0395
      2 C           2.4705    0.0753    0.0592 C.ar    1  UNL1       -0.0435
      3 C           3.1314   -1.1579    0.0611 C.ar    1  UNL1       -0.0162
      4 C           4.5235   -1.2299    0.0685 C.ar    1  UNL1        0.1323
      5 O           5.1812   -2.4202    0.0815 O.3     1  UNL1       -0.4820
      6 C           4.5335   -3.6799    0.0866 C.3     1  UNL1        0.1652
      7 C           5.5991   -4.8086    0.1024 C.2     1  UNL1        0.2509
      8 O           6.8117   -4.6154    0.0945 O.2     1  UNL1       -0.2721
      9 N           5.0761   -6.0859    0.1219 N.am    1  UNL1       -0.3084
     10 C           5.9249   -7.2759    0.1444 C.3     1  UNL1        0.0369
     11 C           5.1704   -8.5985    0.1332 C.ar    1  UNL1       -0.0302
     12 C           5.8541   -9.8142    0.3486 C.ar    1  UNL1       -0.0552
     13 C           5.2111  -11.0497    0.1543 C.ar    1  UNL1       -0.0351
     14 C           3.8479  -11.0755   -0.1459 C.ar    1  UNL1        0.1050
     15 S           3.0147  -12.6074   -0.4761 S.O2    1  UNL1        0.0559
     16 N           3.8184  -13.1432   -1.8369 N.3     1  UNL1       -0.2035
     17 O           3.3240  -13.5200    0.6030 O.2     1  UNL1       -0.1533
     18 O           1.6675  -12.3094   -0.8921 O.2     1  UNL1       -0.1533
     19 C           3.1275   -9.8893   -0.2191 C.ar    1  UNL1       -0.0351
     20 C           3.7992   -8.6703   -0.1531 C.ar    1  UNL1       -0.0552
     21 C           5.2993   -0.0441    0.0664 C.ar    1  UNL1        0.0621
     22 C           6.7781    0.0132    0.0668 C.ar    1  UNL1       -0.0295
     23 C           7.6594   -1.2013    0.0644 C.3     1  UNL1       -0.0387
     24 C           7.3826    1.2121    0.0677 C.ar    1  UNL1        0.0266
     25 C           6.6694    2.4925    0.0675 C.ar    1  UNL1        0.3375
     26 O           7.2831    3.5537    0.0690 O.2     1  UNL1       -0.2452
     27 O           5.2881    2.4231    0.0642 O.2     1  UNL1       -0.4220
     28 C           4.6108    1.1813    0.0633 C.ar    1  UNL1        0.1431
     29 C           3.2158    1.2553    0.0609 C.ar    1  UNL1       -0.0155
     30 H           0.5646   -0.9099    0.0586 H       1  UNL1        0.0278
     31 H           0.6076    0.6147   -0.8368 H       1  UNL1        0.0278
     32 H           0.6082    0.6129    0.9565 H       1  UNL1        0.0278
     33 H           2.5363   -2.0640    0.0583 H       1  UNL1        0.0657
     34 H           3.9283   -3.7920   -0.8197 H       1  UNL1        0.0795
     35 H           3.9146   -3.7783    0.9850 H       1  UNL1        0.0795
     36 H           4.0780   -6.1798    0.1990 H       1  UNL1        0.1491
     37 H           6.5666   -7.2138    1.0315 H       1  UNL1        0.0512
     38 H           6.5740   -7.2334   -0.7405 H       1  UNL1        0.0512
     39 H           6.9005   -9.8153    0.6548 H       1  UNL1        0.0621
     40 H           5.7720  -11.9782    0.2428 H       1  UNL1        0.0637
     41 H           4.7316  -13.5597   -1.6918 H       1  UNL1        0.1442
     42 H           3.6038  -12.6618   -2.7057 H       1  UNL1        0.1442
     43 H           2.0487   -9.8922   -0.3529 H       1  UNL1        0.0637
     44 H           3.2084   -7.7847   -0.3510 H       1  UNL1        0.0621
     45 H           7.1669   -2.1592    0.0558 H       1  UNL1        0.0278
     46 H           8.2788   -1.2207    0.9652 H       1  UNL1        0.0278
     47 H           8.2854   -1.2127   -0.8319 H       1  UNL1        0.0278
     48 H           8.4646    1.2959    0.0683 H       1  UNL1        0.0692
     49 H           2.7207    2.2245    0.0607 H       1  UNL1        0.0657
@<TRIPOS>BOND
     1     1     2    1
     2     2     3   ar
     3     3     4   ar
     4     4     5    1
     5     5     6    1
     6     6     7    1
     7     7     8    2
     8     7     9   am
     9     9    10    1
    10    10    11    1
    11    11    12   ar
    12    12    13   ar
    13    13    14   ar
    14    14    15    1
    15    15    16    1
    16    15    17    2
    17    15    18    2
    18    14    19   ar
    19    19    20   ar
    20    11    20   ar
    21     4    21   ar
    22    21    22   ar
    23    22    23    1
    24    22    24   ar
    25    24    25   ar
    26    25    26    2
    27    25    27   ar
    28    27    28   ar
    29    21    28   ar
    30    28    29   ar
    31     2    29   ar
    32     1    30    1
    33     1    31    1
    34     1    32    1
    35     3    33    1
    36     6    34    1
    37     6    35    1
    38     9    36    1
    39    10    37    1
    40    10    38    1
    41    12    39    1
    42    13    40    1
    43    16    41    1
    44    16    42    1
    45    19    43    1
    46    20    44    1
    47    23    45    1
    48    23    46    1
    49    23    47    1
    50    24    48    1
    51    29    49    1
