@<TRIPOS>MOLECULE
*****
 47 48 0 0 0
SMALL
GASTEIGER

@<TRIPOS>ATOM
      1 C           0.9946    0.0117    0.0887 C.3     1  UNL1        0.0004
      2 N           2.4461    0.1320    0.0266 N.pl3   1  UNL1       -0.3360
      3 C           3.1718   -0.7643   -0.8704 C.3     1  UNL1        0.0004
      4 C           3.1612    0.7453    1.0519 C.ar    1  UNL1        0.0292
      5 C           4.3899    1.3809    0.7994 C.ar    1  UNL1       -0.0401
      6 C           5.1801    1.9280    1.8312 C.ar    1  UNL1       -0.0514
      7 C           4.7187    1.9130    3.1483 C.ar    1  UNL1       -0.0053
      8 C           5.4892    2.5802    4.2405 C.2     1  UNL1        0.0528
      9 N           5.0325    2.6050    5.4524 N.2     1  UNL1       -0.1877
     10 N           5.7403    3.2574    6.4322 N.am    1  UNL1       -0.2070
     11 C           5.2061    3.2661    7.7176 C.2     1  UNL1        0.2323
     12 O           4.1390    2.7172    8.0161 O.2     1  UNL1       -0.2741
     13 C           6.0293    4.0037    8.7676 C.3     1  UNL1        0.0282
     14 C           5.3281    3.9257   10.1363 C.3     1  UNL1       -0.0144
     15 C           6.0846    4.6499   11.2527 C.3     1  UNL1        0.0806
     16 O           6.2724    6.0115   10.8665 O.3     1  UNL1       -0.3872
     17 C           5.3775    4.5367   12.5947 C.ar    1  UNL1       -0.0191
     18 C           4.9846    5.6619   13.3358 C.ar    1  UNL1       -0.0561
     19 C           4.4590    5.5228   14.6215 C.ar    1  UNL1       -0.0614
     20 C           4.2469    4.2559   15.1577 C.ar    1  UNL1       -0.0617
     21 C           4.5943    3.1258   14.4242 C.ar    1  UNL1       -0.0614
     22 C           5.1671    3.2656   13.1595 C.ar    1  UNL1       -0.0561
     23 C           3.4903    1.3095    3.4190 C.ar    1  UNL1       -0.0514
     24 C           2.7240    0.7477    2.3834 C.ar    1  UNL1       -0.0401
     25 H           0.6059   -0.6331   -0.7081 H       1  UNL1        0.0428
     26 H           0.5461    1.0001   -0.0560 H       1  UNL1        0.0428
     27 H           0.6315   -0.4099    1.0303 H       1  UNL1        0.0428
     28 H           2.4913   -1.3366   -1.5120 H       1  UNL1        0.0428
     29 H           3.7726   -1.4928   -0.3128 H       1  UNL1        0.0428
     30 H           3.8279   -0.1976   -1.5382 H       1  UNL1        0.0428
     31 H           4.7290    1.4929   -0.2290 H       1  UNL1        0.0636
     32 H           6.1435    2.3600    1.5772 H       1  UNL1        0.0624
     33 H           6.4422    3.0630    3.9614 H       1  UNL1        0.0851
     34 H           6.6089    3.7294    6.2060 H       1  UNL1        0.1772
     35 H           6.1482    5.0490    8.4629 H       1  UNL1        0.0360
     36 H           7.0218    3.5445    8.8403 H       1  UNL1        0.0360
     37 H           5.1852    2.8705   10.4005 H       1  UNL1        0.0298
     38 H           4.3234    4.3618   10.0474 H       1  UNL1        0.0298
     39 H           7.0857    4.2181   11.3707 H       1  UNL1        0.0643
     40 H           5.3857    6.4063   10.8042 H       1  UNL1        0.2102
     41 H           5.1009    6.6663   12.9376 H       1  UNL1        0.0621
     42 H           4.2324    6.4084   15.2092 H       1  UNL1        0.0618
     43 H           3.8144    4.1510   16.1483 H       1  UNL1        0.0618
     44 H           4.4403    2.1345   14.8424 H       1  UNL1        0.0618
     45 H           5.4574    2.3663   12.6198 H       1  UNL1        0.0621
     46 H           3.1143    1.2592    4.4391 H       1  UNL1        0.0624
     47 H           1.7855    0.2789    2.6611 H       1  UNL1        0.0636
@<TRIPOS>BOND
     1     1     2    1
     2     2     3    1
     3     2     4    1
     4     4     5   ar
     5     5     6   ar
     6     6     7   ar
     7     7     8    1
     8     8     9    2
     9     9    10    1
    10    10    11   am
    11    11    12    2
    12    11    13    1
    13    13    14    1
    14    14    15    1
    15    15    16    1
    16    15    17    1
    17    17    18   ar
    18    18    19   ar
    19    19    20   ar
    20    20    21   ar
    21    21    22   ar
    22    17    22   ar
    23     7    23   ar
    24    23    24   ar
    25     4    24   ar
    26     1    25    1
    27     1    26    1
    28     1    27    1
    29     3    28    1
    30     3    29    1
    31     3    30    1
    32     5    31    1
    33     6    32    1
    34     8    33    1
    35    10    34    1
    36    13    35    1
    37    13    36    1
    38    14    37    1
    39    14    38    1
    40    15    39    1
    41    16    40    1
    42    18    41    1
    43    19    42    1
    44    20    43    1
    45    21    44    1
    46    22    45    1
    47    23    46    1
    48    24    47    1
