REMARK  9 active torsions:
REMARK  status: ('A' for Active; 'I' for Inactive)
REMARK    1  A    between atoms: C_2  and  C_3 
REMARK    2  A    between atoms: C_3  and  N_4 
REMARK    3  A    between atoms: C_5  and  C_6 
REMARK    4  A    between atoms: C_6  and  C_7 
REMARK    5  A    between atoms: C_10  and  N_11 
REMARK       I    between atoms: N_11  and  C_12 
REMARK    6  A    between atoms: C_12  and  C_14 
REMARK    7  A    between atoms: C_18  and  N_19 
REMARK       I    between atoms: N_19  and  C_20 
REMARK    8  A    between atoms: C_20  and  O_22 
REMARK    9  A    between atoms: O_22  and  C_23 
ROOT
ATOM      1  N   UNL d   1       8.204   6.190   1.929  0.00  0.00    -0.301 N 
ATOM      2  C   UNL d   1       7.893   6.576   3.217  0.00  0.00     0.257 C 
ATOM      3  O   UNL d   1       7.006   6.123   3.932  0.00  0.00    -0.267 OA
ATOM      4  H   UNL d   1       8.967   6.596   1.407  0.00  0.00     0.171 HD
ENDROOT
BRANCH   1   5
ATOM      5  C   UNL d   1       7.478   5.222   1.286  0.00  0.00     0.173 A 
ATOM      6  S   UNL d   1       8.039   4.847  -0.283  0.00  0.00    -0.062 SA
ATOM      7  C   UNL d   1       6.795   3.680  -0.422  0.00  0.00     0.081 A 
ATOM      8  C   UNL d   1       6.044   3.641   0.740  0.00  0.00     0.051 A 
ATOM      9  N   UNL d   1       6.431   4.556   1.703  0.00  0.00    -0.228 NA
BRANCH   8  10
ATOM     10  C   UNL d   1       4.920   2.699   1.024  0.00  0.00     0.140 C 
BRANCH  10  11
ATOM     11  C   UNL d   1       5.367   1.254   0.953  0.00  0.00     0.134 A 
ATOM     12  N   UNL d   1       4.499   0.224   1.103  0.00  0.00    -0.306 N 
ATOM     13  C   UNL d   1       5.257  -0.914   0.961  0.00  0.00     0.196 A 
ATOM     14  N   UNL d   1       6.548  -0.481   0.719  0.00  0.00    -0.251 N 
ATOM     15  S   UNL d   1       4.821  -2.510   1.034  0.00  0.00    -0.039 SA
ATOM     16  N   UNL d   1       6.596   0.877   0.722  0.00  0.00    -0.158 NA
ATOM     17  H   UNL d   1       7.370  -1.052   0.571  0.00  0.00     0.191 HD
BRANCH  12  18
ATOM     18  C   UNL d   1       3.075   0.288   1.363  0.00  0.00     0.159 C 
BRANCH  18  19
ATOM     19  C   UNL d   1       2.323   0.123   0.075  0.00  0.00    -0.017 C 
ATOM     20  C   UNL d   1       0.985   0.104   0.033  0.00  0.00     0.008 C 
ENDBRANCH  18  19
ENDBRANCH  12  18
ENDBRANCH  10  11
ENDBRANCH   8  10
ENDBRANCH   1   5
BRANCH   2  21
ATOM     21  C   UNL d   1       8.690   7.699   3.780  0.00  0.00     0.034 A 
ATOM     22  C   UNL d   1       8.969   7.768   5.141  0.00  0.00     0.017 A 
ATOM     23  C   UNL d   1       9.467   8.960   5.679  0.00  0.00     0.003 A 
ATOM     24  C   UNL d   1       9.745  10.065   4.848  0.00  0.00     0.029 A 
ATOM     25  C   UNL d   1       9.486   9.995   3.472  0.00  0.00     0.037 A 
ATOM     26  C   UNL d   1       8.969   8.795   2.971  0.00  0.00     0.046 A 
BRANCH  25  27
ATOM     27  N   UNL d   1       9.681  11.117   2.614  0.00  0.00    -0.303 N 
ATOM     28  C   UNL d   1       9.385  11.127   1.259  0.00  0.00     0.365 C 
ATOM     29  O   UNL d   1       8.946  10.180   0.606  0.00  0.00    -0.238 OA
ATOM     30  H   UNL d   1      10.021  11.983   3.014  0.00  0.00     0.171 HD
BRANCH  28  31
ATOM     31  O   UNL d   1       9.636  12.326   0.655  0.00  0.00    -0.304 OA
BRANCH  31  32
ATOM     32  C   UNL d   1       9.319  12.263  -0.756  0.00  0.00     0.176 C 
ATOM     33  C   UNL d   1       9.613  13.583  -1.434  0.00  0.00     0.034 C 
ENDBRANCH  31  32
ENDBRANCH  28  31
ENDBRANCH  25  27
ENDBRANCH   2  21
TORSDOF 9
