REMARK  9 active torsions:
REMARK  status: ('A' for Active; 'I' for Inactive)
REMARK    1  A    between atoms: C_2  and  C_3 
REMARK    2  A    between atoms: C_3  and  C_4 
REMARK    3  A    between atoms: C_4  and  N_5 
REMARK       I    between atoms: N_5  and  C_6 
REMARK       I    between atoms: C_6  and  N_8 
REMARK    4  A    between atoms: N_8  and  N_9 
REMARK       I    between atoms: N_9  and  C_10 
REMARK    5  A    between atoms: C_10  and  C_12 
REMARK    6  A    between atoms: C_12  and  C_13 
REMARK    7  A    between atoms: C_15  and  C_16 
REMARK    8  A    between atoms: C_21  and  C_22 
REMARK    9  A    between atoms: C_22  and  O_24 
ROOT
ATOM      1  C   UNL d   1      10.327   1.749   6.202  0.00  0.00     0.162 C 
ENDROOT
BRANCH   1   2
ATOM      2  C   UNL d   1       8.801   1.677   5.912  0.00  0.00     0.241 C 
ATOM      3  N   UNL d   1       8.424   1.314   4.619  0.00  0.00    -0.266 N 
ATOM      4  H   UNL d   1       9.071   1.147   3.850  0.00  0.00     0.190 HD
ATOM      5  O   UNL d   1       7.945   1.887   6.776  0.00  0.00    -0.271 OA
BRANCH   3   6
ATOM      6  N   UNL d   1       7.021   1.222   4.292  0.00  0.00    -0.249 N 
ATOM      7  C   UNL d   1       6.629   0.876   3.006  0.00  0.00     0.334 C 
ATOM      8  N   UNL d   1       5.259   0.820   2.804  0.00  0.00    -0.342 N 
ATOM      9  O   UNL d   1       7.444   0.628   2.120  0.00  0.00    -0.246 OA
ATOM     10  H   UNL d   1       4.629   1.040   3.561  0.00  0.00     0.164 HD
ATOM     11  H   UNL d   1       6.378   1.463   5.041  0.00  0.00     0.192 HD
BRANCH   8  12
ATOM     12  C   UNL d   1       4.693   0.458   1.498  0.00  0.00     0.124 C 
BRANCH  12  13
ATOM     13  C   UNL d   1       3.156   0.446   1.454  0.00  0.00     0.019 C 
BRANCH  13  14
ATOM     14  C   UNL d   1       2.615   0.059   0.067  0.00  0.00    -0.003 C 
ATOM     15  C   UNL d   1       1.091   0.052   0.041  0.00  0.00     0.005 C 
ENDBRANCH  13  14
ENDBRANCH  12  13
ENDBRANCH   8  12
ENDBRANCH   3   6
ENDBRANCH   1   2
BRANCH   1  16
ATOM     16  C   UNL d   1      10.595   2.245   7.624  0.00  0.00     0.035 A 
ATOM     17  N   UNL d   1      10.867   1.394   8.681  0.00  0.00    -0.355 N 
ATOM     18  C   UNL d   1      10.932   2.083   9.883  0.00  0.00     0.085 A 
ATOM     19  H   UNL d   1      10.957   0.391   8.590  0.00  0.00     0.166 HD
ATOM     20  C   UNL d   1      10.760   3.433   9.558  0.00  0.00    -0.013 A 
ATOM     21  C   UNL d   1      10.736   4.589  10.508  0.00  0.00     0.052 C 
ATOM     22  C   UNL d   1      10.568   3.545   8.128  0.00  0.00     0.070 A 
BRANCH  18  23
ATOM     23  C   UNL d   1      11.123   1.496  11.222  0.00  0.00     0.172 C 
ATOM     24  C   UNL d   1      11.297   0.006  11.390  0.00  0.00     0.098 C 
ATOM     25  O   UNL d   1      11.152   2.174  12.252  0.00  0.00    -0.291 OA
ENDBRANCH  18  23
BRANCH  22  26
ATOM     26  C   UNL d   1      10.331   4.753   7.313  0.00  0.00     0.295 C 
ATOM     27  O   UNL d   1      10.200   4.721   6.090  0.00  0.00    -0.259 OA
BRANCH  26  28
ATOM     28  O   UNL d   1      10.290   5.909   8.037  0.00  0.00    -0.322 OA
ATOM     29  C   UNL d   1      10.066   7.096   7.271  0.00  0.00     0.213 C 
ENDBRANCH  26  28
ENDBRANCH  22  26
ENDBRANCH   1  16
TORSDOF 9
