@<TRIPOS>MOLECULE
*****
 71 73 0 0 0
SMALL
GASTEIGER

@<TRIPOS>ATOM
      1 O           1.0729   -0.1546    0.1730 O.2     1  UNL1       -0.2754
      2 C           2.2826    0.0401    0.0665 C.2     1  UNL1        0.2185
      3 C           2.8603    1.2737   -0.6066 C.3     1  UNL1        0.0248
      4 C           1.9127    2.3006   -1.1681 C.3     1  UNL1       -0.0347
      5 C           2.6854    3.4653   -1.8211 C.3     1  UNL1        0.0454
      6 C           1.6950    4.4577   -2.3707 C.2     1  UNL1        0.3071
      7 O           0.4703    4.3183   -2.2964 O.2     1  UNL1       -0.2509
      8 O           2.3012    5.5239   -2.9565 O.3     1  UNL1       -0.4646
      9 C           1.3568    6.4732   -3.4826 C.3     1  UNL1        0.0928
     10 C           2.1045    7.6235   -4.1353 C.3     1  UNL1       -0.0146
     11 C           1.1399    8.6494   -4.7387 C.3     1  UNL1       -0.0246
     12 C           1.8425    9.8405   -5.3458 C.ar    1  UNL1       -0.0472
     13 C           3.0468    9.7204   -6.0540 C.ar    1  UNL1       -0.0586
     14 C           3.7265   10.8561   -6.4931 C.ar    1  UNL1       -0.0615
     15 C           3.1574   12.1154   -6.3266 C.ar    1  UNL1       -0.0617
     16 C           1.9295   12.2437   -5.6821 C.ar    1  UNL1       -0.0615
     17 C           1.2779   11.1134   -5.1906 C.ar    1  UNL1       -0.0586
     18 N           3.2019   -0.8962    0.5803 N.am    1  UNL1       -0.2676
     19 C           4.6115   -0.9824    0.4844 C.2     1  UNL1        0.1408
     20 S           5.5717    0.0707   -0.4397 S.2     1  UNL1       -0.0182
     21 N           5.1715   -2.0557    1.2174 N.am    1  UNL1       -0.2966
     22 C           6.5894   -2.1786    1.3882 C.ar    1  UNL1        0.0326
     23 C           7.3082   -3.3439    1.1093 C.ar    1  UNL1       -0.0398
     24 C           8.7274   -3.3416    1.2063 C.ar    1  UNL1       -0.0479
     25 C           9.4350   -2.1552    1.4730 C.ar    1  UNL1        0.0370
     26 C          10.9461   -2.0745    1.4221 C.2     1  UNL1        0.2466
     27 O          11.6027   -3.0299    1.0090 O.2     1  UNL1       -0.2700
     28 N          11.5385   -0.8803    1.8651 N.am    1  UNL1       -0.2975
     29 C          12.3478   -0.0295    0.9793 C.3     1  UNL1        0.0150
     30 C          13.8615   -0.0867    1.2114 C.3     1  UNL1       -0.0371
     31 C          14.3610    0.5877    2.4912 C.3     1  UNL1       -0.0516
     32 C          13.6945    0.0852    3.7647 C.3     1  UNL1       -0.0516
     33 C          12.2429    0.5140    3.8592 C.3     1  UNL1       -0.0371
     34 C          11.2899   -0.4816    3.2402 C.3     1  UNL1        0.0150
     35 C           8.6873   -1.0057    1.7047 C.ar    1  UNL1       -0.0479
     36 C           7.3045   -1.0466    1.7733 C.ar    1  UNL1       -0.0398
     37 H           3.4207    0.9226   -1.4757 H       1  UNL1        0.0359
     38 H           3.4898    1.7803    0.1341 H       1  UNL1        0.0359
     39 H           1.2691    2.6777   -0.3682 H       1  UNL1        0.0275
     40 H           1.2719    1.8208   -1.9163 H       1  UNL1        0.0275
     41 H           3.3224    3.0973   -2.6365 H       1  UNL1        0.0378
     42 H           3.3271    3.9607   -1.0812 H       1  UNL1        0.0378
     43 H           0.7294    6.8539   -2.6675 H       1  UNL1        0.0697
     44 H           0.7250    5.9801   -4.2317 H       1  UNL1        0.0697
     45 H           2.7699    7.2121   -4.9018 H       1  UNL1        0.0301
     46 H           2.7563    8.1074   -3.3964 H       1  UNL1        0.0301
     47 H           0.4795    9.0057   -3.9357 H       1  UNL1        0.0314
     48 H           0.4966    8.1873   -5.4972 H       1  UNL1        0.0314
     49 H           3.4859    8.7473   -6.2576 H       1  UNL1        0.0620
     50 H           4.7050   10.7561   -6.9554 H       1  UNL1        0.0618
     51 H           3.6690   12.9955   -6.7045 H       1  UNL1        0.0618
     52 H           1.4861   13.2254   -5.5427 H       1  UNL1        0.0618
     53 H           0.3299   11.2323   -4.6706 H       1  UNL1        0.0620
     54 H           2.7066   -1.6568    1.0315 H       1  UNL1        0.1565
     55 H           4.6193   -2.8887    1.3881 H       1  UNL1        0.1538
     56 H           6.8127   -4.2330    0.7258 H       1  UNL1        0.0636
     57 H           9.2793   -4.2634    1.0267 H       1  UNL1        0.0626
     58 H          11.9920    1.0027    1.0932 H       1  UNL1        0.0464
     59 H          12.1444   -0.3121   -0.0614 H       1  UNL1        0.0464
     60 H          14.3599    0.4227    0.3738 H       1  UNL1        0.0280
     61 H          14.2019   -1.1270    1.1928 H       1  UNL1        0.0280
     62 H          14.2410    1.6769    2.4138 H       1  UNL1        0.0266
     63 H          15.4403    0.4097    2.5775 H       1  UNL1        0.0266
     64 H          14.2246    0.5119    4.6228 H       1  UNL1        0.0266
     65 H          13.7879   -1.0044    3.8352 H       1  UNL1        0.0266
     66 H          12.0916    1.5063    3.4158 H       1  UNL1        0.0280
     67 H          11.9560    0.6014    4.9128 H       1  UNL1        0.0280
     68 H          10.3154   -0.0030    3.3019 H       1  UNL1        0.0464
     69 H          11.2246   -1.3954    3.8417 H       1  UNL1        0.0464
     70 H           9.1356   -0.0264    1.8073 H       1  UNL1        0.0626
     71 H           6.7953   -0.1216    2.0302 H       1  UNL1        0.0636
@<TRIPOS>BOND
     1     1     2    2
     2     2     3    1
     3     3     4    1
     4     4     5    1
     5     5     6    1
     6     6     7    2
     7     6     8    1
     8     8     9    1
     9     9    10    1
    10    10    11    1
    11    11    12    1
    12    12    13   ar
    13    13    14   ar
    14    14    15   ar
    15    15    16   ar
    16    16    17   ar
    17    12    17   ar
    18     2    18   am
    19    18    19    1
    20    19    20    2
    21    19    21    1
    22    21    22    1
    23    22    23   ar
    24    23    24   ar
    25    24    25   ar
    26    25    26    1
    27    26    27    2
    28    26    28   am
    29    28    29    1
    30    29    30    1
    31    30    31    1
    32    31    32    1
    33    32    33    1
    34    33    34    1
    35    28    34    1
    36    25    35   ar
    37    35    36   ar
    38    22    36   ar
    39     3    37    1
    40     3    38    1
    41     4    39    1
    42     4    40    1
    43     5    41    1
    44     5    42    1
    45     9    43    1
    46     9    44    1
    47    10    45    1
    48    10    46    1
    49    11    47    1
    50    11    48    1
    51    13    49    1
    52    14    50    1
    53    15    51    1
    54    16    52    1
    55    17    53    1
    56    18    54    1
    57    21    55    1
    58    23    56    1
    59    24    57    1
    60    29    58    1
    61    29    59    1
    62    30    60    1
    63    30    61    1
    64    31    62    1
    65    31    63    1
    66    32    64    1
    67    32    65    1
    68    33    66    1
    69    33    67    1
    70    34    68    1
    71    34    69    1
    72    35    70    1
    73    36    71    1
