REMARK  7 active torsions:
REMARK  status: ('A' for Active; 'I' for Inactive)
REMARK       I    between atoms: N_1  and  C_2 
REMARK    1  A    between atoms: C_2  and  C_4 
REMARK    2  A    between atoms: C_4  and  S_5 
REMARK    3  A    between atoms: S_5  and  C_6 
REMARK    4  A    between atoms: C_11  and  N_12 
REMARK    5  A    between atoms: N_12  and  C_13 
REMARK    6  A    between atoms: C_13  and  C_14 
REMARK       I    between atoms: C_14  and  N_16 
REMARK    7  A    between atoms: N_16  and  C_17 
ROOT
ATOM      1  N   UNL d   1       7.279  -0.943   2.327  0.00  0.00    -0.380 N 
ATOM      2  H   UNL d   1       8.044  -0.865   2.998  0.00  0.00     0.160 HD
ENDROOT
BRANCH   1   3
ATOM      3  C   UNL d   1       6.819  -2.190   1.929  0.00  0.00     0.045 A 
ATOM      4  C   UNL d   1       7.386  -3.317   2.571  0.00  0.00     0.030 A 
ATOM      5  C   UNL d   1       6.996  -4.622   2.254  0.00  0.00     0.002 A 
ATOM      6  C   UNL d   1       6.027  -4.835   1.285  0.00  0.00     0.002 A 
ATOM      7  C   UNL d   1       5.477  -3.751   0.612  0.00  0.00     0.021 A 
ATOM      8  C   UNL d   1       5.819  -2.434   0.947  0.00  0.00     0.027 A 
BRANCH   8   9
ATOM      9  S   UNL d   1       5.000  -1.194  -0.070  0.00  0.00    -0.118 SA
BRANCH   9  10
ATOM     10  C   UNL d   1       3.247  -1.321   0.453  0.00  0.00     0.182 C 
BRANCH  10  11
ATOM     11  C   UNL d   1       2.489  -0.080  -0.024  0.00  0.00     0.225 C 
ATOM     12  N   UNL d   1       1.127  -0.152   0.008  0.00  0.00    -0.369 N 
ATOM     13  H   UNL d   1       0.620   0.660  -0.325  0.00  0.00     0.159 HD
ATOM     14  H   UNL d   1       0.600  -0.940   0.358  0.00  0.00     0.159 HD
ATOM     15  O   UNL d   1       3.011   0.972  -0.411  0.00  0.00    -0.273 OA
ENDBRANCH  10  11
ENDBRANCH   9  10
ENDBRANCH   8   9
ENDBRANCH   1   3
BRANCH   1  16
ATOM     16  C   UNL d   1       6.854   0.318   1.733  0.00  0.00     0.223 C 
BRANCH  16  17
ATOM     17  C   UNL d   1       7.493   1.508   2.421  0.00  0.00     0.239 C 
ATOM     18  O   UNL d   1       8.177   1.367   3.437  0.00  0.00    -0.271 OA
ATOM     19  N   UNL d   1       7.190   2.736   1.835  0.00  0.00    -0.324 N 
ATOM     20  H   UNL d   1       6.362   2.812   1.252  0.00  0.00     0.169 HD
BRANCH  19  21
ATOM     21  C   UNL d   1       7.870   3.919   2.204  0.00  0.00     0.056 A 
ATOM     22  C   UNL d   1       7.137   5.109   2.363  0.00  0.00     0.033 A 
ATOM     23  C   UNL d   1       7.801   6.307   2.664  0.00  0.00     0.026 A 
ATOM     24  C   UNL d   1       9.182   6.308   2.855  0.00  0.00     0.035 A 
ATOM     25 CL   UNL d   1      10.000   7.755   3.294  0.00  0.00    -0.084 Cl
ATOM     26  C   UNL d   1       9.916   5.142   2.693  0.00  0.00     0.050 A 
ATOM     27  C   UNL d   1       9.272   3.957   2.350  0.00  0.00     0.062 A 
ATOM     28 CL   UNL d   1      10.324   2.638   1.939  0.00  0.00    -0.082 Cl
ENDBRANCH  19  21
ENDBRANCH  16  17
ENDBRANCH   1  16
TORSDOF 7
