@<TRIPOS>MOLECULE
*****
 60 62 0 0 0
SMALL
GASTEIGER

@<TRIPOS>ATOM
      1 C           0.8491   -0.0423    0.0076 C.3     1  UNL1       -0.0652
      2 C           2.3590   -0.1263    0.1045 C.3     1  UNL1       -0.0545
      3 C           2.8664    0.6556    1.3182 C.3     1  UNL1       -0.0377
      4 C           4.3824    0.4768    1.5146 C.3     1  UNL1        0.0092
      5 N           4.8858    1.3906    2.5630 N.pl3   1  UNL1       -0.3424
      6 C           6.2218    1.8449    2.5566 C.ar    1  UNL1        0.0488
      7 C           6.8760    1.8369    3.8084 C.ar    1  UNL1       -0.0372
      8 C           8.2235    2.1969    3.9841 C.ar    1  UNL1       -0.0335
      9 C           8.9922    2.4892    2.8724 C.ar    1  UNL1        0.1069
     10 S          10.7692    2.5992    3.0376 S.O2    1  UNL1        0.0560
     11 N          10.9514    3.9627    3.9783 N.3     1  UNL1       -0.2035
     12 O          11.2249    1.4815    3.8321 O.2     1  UNL1       -0.1533
     13 O          11.3471    2.9166    1.7513 O.2     1  UNL1       -0.1533
     14 C           8.3405    2.6512    1.6459 C.ar    1  UNL1       -0.0123
     15 C           6.9258    2.4447    1.4982 C.ar    1  UNL1        0.0566
     16 N           6.3700    2.7672    0.2143 N.am    1  UNL1       -0.2799
     17 C           5.0855    2.6518   -0.2349 C.2     1  UNL1        0.2501
     18 O           4.1690    3.1335    0.4337 O.2     1  UNL1       -0.2698
     19 C           4.7795    1.9987   -1.6207 C.ar    1  UNL1        0.0593
     20 C           3.4496    2.3537   -1.9920 C.ar    1  UNL1       -0.0478
     21 C           2.8435    1.9501   -3.1767 C.ar    1  UNL1       -0.0609
     22 C           3.5843    1.2362   -4.0936 C.ar    1  UNL1       -0.0599
     23 C           4.8647    0.7896   -3.7515 C.ar    1  UNL1       -0.0386
     24 C           5.4851    1.1022   -2.5137 C.ar    1  UNL1        0.0601
     25 N           6.7028    0.2790   -2.3332 N.pl3   1  UNL1       -0.2155
     26 S           7.6424    0.5721   -1.0255 S.O2    1  UNL1        0.0724
     27 O           7.9652    1.9799   -1.2515 O.2     1  UNL1       -0.1500
     28 O           6.9571    0.0059    0.0978 O.2     1  UNL1       -0.1500
     29 C           9.2262   -0.1137   -0.9441 C.ar    1  UNL1        0.1087
     30 C           9.3636   -1.4772   -0.7669 C.ar    1  UNL1       -0.0324
     31 C          10.6237   -1.9517   -0.4322 C.ar    1  UNL1       -0.0246
     32 C          11.7036   -1.0689   -0.2982 C.ar    1  UNL1        0.1235
     33 F          12.9324   -1.5607   -0.1197 F       1  UNL1       -0.2055
     34 C          11.5420    0.3019   -0.3777 C.ar    1  UNL1       -0.0246
     35 C          10.2899    0.7801   -0.6888 C.ar    1  UNL1       -0.0324
     36 H           0.4880   -0.6415   -0.8328 H       1  UNL1        0.0230
     37 H           0.5181    0.9914   -0.1454 H       1  UNL1        0.0230
     38 H           0.3982   -0.4184    0.9289 H       1  UNL1        0.0230
     39 H           2.7740    0.2591   -0.8261 H       1  UNL1        0.0263
     40 H           2.6883   -1.1664    0.1617 H       1  UNL1        0.0263
     41 H           2.3485    0.3445    2.2284 H       1  UNL1        0.0280
     42 H           2.5852    1.7069    1.1766 H       1  UNL1        0.0280
     43 H           4.8320    0.6004    0.5399 H       1  UNL1        0.0461
     44 H           4.6265   -0.5596    1.7648 H       1  UNL1        0.0461
     45 H           4.3003    2.2256    2.6014 H       1  UNL1        0.1461
     46 H           6.3141    1.5036    4.6769 H       1  UNL1        0.0637
     47 H           8.6562    2.2105    4.9797 H       1  UNL1        0.0638
     48 H          10.7294    3.8585    4.9634 H       1  UNL1        0.1442
     49 H          10.7992    4.8483    3.5076 H       1  UNL1        0.1442
     50 H           8.9495    2.9362    0.7925 H       1  UNL1        0.0656
     51 H           7.0528    2.8922   -0.5269 H       1  UNL1        0.1552
     52 H           2.8235    2.9252   -1.3037 H       1  UNL1        0.0626
     53 H           1.8027    2.2044   -3.3646 H       1  UNL1        0.0618
     54 H           3.1555    1.0086   -5.0659 H       1  UNL1        0.0618
     55 H           5.3744    0.1601   -4.4798 H       1  UNL1        0.0637
     56 H           7.1966   -0.0344   -3.1643 H       1  UNL1        0.1737
     57 H           8.4994   -2.1335   -0.8313 H       1  UNL1        0.0638
     58 H          10.7731   -3.0095   -0.2572 H       1  UNL1        0.0647
     59 H          12.3575    0.9948   -0.1915 H       1  UNL1        0.0647
     60 H          10.1544    1.8619   -0.6793 H       1  UNL1        0.0638
@<TRIPOS>BOND
     1     1     2    1
     2     2     3    1
     3     3     4    1
     4     4     5    1
     5     5     6    1
     6     6     7   ar
     7     7     8   ar
     8     8     9   ar
     9     9    10    1
    10    10    11    1
    11    10    12    2
    12    10    13    2
    13     9    14   ar
    14    14    15   ar
    15     6    15   ar
    16    15    16    1
    17    16    17   am
    18    17    18    2
    19    17    19    1
    20    19    20   ar
    21    20    21   ar
    22    21    22   ar
    23    22    23   ar
    24    23    24   ar
    25    19    24   ar
    26    24    25    1
    27    25    26    1
    28    26    27    2
    29    26    28    2
    30    26    29    1
    31    29    30   ar
    32    30    31   ar
    33    31    32   ar
    34    32    33    1
    35    32    34   ar
    36    34    35   ar
    37    29    35   ar
    38     1    36    1
    39     1    37    1
    40     1    38    1
    41     2    39    1
    42     2    40    1
    43     3    41    1
    44     3    42    1
    45     4    43    1
    46     4    44    1
    47     5    45    1
    48     7    46    1
    49     8    47    1
    50    11    48    1
    51    11    49    1
    52    14    50    1
    53    16    51    1
    54    20    52    1
    55    21    53    1
    56    22    54    1
    57    23    55    1
    58    25    56    1
    59    30    57    1
    60    31    58    1
    61    34    59    1
    62    35    60    1
