@<TRIPOS>MOLECULE
*****
 44 45 0 0 0
SMALL
GASTEIGER

@<TRIPOS>ATOM
      1 C           1.1860   -0.0736   -0.0749 C.3     1  UNL1        0.0820
      2 O           2.6235   -0.0726   -0.1174 O.3     1  UNL1       -0.4644
      3 C           3.2112   -1.2576   -0.4242 C.2     1  UNL1        0.3404
      4 O           2.6182   -2.2841   -0.7445 O.2     1  UNL1       -0.2449
      5 C           4.7017   -1.1716   -0.3912 C.ar    1  UNL1        0.0790
      6 C           5.4752   -1.7938   -1.4284 C.ar    1  UNL1       -0.0251
      7 C           6.8936   -1.7610   -1.4135 C.ar    1  UNL1        0.0343
      8 N           7.7001   -2.3712   -2.4438 N.am    1  UNL1       -0.2840
      9 C           9.1134   -2.3648   -2.4830 C.2     1  UNL1        0.2373
     10 O           9.8415   -1.8654   -1.6191 O.2     1  UNL1       -0.2734
     11 C           9.8287   -3.0365   -3.6955 C.3     1  UNL1        0.0983
     12 C           9.3831   -2.3723   -4.9927 C.3     1  UNL1       -0.0380
     13 N          11.3144   -2.9220   -3.5400 N.am    1  UNL1       -0.2881
     14 C          12.1799   -3.5008   -4.4410 C.2     1  UNL1        0.3045
     15 O          11.7471   -4.1448   -5.3932 O.2     1  UNL1       -0.2525
     16 N          13.5296   -3.3066   -4.1949 N.am    1  UNL1       -0.2695
     17 C          14.5257   -3.8062   -5.0879 C.ar    1  UNL1        0.0348
     18 C          15.6860   -4.4292   -4.6106 C.ar    1  UNL1       -0.0404
     19 C          16.6702   -4.8841   -5.5079 C.ar    1  UNL1       -0.0600
     20 C          16.4922   -4.7437   -6.8841 C.ar    1  UNL1       -0.0616
     21 C          15.3500   -4.1129   -7.3643 C.ar    1  UNL1       -0.0600
     22 C          14.3775   -3.6500   -6.4718 C.ar    1  UNL1       -0.0404
     23 C           7.4912   -1.1008   -0.3400 C.ar    1  UNL1       -0.0391
     24 C           6.7513   -0.5179    0.6883 C.ar    1  UNL1       -0.0408
     25 C           5.3619   -0.5557    0.6789 C.ar    1  UNL1        0.0550
     26 CL          4.5781    0.1158    2.0644 Cl      1  UNL1       -0.0827
     27 H           0.8433    0.9275    0.2123 H       1  UNL1        0.0661
     28 H           0.8124   -0.7815    0.6733 H       1  UNL1        0.0661
     29 H           0.7729   -0.3019   -1.0619 H       1  UNL1        0.0661
     30 H           4.9361   -2.2977   -2.2305 H       1  UNL1        0.0645
     31 H           7.1961   -2.8382   -3.1918 H       1  UNL1        0.1549
     32 H           9.5871   -4.1058   -3.6925 H       1  UNL1        0.0592
     33 H           9.6271   -1.3047   -4.9778 H       1  UNL1        0.0252
     34 H           8.3076   -2.4790   -5.1502 H       1  UNL1        0.0252
     35 H           9.8784   -2.8049   -5.8661 H       1  UNL1        0.0252
     36 H          11.6467   -2.4334   -2.7153 H       1  UNL1        0.1510
     37 H          13.8277   -3.0385   -3.2684 H       1  UNL1        0.1564
     38 H          15.8167   -4.6420   -3.5534 H       1  UNL1        0.0636
     39 H          17.5776   -5.3581   -5.1386 H       1  UNL1        0.0618
     40 H          17.2341   -5.1284   -7.5808 H       1  UNL1        0.0618
     41 H          15.2110   -3.9718   -8.4330 H       1  UNL1        0.0618
     42 H          13.5056   -3.1407   -6.8730 H       1  UNL1        0.0636
     43 H           8.5641   -1.0137   -0.2360 H       1  UNL1        0.0636
     44 H           7.2969   -0.0475    1.5032 H       1  UNL1        0.0633
@<TRIPOS>BOND
     1     1     2    1
     2     2     3    1
     3     3     4    2
     4     3     5    1
     5     5     6   ar
     6     6     7   ar
     7     7     8    1
     8     8     9   am
     9     9    10    2
    10     9    11    1
    11    11    12    1
    12    11    13    1
    13    13    14   am
    14    14    15    2
    15    14    16   am
    16    16    17    1
    17    17    18   ar
    18    18    19   ar
    19    19    20   ar
    20    20    21   ar
    21    21    22   ar
    22    17    22   ar
    23     7    23   ar
    24    23    24   ar
    25    24    25   ar
    26     5    25   ar
    27    25    26    1
    28     1    27    1
    29     1    28    1
    30     1    29    1
    31     6    30    1
    32     8    31    1
    33    11    32    1
    34    12    33    1
    35    12    34    1
    36    12    35    1
    37    13    36    1
    38    16    37    1
    39    18    38    1
    40    19    39    1
    41    20    40    1
    42    21    41    1
    43    22    42    1
    44    23    43    1
    45    24    44    1
