@<TRIPOS>MOLECULE
*****
 65 68 0 0 0
SMALL
GASTEIGER

@<TRIPOS>ATOM
      1 C           0.7186   -0.4507   -0.1586 C.3     1  UNL1       -0.0307
      2 C           2.2267   -0.5929   -0.2564 C.3     1  UNL1        0.0870
      3 O           2.9095   -1.2290    0.8315 O.3     1  UNL1       -0.4884
      4 C           4.2984   -1.1550    0.9530 C.ar    1  UNL1        0.1663
      5 C           4.9044   -2.4223    1.1974 C.ar    1  UNL1       -0.0039
      6 C           6.2553   -2.5477    1.6112 C.ar    1  UNL1        0.0440
      7 C           6.8416   -3.8770    2.0352 C.2     1  UNL1        0.2468
      8 O           6.2090   -4.9166    1.8738 O.2     1  UNL1       -0.2700
      9 N           8.1741   -3.9202    2.5077 N.am    1  UNL1       -0.2975
     10 C           9.0477   -4.9314    1.9693 C.3     1  UNL1        0.0157
     11 C           9.4940   -5.9495    3.0355 C.3     1  UNL1       -0.0214
     12 C          10.2298   -5.2845    4.2591 C.3     1  UNL1        0.0900
     13 C          11.6137   -4.6797    3.8920 C.3     1  UNL1        0.3482
     14 N          12.0923   -5.1695    2.5646 N.2     1  UNL1       -0.1756
     15 C          13.2389   -4.6985    2.5206 C.ar    1  UNL1        0.2774
     16 C          13.7008   -3.2426    2.4709 C.ar    1  UNL1        0.0162
     17 C          15.0320   -3.0881    2.4597 C.ar    1  UNL1       -0.0551
     18 C          15.8468   -4.2766    2.5375 C.ar    1  UNL1       -0.0551
     19 C          15.3998   -5.3283    3.2815 C.ar    1  UNL1        0.0162
     20 C          13.9512   -5.2186    3.7241 C.ar    1  UNL1        0.2774
     21 N          13.0467   -4.9581    4.6492 N.2     1  UNL1       -0.1756
     22 C           9.1871   -4.2062    4.7763 C.3     1  UNL1       -0.0214
     23 C           8.6430   -3.2220    3.7013 C.3     1  UNL1        0.0157
     24 C           7.0555   -1.4073    1.6145 C.ar    1  UNL1       -0.0039
     25 C           6.4996   -0.1423    1.4217 C.ar    1  UNL1        0.1663
     26 O           7.4182    0.8851    1.6260 O.3     1  UNL1       -0.4884
     27 C           6.9073    2.2219    1.5371 C.3     1  UNL1        0.0870
     28 C           7.9416    3.2759    1.8058 C.3     1  UNL1       -0.0307
     29 C           5.1138    0.0000    1.1287 C.ar    1  UNL1        0.2038
     30 O           4.7537    1.3222    1.1790 O.3     1  UNL1       -0.4855
     31 C           3.5477    1.6993    0.6454 C.3     1  UNL1        0.0871
     32 C           3.1278    3.1246    0.4592 C.3     1  UNL1       -0.0307
     33 H           0.4034    0.3565   -0.8471 H       1  UNL1        0.0262
     34 H           0.4367   -0.0981    0.8443 H       1  UNL1        0.0262
     35 H           0.1847   -1.3574   -0.4066 H       1  UNL1        0.0262
     36 H           2.2865    0.4472   -0.1469 H       1  UNL1        0.0694
     37 H           2.6737   -0.7745   -1.2368 H       1  UNL1        0.0694
     38 H           4.2937   -3.3216    1.0922 H       1  UNL1        0.0663
     39 H           9.9064   -4.3722    1.5787 H       1  UNL1        0.0465
     40 H           8.5956   -5.4305    1.1069 H       1  UNL1        0.0465
     41 H          10.1287   -6.7030    2.5601 H       1  UNL1        0.0288
     42 H           8.6170   -6.5014    3.3913 H       1  UNL1        0.0288
     43 H          10.3574   -6.0280    5.0539 H       1  UNL1        0.0439
     44 H          11.5077   -3.5944    3.7835 H       1  UNL1        0.1930
     45 H          12.0250   -6.2211    2.6207 H       1  UNL1        0.4527
     46 H          13.1417   -2.4404    2.9568 H       1  UNL1        0.0685
     47 H          15.5146   -2.1142    2.5490 H       1  UNL1        0.0620
     48 H          16.7235   -4.2895    1.8765 H       1  UNL1        0.0620
     49 H          15.8191   -6.2800    2.9204 H       1  UNL1        0.0685
     50 H          13.2479   -4.3079    5.4309 H       1  UNL1        0.4527
     51 H           9.6037   -3.6333    5.6120 H       1  UNL1        0.0288
     52 H           8.3149   -4.7465    5.1767 H       1  UNL1        0.0288
     53 H           9.4561   -2.5619    3.3816 H       1  UNL1        0.0465
     54 H           7.8416   -2.6001    4.1162 H       1  UNL1        0.0465
     55 H           8.1185   -1.4681    1.8071 H       1  UNL1        0.0663
     56 H           6.1438    2.3827    2.3105 H       1  UNL1        0.0694
     57 H           6.5404    2.4036    0.5180 H       1  UNL1        0.0694
     58 H           8.3247    3.1741    2.8224 H       1  UNL1        0.0262
     59 H           7.4724    4.2613    1.6982 H       1  UNL1        0.0262
     60 H           8.7634    3.1855    1.0963 H       1  UNL1        0.0262
     61 H           2.8213    1.2858    1.3526 H       1  UNL1        0.0694
     62 H           3.6332    1.3662   -0.3946 H       1  UNL1        0.0694
     63 H           3.2486    3.7088    1.3659 H       1  UNL1        0.0262
     64 H           2.0663    3.1000    0.1692 H       1  UNL1        0.0262
     65 H           3.6792    3.5761   -0.3682 H       1  UNL1        0.0262
@<TRIPOS>UNITY_ATOM_ATTR
14 1
charge 1
21 1
charge 1
@<TRIPOS>BOND
     1     1     2    1
     2     2     3    1
     3     3     4    1
     4     4     5   ar
     5     5     6   ar
     6     6     7    1
     7     7     8    2
     8     7     9   am
     9     9    10    1
    10    10    11    1
    11    11    12    1
    12    12    13    1
    13    13    14    1
    14    14    15    2
    15    15    16   ar
    16    16    17   ar
    17    17    18   ar
    18    18    19   ar
    19    19    20   ar
    20    15    20   ar
    21    20    21    2
    22    13    21    1
    23    12    22    1
    24    22    23    1
    25     9    23    1
    26     6    24   ar
    27    24    25   ar
    28    25    26    1
    29    26    27    1
    30    27    28    1
    31    25    29   ar
    32     4    29   ar
    33    29    30    1
    34    30    31    1
    35    31    32    1
    36     1    33    1
    37     1    34    1
    38     1    35    1
    39     2    36    1
    40     2    37    1
    41     5    38    1
    42    10    39    1
    43    10    40    1
    44    11    41    1
    45    11    42    1
    46    12    43    1
    47    13    44    1
    48    14    45    1
    49    16    46    1
    50    17    47    1
    51    18    48    1
    52    19    49    1
    53    21    50    1
    54    22    51    1
    55    22    52    1
    56    23    53    1
    57    23    54    1
    58    24    55    1
    59    27    56    1
    60    27    57    1
    61    28    58    1
    62    28    59    1
    63    28    60    1
    64    31    61    1
    65    31    62    1
    66    32    63    1
    67    32    64    1
    68    32    65    1
