@<TRIPOS>MOLECULE
*****
 27 28 0 0 0
SMALL
GASTEIGER

@<TRIPOS>ATOM
      1 O           0.9647    0.1784    0.2094 O.2     1  UNL1       -0.2698
      2 C           2.1830    0.0184    0.1009 C.2     1  UNL1        0.2497
      3 N           2.8632   -1.1686    0.3334 N.am    1  UNL1       -0.2785
      4 C           2.1967   -2.4066    0.4914 C.ar    1  UNL1        0.0756
      5 C           2.6240   -3.3031    1.4777 C.ar    1  UNL1       -0.0369
      6 C           1.9320   -4.5053    1.6793 C.ar    1  UNL1       -0.0598
      7 C           0.8414   -4.8338    0.8716 C.ar    1  UNL1       -0.0582
      8 C           0.4422   -3.9688   -0.1467 C.ar    1  UNL1       -0.0183
      9 C           1.1281   -2.7709   -0.3402 C.ar    1  UNL1        0.1380
     10 O           0.8419   -2.0020   -1.4375 O.3     1  UNL1       -0.5049
     11 C           2.9917    1.2381   -0.1480 C.ar    1  UNL1        0.0554
     12 C           2.5695    2.4124    0.5059 C.ar    1  UNL1       -0.0468
     13 C           3.2349    3.6231    0.3054 C.ar    1  UNL1       -0.0426
     14 C           4.3184    3.6713   -0.5649 C.ar    1  UNL1        0.0424
     15 CL          5.1447    5.1597   -0.8123 Cl      1  UNL1       -0.0835
     16 C           4.7358    2.5230   -1.2381 C.ar    1  UNL1       -0.0243
     17 C           4.0734    1.3038   -1.0333 C.ar    1  UNL1        0.0544
     18 CL          4.6268   -0.0528   -1.9464 Cl      1  UNL1       -0.0827
     19 H           3.8628   -1.1544    0.4859 H       1  UNL1        0.1552
     20 H           3.4524   -3.0601    2.1371 H       1  UNL1        0.0637
     21 H           2.2337   -5.1849    2.4739 H       1  UNL1        0.0618
     22 H           0.3143   -5.7731    1.0225 H       1  UNL1        0.0619
     23 H          -0.3780   -4.2510   -0.7984 H       1  UNL1        0.0655
     24 H          -0.0672   -2.1788   -1.7198 H       1  UNL1        0.2922
     25 H           1.7064    2.3843    1.1712 H       1  UNL1        0.0626
     26 H           2.8974    4.5183    0.8228 H       1  UNL1        0.0632
     27 H           5.5710    2.5814   -1.9322 H       1  UNL1        0.0647
@<TRIPOS>BOND
     1     1     2    2
     2     2     3   am
     3     3     4    1
     4     4     5   ar
     5     5     6   ar
     6     6     7   ar
     7     7     8   ar
     8     8     9   ar
     9     4     9   ar
    10     9    10    1
    11     2    11    1
    12    11    12   ar
    13    12    13   ar
    14    13    14   ar
    15    14    15    1
    16    14    16   ar
    17    16    17   ar
    18    11    17   ar
    19    17    18    1
    20     3    19    1
    21     5    20    1
    22     6    21    1
    23     7    22    1
    24     8    23    1
    25    10    24    1
    26    12    25    1
    27    13    26    1
    28    16    27    1
