@<TRIPOS>MOLECULE
*****
 39 40 0 0 0
SMALL
GASTEIGER

@<TRIPOS>ATOM
      1 C           2.4463   -0.4133   -0.0060 C.3     1  UNL1       -0.0380
      2 C           0.9875   -0.1317   -0.0039 C.ar    1  UNL1       -0.0292
      3 C           0.1889   -1.2818    0.0083 C.ar    1  UNL1       -0.0571
      4 C          -1.1875   -1.1949    0.0023 C.ar    1  UNL1       -0.0614
      5 C          -1.7837    0.0592   -0.0041 C.ar    1  UNL1       -0.0600
      6 C          -0.9933    1.2279   -0.0095 C.ar    1  UNL1       -0.0402
      7 C           0.4195    1.1554   -0.0262 C.ar    1  UNL1        0.0364
      8 N           1.1690    2.3812   -0.0764 N.am    1  UNL1       -0.2837
      9 C           2.5550    2.5629   -0.1011 C.2     1  UNL1        0.2373
     10 O           3.4463    1.7151   -0.1379 O.2     1  UNL1       -0.2734
     11 C           3.1109    3.9772   -0.0751 C.3     1  UNL1        0.0972
     12 C           2.4219    4.6808    1.0587 C.3     1  UNL1       -0.0381
     13 N           4.5994    3.7833    0.1316 N.am    1  UNL1       -0.3003
     14 C           5.6360    4.6955    0.0923 C.2     1  UNL1        0.2447
     15 O           6.6051    4.5243   -0.6153 O.2     1  UNL1       -0.2702
     16 C           5.5738    5.8461    1.0384 C.ar    1  UNL1        0.0368
     17 C           6.3677    6.9736    0.8871 C.ar    1  UNL1       -0.0483
     18 C           6.1778    8.0622    1.7543 C.ar    1  UNL1       -0.0427
     19 C           5.1245    8.0630    2.6732 C.ar    1  UNL1        0.0410
     20 CL          4.8398    9.4039    3.7057 Cl      1  UNL1       -0.0835
     21 C           4.3672    6.9246    2.8442 C.ar    1  UNL1       -0.0427
     22 C           4.7576    5.7831    2.1612 C.ar    1  UNL1       -0.0483
     23 H           2.7297   -1.4623    0.0061 H       1  UNL1        0.0278
     24 H           2.8607    0.0081    0.9179 H       1  UNL1        0.0278
     25 H           2.8378   -0.0364   -0.9572 H       1  UNL1        0.0278
     26 H           0.6737   -2.2554    0.0124 H       1  UNL1        0.0621
     27 H          -1.7709   -2.1102    0.0008 H       1  UNL1        0.0618
     28 H          -2.8702    0.1150   -0.0128 H       1  UNL1        0.0618
     29 H          -1.5251    2.1785   -0.0095 H       1  UNL1        0.0636
     30 H           0.5911    3.2149   -0.0746 H       1  UNL1        0.1549
     31 H           2.9636    4.4479   -1.0507 H       1  UNL1        0.0592
     32 H           2.6803    4.1698    1.9947 H       1  UNL1        0.0252
     33 H           1.3356    4.6793    1.0402 H       1  UNL1        0.0252
     34 H           2.7087    5.7267    1.0283 H       1  UNL1        0.0252
     35 H           4.9007    2.8724   -0.2276 H       1  UNL1        0.1498
     36 H           7.1607    6.9856    0.1439 H       1  UNL1        0.0625
     37 H           6.8581    8.9052    1.7143 H       1  UNL1        0.0632
     38 H           3.5178    6.8857    3.5211 H       1  UNL1        0.0632
     39 H           4.3701    4.8274    2.4826 H       1  UNL1        0.0625
@<TRIPOS>BOND
     1     1     2    1
     2     2     3   ar
     3     3     4   ar
     4     4     5   ar
     5     5     6   ar
     6     6     7   ar
     7     2     7   ar
     8     7     8    1
     9     8     9   am
    10     9    10    2
    11     9    11    1
    12    11    12    1
    13    11    13    1
    14    13    14   am
    15    14    15    2
    16    14    16    1
    17    16    17   ar
    18    17    18   ar
    19    18    19   ar
    20    19    20    1
    21    19    21   ar
    22    21    22   ar
    23    16    22   ar
    24     1    23    1
    25     1    24    1
    26     1    25    1
    27     3    26    1
    28     4    27    1
    29     5    28    1
    30     6    29    1
    31     8    30    1
    32    11    31    1
    33    12    32    1
    34    12    33    1
    35    12    34    1
    36    13    35    1
    37    17    36    1
    38    18    37    1
    39    21    38    1
    40    22    39    1
