REMARK  2 active torsions:
REMARK  status: ('A' for Active; 'I' for Inactive)
REMARK    1  A    between atoms: C_5  and  C_6 
REMARK    2  A    between atoms: C_14  and  C_15 
REMARK       I    between atoms: C_15  and  N_17 
REMARK       I    between atoms: N_17  and  C_18 
REMARK       I    between atoms: C_18  and  N_20 
ROOT
ATOM      1  C   UNL d   1       2.250   0.068   0.002  0.00  0.00     0.080 C 
ATOM      2  C   UNL d   1       0.805  -0.200   0.009  0.00  0.00     0.093 A 
ATOM      3  O   UNL d   1       0.020   0.909   0.010  0.00  0.00    -0.217 OA
ATOM      4  N   UNL d   1      -1.302   0.545   0.025  0.00  0.00    -0.127 NA
ATOM      5  C   UNL d   1      -1.325  -0.793   0.016  0.00  0.00     0.117 A 
ATOM      6  C   UNL d   1       0.018  -1.334   0.014  0.00  0.00     0.096 A 
ENDROOT
BRANCH   6   7
ATOM      7  C   UNL d   1       0.394  -2.737   0.000  0.00  0.00     0.274 C 
ATOM      8  O   UNL d   1      -0.451  -3.627  -0.071  0.00  0.00    -0.267 OA
ATOM      9  N   UNL d   1       1.773  -3.140   0.045  0.00  0.00    -0.156 N 
ATOM     10  C   UNL d   1       2.197  -4.444  -0.035  0.00  0.00     0.676 C 
ATOM     11  H   UNL d   1       2.485  -2.431   0.040  0.00  0.00     0.187 HD
ATOM     12  N   UNL d   1       1.284  -5.427  -0.146  0.00  0.00    -0.234 N 
ATOM     13  N   UNL d   1       3.518  -4.809   0.004  0.00  0.00    -0.218 N 
ATOM     14  H   UNL d   1       0.290  -5.190  -0.097  0.00  0.00     0.174 HD
ATOM     15  H   UNL d   1       1.538  -6.402  -0.076  0.00  0.00     0.174 HD
ATOM     16  C   UNL d   1       4.610  -4.160   0.759  0.00  0.00     0.141 C 
ATOM     17  C   UNL d   1       4.128  -5.851  -0.895  0.00  0.00     0.141 C 
ATOM     18  C   UNL d   1       5.815  -4.259  -0.160  0.00  0.00     0.022 C 
ATOM     19  C   UNL d   1       5.650  -5.623  -0.826  0.00  0.00     0.022 C 
ENDBRANCH   6   7
BRANCH   5  20
ATOM     20  C   UNL d   1      -2.596  -1.512   0.027  0.00  0.00     0.056 A 
ATOM     21  C   UNL d   1      -2.859  -2.397   1.081  0.00  0.00     0.130 A 
ATOM     22  F   UNL d   1      -1.980  -2.517   2.089  0.00  0.00    -0.205 F 
ATOM     23  C   UNL d   1      -3.988  -3.211   1.089  0.00  0.00     0.043 A 
ATOM     24  C   UNL d   1      -4.904  -3.128   0.045  0.00  0.00     0.005 A 
ATOM     25  C   UNL d   1      -4.688  -2.220  -0.993  0.00  0.00     0.025 A 
ATOM     26  C   UNL d   1      -3.542  -1.413  -1.005  0.00  0.00     0.049 A 
ATOM     27 CL   UNL d   1      -3.330  -0.369  -2.368  0.00  0.00    -0.083 Cl
ENDBRANCH   5  20
TORSDOF 2
