@<TRIPOS>MOLECULE
*****
 50 52 0 0 0
SMALL
GASTEIGER

@<TRIPOS>ATOM
      1 N           6.4943    3.8389   -2.1077 N.3     1  UNL1       -0.2544
      2 N           6.1313    2.8186   -1.1790 N.am    1  UNL1       -0.2525
      3 C           7.0626    2.2960   -0.2506 C.2     1  UNL1        0.2402
      4 O           8.1419    2.8403   -0.0175 O.2     1  UNL1       -0.2731
      5 C           6.5406    1.0060    0.4625 C.3     1  UNL1        0.0751
      6 N           7.3972    0.5261    1.5798 N.3     1  UNL1       -0.2976
      7 C           6.7082   -0.3329    2.5897 C.3     1  UNL1        0.0606
      8 C           5.1628   -0.3679    2.7003 C.ar    1  UNL1       -0.0260
      9 C           4.3904    0.4572    3.5674 C.ar    1  UNL1       -0.0568
     10 C           3.0052    0.4720    3.5739 C.ar    1  UNL1       -0.0614
     11 C           2.3433   -0.4488    2.7928 C.ar    1  UNL1       -0.0617
     12 C           3.0708   -1.3481    2.0067 C.ar    1  UNL1       -0.0614
     13 C           4.4641   -1.2935    1.9355 C.ar    1  UNL1       -0.0568
     14 C           7.2934   -0.2430    4.0102 C.ar    1  UNL1       -0.0038
     15 C           7.4071   -1.5116    4.6665 C.ar    1  UNL1       -0.0410
     16 C           7.6502   -1.6019    6.0304 C.ar    1  UNL1        0.0183
     17 BR          7.4931   -3.2642    6.9212 Br      1  UNL1       -0.0503
     18 C           7.9099   -0.4504    6.7533 C.ar    1  UNL1       -0.0460
     19 C           7.8599    0.8016    6.1194 C.ar    1  UNL1       -0.0391
     20 C           7.5248    0.9480    4.7578 C.ar    1  UNL1        0.0387
     21 N           7.4673    2.3154    4.2960 N.am    1  UNL1       -0.2812
     22 C           6.7161    2.8191    3.2628 C.2     1  UNL1        0.2497
     23 O           5.7792    2.2209    2.7508 O.2     1  UNL1       -0.2698
     24 C           6.8851    4.0777    2.5510 C.ar    1  UNL1        0.0553
     25 C           5.8416    4.3651    1.6079 C.ar    1  UNL1       -0.0482
     26 C           5.9428    5.3855    0.6862 C.ar    1  UNL1       -0.0610
     27 C           7.0800    6.1662    0.7129 C.ar    1  UNL1       -0.0603
     28 C           8.1238    5.8790    1.6099 C.ar    1  UNL1       -0.0427
     29 C           8.0479    4.8182    2.5171 C.ar    1  UNL1        0.0531
     30 CL          9.4433    4.4301    3.4494 Cl      1  UNL1       -0.0828
     31 H           5.7320    4.5099   -2.2418 H       1  UNL1        0.1405
     32 H           7.2962    4.3610   -1.7299 H       1  UNL1        0.1405
     33 H           5.2055    2.4019   -1.2470 H       1  UNL1        0.1687
     34 H           6.4933    0.2172   -0.2859 H       1  UNL1        0.0520
     35 H           5.5178    1.2349    0.7725 H       1  UNL1        0.0520
     36 H           7.7482    1.3306    2.0882 H       1  UNL1        0.1233
     37 H           6.9959   -1.3292    2.2159 H       1  UNL1        0.0561
     38 H           4.8365    1.2044    4.2207 H       1  UNL1        0.0621
     39 H           2.4818    1.1952    4.1947 H       1  UNL1        0.0618
     40 H           1.2609   -0.4751    2.8135 H       1  UNL1        0.0618
     41 H           2.5472   -2.1087    1.4415 H       1  UNL1        0.0618
     42 H           5.0091   -1.9825    1.2971 H       1  UNL1        0.0621
     43 H           7.2378   -2.4339    4.1066 H       1  UNL1        0.0632
     44 H           8.1306   -0.5107    7.8158 H       1  UNL1        0.0629
     45 H           8.0111    1.6802    6.7412 H       1  UNL1        0.0636
     46 H           7.8998    3.0078    4.8962 H       1  UNL1        0.1551
     47 H           4.9995    3.6760    1.4653 H       1  UNL1        0.0625
     48 H           5.1944    5.4788   -0.0971 H       1  UNL1        0.0618
     49 H           7.1801    6.9661   -0.0110 H       1  UNL1        0.0618
     50 H           9.0351    6.4633    1.5548 H       1  UNL1        0.0632
@<TRIPOS>BOND
     1     1     2    1
     2     2     3   am
     3     3     4    2
     4     3     5    1
     5     5     6    1
     6     8     9   ar
     7     9    10   ar
     8    10    11   ar
     9    11    12   ar
    10    12    13   ar
    11     8    13   ar
    12     7    14    1
    13    14    15   ar
    14    15    16   ar
    15    16    17    1
    16    16    18   ar
    17    18    19   ar
    18    19    20   ar
    19    14    20   ar
    20    20    21    1
    21    21    22   am
    22    22    23    2
    23    22    24    1
    24    24    25   ar
    25    25    26   ar
    26    26    27   ar
    27    27    28   ar
    28    28    29   ar
    29    24    29   ar
    30    29    30    1
    31     7     8    1
    32     7     6    1
    33     1    31    1
    34     1    32    1
    35     2    33    1
    36     5    34    1
    37     5    35    1
    38     6    36    1
    39     7    37    1
    40     9    38    1
    41    10    39    1
    42    11    40    1
    43    12    41    1
    44    13    42    1
    45    15    43    1
    46    18    44    1
    47    19    45    1
    48    21    46    1
    49    25    47    1
    50    26    48    1
    51    27    49    1
    52    28    50    1
