@<TRIPOS>MOLECULE
*****
 60 63 0 0 0
SMALL
GASTEIGER

@<TRIPOS>ATOM
      1 O           0.8674    0.1862   -0.1548 O.2     1  UNL1       -0.2522
      2 C           2.0497    0.1451    0.1696 C.2     1  UNL1        0.3082
      3 N           2.5600   -0.6757    1.1347 N.am    1  UNL1       -0.2692
      4 C           1.9461   -1.7881    1.7540 C.ar    1  UNL1        0.0349
      5 C           0.9339   -2.5486    1.1514 C.ar    1  UNL1       -0.0391
      6 C           0.3558   -3.6247    1.8310 C.ar    1  UNL1       -0.0416
      7 C           0.7741   -3.9157    3.1247 C.ar    1  UNL1        0.0411
      8 CL         -0.0964   -5.0575    4.0700 Cl      1  UNL1       -0.0835
      9 C           1.8751   -3.2594    3.6705 C.ar    1  UNL1       -0.0416
     10 C           2.4995   -2.2369    2.9556 C.ar    1  UNL1       -0.0391
     11 N           2.9501    1.0510   -0.3679 N.am    1  UNL1       -0.2675
     12 C           4.3643    0.9491   -0.5502 C.ar    1  UNL1        0.0576
     13 C           5.1175    2.1624   -0.5315 C.ar    1  UNL1       -0.0174
     14 C           6.5136    2.1589   -0.7396 C.ar    1  UNL1        0.0355
     15 N           7.2678    3.3674   -0.8757 N.am    1  UNL1       -0.2814
     16 C           8.6053    3.4149   -1.2784 C.2     1  UNL1        0.2483
     17 O           9.3432    2.4499   -1.5181 O.2     1  UNL1       -0.2699
     18 C           9.2614    4.7265   -1.4523 C.ar    1  UNL1        0.0370
     19 C          10.2334    4.8575   -2.4627 C.ar    1  UNL1       -0.0496
     20 C          11.0479    5.9872   -2.5151 C.ar    1  UNL1       -0.0610
     21 C          10.8522    7.0163   -1.5976 C.ar    1  UNL1       -0.0617
     22 C           9.8796    6.8939   -0.6009 C.ar    1  UNL1       -0.0610
     23 C           9.0894    5.7447   -0.5165 C.ar    1  UNL1       -0.0496
     24 C           7.1405    0.9232   -0.8574 C.ar    1  UNL1       -0.0386
     25 C           6.4182   -0.2568   -0.9325 C.ar    1  UNL1       -0.0371
     26 C           5.0290   -0.2756   -0.8187 C.ar    1  UNL1        0.0514
     27 N           4.4445   -1.5208   -1.0892 N.pl3   1  UNL1       -0.3285
     28 C           4.3820   -2.4341    0.0468 C.3     1  UNL1        0.0122
     29 C           4.9426   -3.8114   -0.1574 C.3     1  UNL1       -0.0372
     30 C           4.0092   -4.6638   -1.0117 C.3     1  UNL1       -0.0516
     31 C           3.6612   -4.0400   -2.3648 C.3     1  UNL1       -0.0516
     32 C           2.7012   -2.8557   -2.2916 C.3     1  UNL1       -0.0372
     33 C           3.4029   -1.5178   -2.1190 C.3     1  UNL1        0.0122
     34 H           3.5237   -0.4812    1.3621 H       1  UNL1        0.1564
     35 H           0.6304   -2.3647    0.1237 H       1  UNL1        0.0636
     36 H          -0.4343   -4.2037    1.3592 H       1  UNL1        0.0633
     37 H           2.2316   -3.5113    4.6645 H       1  UNL1        0.0633
     38 H           3.3884   -1.7654    3.3663 H       1  UNL1        0.0636
     39 H           2.4889    1.7638   -0.9214 H       1  UNL1        0.1564
     40 H           4.6052    3.0985   -0.3153 H       1  UNL1        0.0655
     41 H           6.7588    4.2426   -0.8243 H       1  UNL1        0.1551
     42 H          10.3860    4.0558   -3.1856 H       1  UNL1        0.0625
     43 H          11.8504    6.0500   -3.2471 H       1  UNL1        0.0618
     44 H          11.4717    7.9086   -1.6481 H       1  UNL1        0.0618
     45 H           9.7671    7.6817    0.1391 H       1  UNL1        0.0618
     46 H           8.3994    5.6264    0.3119 H       1  UNL1        0.0625
     47 H           8.2132    0.8145   -0.9378 H       1  UNL1        0.0637
     48 H           6.9576   -1.1727   -1.1623 H       1  UNL1        0.0637
     49 H           3.3443   -2.6422    0.2312 H       1  UNL1        0.0464
     50 H           4.8427   -2.0104    0.9486 H       1  UNL1        0.0464
     51 H           4.9958   -4.2848    0.8354 H       1  UNL1        0.0280
     52 H           5.9552   -3.7657   -0.5590 H       1  UNL1        0.0280
     53 H           3.0838   -4.8767   -0.4546 H       1  UNL1        0.0266
     54 H           4.4987   -5.6283   -1.1713 H       1  UNL1        0.0266
     55 H           3.1782   -4.8130   -2.9679 H       1  UNL1        0.0266
     56 H           4.5816   -3.7409   -2.8760 H       1  UNL1        0.0266
     57 H           1.9593   -3.0075   -1.5024 H       1  UNL1        0.0280
     58 H           2.1220   -2.7930   -3.2206 H       1  UNL1        0.0280
     59 H           2.6204   -0.7771   -1.9546 H       1  UNL1        0.0464
     60 H           3.8658   -1.2273   -3.0695 H       1  UNL1        0.0464
@<TRIPOS>BOND
     1     1     2    2
     2     2     3   am
     3     3     4    1
     4     4     5   ar
     5     5     6   ar
     6     6     7   ar
     7     7     8    1
     8     7     9   ar
     9     9    10   ar
    10     4    10   ar
    11     2    11   am
    12    11    12    1
    13    12    13   ar
    14    13    14   ar
    15    14    15    1
    16    15    16   am
    17    16    17    2
    18    16    18    1
    19    18    19   ar
    20    19    20   ar
    21    20    21   ar
    22    21    22   ar
    23    22    23   ar
    24    18    23   ar
    25    14    24   ar
    26    24    25   ar
    27    25    26   ar
    28    12    26   ar
    29    26    27    1
    30    27    28    1
    31    28    29    1
    32    29    30    1
    33    30    31    1
    34    31    32    1
    35    32    33    1
    36    27    33    1
    37     3    34    1
    38     5    35    1
    39     6    36    1
    40     9    37    1
    41    10    38    1
    42    11    39    1
    43    13    40    1
    44    15    41    1
    45    19    42    1
    46    20    43    1
    47    21    44    1
    48    22    45    1
    49    23    46    1
    50    24    47    1
    51    25    48    1
    52    28    49    1
    53    28    50    1
    54    29    51    1
    55    29    52    1
    56    30    53    1
    57    30    54    1
    58    31    55    1
    59    31    56    1
    60    32    57    1
    61    32    58    1
    62    33    59    1
    63    33    60    1
