REMARK  5 active torsions:
REMARK  status: ('A' for Active; 'I' for Inactive)
REMARK    1  A    between atoms: C_2  and  C_4 
REMARK    2  A    between atoms: C_4  and  C_5 
REMARK    3  A    between atoms: C_5  and  C_6 
REMARK       I    between atoms: C_6  and  N_8 
REMARK    4  A    between atoms: N_8  and  N_9 
REMARK       I    between atoms: N_9  and  C_10 
REMARK    5  A    between atoms: C_12  and  C_10 
ROOT
ATOM      1  C   UNL d   1      11.124   0.157  -4.142  0.00  0.00     0.236 C 
ATOM      2  O   UNL d   1      10.254   0.505  -3.344  0.00  0.00    -0.272 OA
ATOM      3  N   UNL d   1      11.096  -1.088  -4.770  0.00  0.00    -0.268 N 
ATOM      4  H   UNL d   1      11.820  -1.421  -5.403  0.00  0.00     0.190 HD
ENDROOT
BRANCH   3   5
ATOM      5  N   UNL d   1      10.044  -2.000  -4.452  0.00  0.00    -0.267 N 
ATOM      6  C   UNL d   1       9.993  -3.289  -4.986  0.00  0.00     0.240 C 
ATOM      7  O   UNL d   1      10.792  -3.708  -5.824  0.00  0.00    -0.271 OA
ATOM      8  H   UNL d   1       9.363  -1.654  -3.777  0.00  0.00     0.190 HD
BRANCH   6   9
ATOM      9  C   UNL d   1       8.870  -4.150  -4.447  0.00  0.00     0.083 A 
ATOM     10  C   UNL d   1       8.085  -5.139  -5.298  0.00  0.00     0.019 A 
ATOM     11  C   UNL d   1       8.980  -5.654  -4.204  0.00  0.00    -0.005 A 
ATOM     12  C   UNL d   1       8.403  -6.245  -2.951  0.00  0.00     0.011 C 
ENDBRANCH   6   9
ENDBRANCH   3   5
BRANCH   1  13
ATOM     13  C   UNL d   1      12.320   1.045  -4.504  0.00  0.00     0.105 C 
BRANCH  13  14
ATOM     14  C   UNL d   1      12.302   2.409  -3.780  0.00  0.00     0.013 C 
BRANCH  14  15
ATOM     15  C   UNL d   1      13.502   3.321  -4.118  0.00  0.00    -0.022 C 
ATOM     16  C   UNL d   1      13.382   4.664  -3.386  0.00  0.00     0.009 C 
ATOM     17  C   UNL d   1      14.830   2.667  -3.739  0.00  0.00     0.009 C 
ENDBRANCH  14  15
ENDBRANCH  13  14
ENDBRANCH   1  13
TORSDOF 5
