@<TRIPOS>MOLECULE
*****
 49 51 0 0 0
SMALL
GASTEIGER

@<TRIPOS>ATOM
      1 C           1.0687    0.0175    0.0519 C.3     1  UNL1        0.0817
      2 O           2.5053    0.0059    0.0379 O.3     1  UNL1       -0.4668
      3 C           3.0579   -0.9128   -0.8053 C.2     1  UNL1        0.3242
      4 O           2.4205   -1.6934   -1.5065 O.2     1  UNL1       -0.2491
      5 C           4.5882   -0.8697   -0.7747 C.3     1  UNL1        0.1093
      6 N           5.1552   -1.8567   -1.7067 N.am    1  UNL1       -0.3008
      7 C           6.5119   -2.0679   -1.8039 C.2     1  UNL1        0.2447
      8 O           7.3469   -1.4311   -1.1700 O.2     1  UNL1       -0.2702
      9 C           6.9751   -3.1427   -2.7242 C.ar    1  UNL1        0.0432
     10 C           8.0080   -3.9877   -2.3372 C.ar    1  UNL1       -0.0475
     11 C           8.5161   -4.9402   -3.2345 C.ar    1  UNL1       -0.0335
     12 C           7.9848   -5.1319   -4.5402 C.ar    1  UNL1        0.1058
     13 N           8.5424   -6.2261   -5.2144 N.pl3   1  UNL1       -0.3290
     14 C           8.0602   -6.6355   -6.4988 C.3     1  UNL1        0.0961
     15 C           8.5771   -7.8997   -7.0074 C.ar    1  UNL1        0.2177
     16 C           8.1163   -9.1744   -6.8085 C.ar    1  UNL1        0.0836
     17 N           8.8322   -9.9979   -7.6511 N.ar    1  UNL1       -0.2620
     18 C           8.7548  -11.3775   -7.7875 C.ar    1  UNL1        0.0261
     19 C           7.8064  -12.2092   -6.9778 C.3     1  UNL1       -0.0237
     20 C           9.6009  -11.9288   -8.6859 C.ar    1  UNL1       -0.0418
     21 C          10.5345  -11.1614   -9.5040 C.ar    1  UNL1       -0.0523
     22 C          10.5890   -9.8265   -9.3838 C.ar    1  UNL1        0.0293
     23 C           9.6771   -9.2443   -8.3815 C.ar    1  UNL1        0.2885
     24 N           9.5174   -7.9805   -8.0186 N.ar    1  UNL1       -0.1905
     25 C           6.9646   -4.2093   -4.9437 C.ar    1  UNL1        0.2944
     26 N           6.3117   -4.0705   -6.2905 N.pl3   1  UNL1        0.0815
     27 O           6.6332   -4.7911   -7.2403 O.2     1  UNL1        0.0415
     28 O           5.4413   -3.2054   -6.4189 O.co2   1  UNL1       -0.5760
     29 C           6.4763   -3.2450   -4.0183 C.ar    1  UNL1        0.0296
     30 H           0.7298    0.7857    0.7552 H       1  UNL1        0.0661
     31 H           0.6759   -0.9477    0.3888 H       1  UNL1        0.0661
     32 H           0.6743    0.2669   -0.9388 H       1  UNL1        0.0661
     33 H           4.9453   -1.1038    0.2335 H       1  UNL1        0.0577
     34 H           4.9415    0.1215   -1.0751 H       1  UNL1        0.0577
     35 H           4.4890   -2.4527   -2.1883 H       1  UNL1        0.1496
     36 H           8.4219   -3.9100   -1.3324 H       1  UNL1        0.0626
     37 H           9.3586   -5.5420   -2.8848 H       1  UNL1        0.0638
     38 H           9.2438   -6.7922   -4.7417 H       1  UNL1        0.1468
     39 H           8.4058   -5.9042   -7.2312 H       1  UNL1        0.0572
     40 H           6.9778   -6.7916   -6.4499 H       1  UNL1        0.0572
     41 H           7.3265   -9.5463   -6.1771 H       1  UNL1        0.0879
     42 H           7.1822  -11.6195   -6.3030 H       1  UNL1        0.0292
     43 H           8.3635  -12.9194   -6.3600 H       1  UNL1        0.0292
     44 H           7.1293  -12.7595   -7.6380 H       1  UNL1        0.0292
     45 H           9.6092  -13.0063   -8.8290 H       1  UNL1        0.0635
     46 H          11.1772  -11.6918  -10.1989 H       1  UNL1        0.0621
     47 H          11.2512   -9.1924   -9.9568 H       1  UNL1        0.0700
     48 H           9.9827   -7.1878   -8.4540 H       1  UNL1        0.4548
     49 H           5.7164   -2.5280   -4.3229 H       1  UNL1        0.0693
@<TRIPOS>UNITY_ATOM_ATTR
24 1
charge 1
26 1
charge 1
28 1
charge -1
@<TRIPOS>BOND
     1     1     2    1
     2     2     3    1
     3     3     4    2
     4     3     5    1
     5     5     6    1
     6     6     7   am
     7     7     8    2
     8     7     9    1
     9     9    10   ar
    10    10    11   ar
    11    11    12   ar
    12    12    13    1
    13    13    14    1
    14    14    15    1
    15    15    16   ar
    16    16    17   ar
    17    17    18   ar
    18    18    19    1
    19    18    20   ar
    20    20    21   ar
    21    21    22   ar
    22    22    23   ar
    23    17    23   ar
    24    23    24   ar
    25    15    24   ar
    26    12    25   ar
    27    25    26    1
    28    26    27    2
    29    26    28    1
    30    25    29   ar
    31     9    29   ar
    32     1    30    1
    33     1    31    1
    34     1    32    1
    35     5    33    1
    36     5    34    1
    37     6    35    1
    38    10    36    1
    39    11    37    1
    40    13    38    1
    41    14    39    1
    42    14    40    1
    43    16    41    1
    44    19    42    1
    45    19    43    1
    46    19    44    1
    47    20    45    1
    48    21    46    1
    49    22    47    1
    50    24    48    1
    51    29    49    1
