@<TRIPOS>MOLECULE
*****
 63 66 0 0 0
SMALL
GASTEIGER

@<TRIPOS>ATOM
      1 C           0.8676   -0.0396   -0.0019 C.3     1  UNL1       -0.0253
      2 C           2.3910   -0.0252   -0.0420 C.3     1  UNL1        0.1068
      3 C           2.9221    0.6580    1.2385 C.3     1  UNL1       -0.0253
      4 C           2.8246   -1.5342   -0.0160 C.3     1  UNL1       -0.0253
      5 O           2.7610    0.7829   -1.2488 O.3     1  UNL1       -0.4447
      6 C           4.0668    0.6401   -1.5980 C.2     1  UNL1        0.4011
      7 O           4.6951   -0.2009   -1.0213 O.2     1  UNL1       -0.2265
      8 N           4.6403    1.4412   -2.5690 N.am    1  UNL1       -0.2741
      9 C           6.1513    1.5924   -2.8017 C.3     1  UNL1        0.0709
     10 C           6.9259    0.2480   -2.8836 C.3     1  UNL1       -0.0024
     11 C           6.9991   -0.5499   -1.6260 C.2     1  UNL1        0.0095
     12 C           6.9774   -1.8854   -1.5626 C.ar    1  UNL1        0.0509
     13 C           7.0772   -2.9123   -2.5445 C.ar    1  UNL1       -0.0482
     14 C           7.1463   -4.1846   -2.1273 C.ar    1  UNL1       -0.0608
     15 C           7.0016   -4.5287   -0.7200 C.ar    1  UNL1       -0.0555
     16 C           6.7758   -3.6208    0.2524 C.ar    1  UNL1        0.0098
     17 C           6.7943   -2.1937   -0.1322 C.ar    1  UNL1        0.2086
     18 N           6.7048   -1.1377    0.5881 N.2     1  UNL1       -0.2369
     19 C           6.9353    0.0707   -0.2404 C.3     1  UNL1        0.1661
     20 C           6.4892    2.3837   -4.1183 C.3     1  UNL1        0.1433
     21 N           7.9188    2.6705   -4.3376 N.3     1  UNL1       -0.2248
     22 N           7.9538    4.0096   -4.9186 N.3     1  UNL1       -0.2181
     23 C           6.5629    4.4166   -5.0464 C.3     1  UNL1        0.1723
     24 S           6.3582    6.1766   -4.8383 S.3     1  UNL1       -0.1081
     25 C           5.2130    6.1372   -3.4320 C.3     1  UNL1        0.0252
     26 C           4.4481    7.4115   -3.2483 C.ar    1  UNL1       -0.0009
     27 C           5.1003    8.6187   -2.9496 C.ar    1  UNL1        0.0463
     28 CL          6.8047    8.7260   -2.6671 Cl      1  UNL1       -0.0832
     29 C           4.3844    9.8097   -2.8962 C.ar    1  UNL1       -0.0430
     30 C           3.0499    9.8330   -3.2816 C.ar    1  UNL1       -0.0590
     31 C           2.3564    8.6385   -3.4246 C.ar    1  UNL1       -0.0430
     32 C           3.0433    7.4295   -3.3607 C.ar    1  UNL1        0.0463
     33 CL          2.0815    5.9867   -3.4034 Cl      1  UNL1       -0.0832
     34 O           5.8152    3.6280   -4.1235 O.3     1  UNL1       -0.3303
     35 H           0.5015   -0.5753    0.8821 H       1  UNL1        0.0268
     36 H           0.4791   -0.5406   -0.8945 H       1  UNL1        0.0268
     37 H           0.4717    0.9778    0.0089 H       1  UNL1        0.0268
     38 H           2.5753    0.1377    2.1405 H       1  UNL1        0.0268
     39 H           2.5976    1.7014    1.2928 H       1  UNL1        0.0268
     40 H           4.0169    0.6673    1.2818 H       1  UNL1        0.0268
     41 H           2.4031   -2.0555    0.8513 H       1  UNL1        0.0268
     42 H           3.8968   -1.7107    0.1106 H       1  UNL1        0.0268
     43 H           2.5327   -2.0492   -0.9353 H       1  UNL1        0.0268
     44 H           4.0242    2.0196   -3.1241 H       1  UNL1        0.1524
     45 H           6.5387    2.1707   -1.9489 H       1  UNL1        0.0542
     46 H           7.9732    0.4105   -3.1581 H       1  UNL1        0.0332
     47 H           6.4742   -0.3390   -3.6975 H       1  UNL1        0.0332
     48 H           7.1730   -2.6551   -3.5935 H       1  UNL1        0.0626
     49 H           7.3207   -4.9858   -2.8434 H       1  UNL1        0.0618
     50 H           7.0843   -5.5894   -0.4859 H       1  UNL1        0.0620
     51 H           6.6658   -3.9253    1.2857 H       1  UNL1        0.0683
     52 H           6.4012   -1.1372    1.5583 H       1  UNL1        0.4459
     53 H           7.8728    0.5446    0.0310 H       1  UNL1        0.1077
     54 H           6.1552    0.8133   -0.0260 H       1  UNL1        0.1077
     55 H           6.1064    1.8128   -4.9710 H       1  UNL1        0.0799
     56 H           8.3348    1.9791   -4.9666 H       1  UNL1        0.1434
     57 H           8.4017    4.0793   -5.8367 H       1  UNL1        0.1442
     58 H           6.1893    4.1882   -6.0496 H       1  UNL1        0.0904
     59 H           5.7387    5.8752   -2.5103 H       1  UNL1        0.0427
     60 H           4.5048    5.3415   -3.6511 H       1  UNL1        0.0427
     61 H           4.8728   10.7246   -2.5734 H       1  UNL1        0.0632
     62 H           2.5508   10.7815   -3.4508 H       1  UNL1        0.0618
     63 H           1.2801    8.6549   -3.5758 H       1  UNL1        0.0632
@<TRIPOS>UNITY_ATOM_ATTR
18 1
charge 1
@<TRIPOS>BOND
     1     1     2    1
     2     2     3    1
     3     2     4    1
     4     2     5    1
     5     5     6    1
     6     6     7    2
     7     6     8   am
     8     8     9    1
     9     9    10    1
    10    10    11    1
    11    11    12    2
    12    12    13   ar
    13    13    14   ar
    14    14    15   ar
    15    15    16   ar
    16    16    17   ar
    17    12    17   ar
    18    17    18    2
    19    18    19    1
    20    11    19    1
    21     9    20    1
    22    20    21    1
    23    21    22    1
    24    22    23    1
    25    24    25    1
    26    25    26    1
    27    26    27   ar
    28    27    28    1
    29    27    29   ar
    30    29    30   ar
    31    30    31   ar
    32    31    32   ar
    33    26    32   ar
    34    32    33    1
    35    23    34    1
    36    20    34    1
    37    23    24    1
    38     1    35    1
    39     1    36    1
    40     1    37    1
    41     3    38    1
    42     3    39    1
    43     3    40    1
    44     4    41    1
    45     4    42    1
    46     4    43    1
    47     8    44    1
    48     9    45    1
    49    10    46    1
    50    10    47    1
    51    13    48    1
    52    14    49    1
    53    15    50    1
    54    16    51    1
    55    18    52    1
    56    19    53    1
    57    19    54    1
    58    20    55    1
    59    21    56    1
    60    22    57    1
    61    23    58    1
    62    25    59    1
    63    25    60    1
    64    29    61    1
    65    30    62    1
    66    31    63    1
