@<TRIPOS>MOLECULE
*****
 46 49 0 0 0
SMALL
GASTEIGER

@<TRIPOS>ATOM
      1 O           2.9516   -0.5433    1.1344 O.2     1  UNL1       -0.2641
      2 C           1.9027   -0.1380    0.6309 C.ar    1  UNL1        0.2908
      3 N           0.9420   -1.0108    0.1789 N.ar    1  UNL1       -0.3180
      4 C          -0.3600   -0.5499    0.0100 C.ar    1  UNL1        0.0677
      5 C          -1.3998   -1.4806   -0.0598 C.ar    1  UNL1       -0.0362
      6 C          -2.7116   -1.0223   -0.0487 C.ar    1  UNL1       -0.0597
      7 C          -2.9635    0.3494    0.0183 C.ar    1  UNL1       -0.0596
      8 C          -1.9079    1.2713    0.0437 C.ar    1  UNL1       -0.0342
      9 C          -0.5873    0.8363    0.0407 C.ar    1  UNL1        0.0895
     10 N           0.4664    1.7833    0.0258 N.ar    1  UNL1       -0.2242
     11 C           1.6843    1.3550    0.2449 C.ar    1  UNL1        0.2043
     12 N           2.8022    2.1613    0.0057 N.pl3   1  UNL1       -0.2167
     13 N           4.1379    1.8011   -0.1055 N.2     1  UNL1       -0.1900
     14 C           4.4399    0.7845   -0.8683 C.2     1  UNL1        0.0398
     15 C           5.8804    0.2720   -0.9681 C.3     1  UNL1        0.0032
     16 C           5.9003   -1.2610   -0.8253 C.3     1  UNL1        0.0227
     17 N           4.9465   -1.8785   -1.7682 N.pl3   1  UNL1       -0.2716
     18 C           5.2261   -2.7893   -2.7450 C.ar    1  UNL1        0.3505
     19 N           5.6281   -4.0103   -2.3217 N.ar    1  UNL1       -0.1925
     20 C           5.7995   -5.0702   -3.1314 C.ar    1  UNL1        0.1715
     21 C           5.5478   -4.9580   -4.4910 C.ar    1  UNL1        0.0086
     22 C           5.1156   -3.7431   -4.9940 C.ar    1  UNL1        0.0296
     23 C           4.9643   -2.6574   -4.1284 C.ar    1  UNL1        0.3595
     24 N           4.6402   -1.3743   -4.7397 N.pl3   1  UNL1        0.0880
     25 O           4.9635   -0.3533   -4.1402 O.2     1  UNL1        0.0417
     26 O           4.1240   -1.3906   -5.8637 O.co2   1  UNL1       -0.5758
     27 C           3.5675   -1.4265   -1.6420 C.3     1  UNL1        0.0227
     28 C           3.4515    0.0876   -1.7789 C.3     1  UNL1        0.0032
     29 H           1.1168   -2.0007    0.2580 H       1  UNL1        0.1691
     30 H          -1.2099   -2.5506   -0.0678 H       1  UNL1        0.0639
     31 H          -3.5381   -1.7297   -0.0684 H       1  UNL1        0.0618
     32 H          -3.9895    0.7077    0.0537 H       1  UNL1        0.0618
     33 H          -2.1177    2.3360    0.0811 H       1  UNL1        0.0639
     34 H           2.5919    3.1568   -0.0799 H       1  UNL1        0.1761
     35 H           6.5182    0.7380   -0.2091 H       1  UNL1        0.0341
     36 H           6.2776    0.5503   -1.9513 H       1  UNL1        0.0341
     37 H           5.6161   -1.5251    0.2031 H       1  UNL1        0.0469
     38 H           6.9130   -1.6490   -0.9852 H       1  UNL1        0.0469
     39 H           5.7573   -4.1238   -1.3166 H       1  UNL1        0.4544
     40 H           6.1230   -6.0017   -2.6759 H       1  UNL1        0.1376
     41 H           5.6924   -5.7991   -5.1657 H       1  UNL1        0.0679
     42 H           4.9181   -3.6375   -6.0614 H       1  UNL1        0.0690
     43 H           3.2540   -1.8166   -0.6729 H       1  UNL1        0.0469
     44 H           2.8811   -1.9089   -2.3461 H       1  UNL1        0.0469
     45 H           2.4175    0.3774   -1.6549 H       1  UNL1        0.0341
     46 H           3.6324    0.4950   -2.7649 H       1  UNL1        0.0341
@<TRIPOS>UNITY_ATOM_ATTR
19 1
charge 1
24 1
charge 1
26 1
charge -1
@<TRIPOS>BOND
     1     1     2    2
     2     2     3   ar
     3     3     4   ar
     4     4     5   ar
     5     5     6   ar
     6     6     7   ar
     7     7     8   ar
     8     8     9   ar
     9     4     9   ar
    10     9    10   ar
    11    10    11   ar
    12     2    11   ar
    13    11    12    1
    14    12    13    1
    15    13    14    2
    16    14    15    1
    17    15    16    1
    18    16    17    1
    19    17    18    1
    20    18    19   ar
    21    19    20   ar
    22    20    21   ar
    23    21    22   ar
    24    22    23   ar
    25    18    23   ar
    26    23    24    1
    27    24    25    2
    28    24    26    1
    29    17    27    1
    30    27    28    1
    31    14    28    1
    32     3    29    1
    33     5    30    1
    34     6    31    1
    35     7    32    1
    36     8    33    1
    37    12    34    1
    38    15    35    1
    39    15    36    1
    40    16    37    1
    41    16    38    1
    42    19    39    1
    43    20    40    1
    44    21    41    1
    45    22    42    1
    46    27    43    1
    47    27    44    1
    48    28    45    1
    49    28    46    1
