REMARK  6 active torsions:
REMARK  status: ('A' for Active; 'I' for Inactive)
REMARK    1  A    between atoms: C_7  and  N_8 
REMARK       I    between atoms: N_8  and  C_9 
REMARK       I    between atoms: C_9  and  N_22 
REMARK       I    between atoms: N_10  and  C_11 
REMARK    2  A    between atoms: C_11  and  C_13 
REMARK    3  A    between atoms: C_14  and  C_15 
REMARK    4  A    between atoms: N_22  and  C_23 
REMARK    5  A    between atoms: C_23  and  C_24 
REMARK    6  A    between atoms: C_24  and  C_25 
ROOT
ATOM      1  N   UNL d   1       0.116  -3.066  -0.004  0.00  0.00    -0.017 N 
ATOM      2  C   UNL d   1       1.317  -3.758  -0.018  0.00  0.00     0.718 C 
ATOM      3  N   UNL d   1       2.402  -3.022  -0.022  0.00  0.00    -0.024 NA
ATOM      4  C   UNL d   1       3.635  -3.507  -0.068  0.00  0.00     0.283 C 
ATOM      5  O   UNL d   1       3.890  -4.676  -0.175  0.00  0.00    -0.266 OA
ATOM      6  N   UNL d   1       1.148  -5.167  -0.022  0.00  0.00    -0.223 N 
ATOM      7  H   UNL d   1      -0.776  -3.520  -0.002  0.00  0.00     0.203 HD
ATOM      8  H   UNL d   1       0.230  -5.580  -0.019  0.00  0.00     0.177 HD
ENDROOT
BRANCH   1   9
ATOM      9  C   UNL d   1       0.027  -1.656  -0.002  0.00  0.00     0.741 A 
ATOM     10  N   UNL d   1      -1.173  -1.054   0.002  0.00  0.00    -0.067 NA
ATOM     11  C   UNL d   1      -1.178   0.312   0.004  0.00  0.00     0.051 A 
ATOM     12  C   UNL d   1      -0.026   1.085   0.010  0.00  0.00     0.054 A 
ATOM     13  C   UNL d   1      -2.512   1.004  -0.015  0.00  0.00     0.071 C 
ATOM     14  C   UNL d   1       1.152   0.399   0.004  0.00  0.00     0.051 A 
ATOM     15  C   UNL d   1       2.498   1.045   0.001  0.00  0.00     0.071 C 
ATOM     16  N   UNL d   1       1.158  -0.932  -0.004  0.00  0.00    -0.067 NA
ENDBRANCH   1   9
BRANCH   6  17
ATOM     17  C   UNL d   1       2.270  -6.129  -0.038  0.00  0.00     0.142 C 
BRANCH  17  18
ATOM     18  C   UNL d   1       2.195  -7.629  -0.041  0.00  0.00     0.061 C 
BRANCH  18  19
ATOM     19  C   UNL d   1       3.580  -8.358  -0.062  0.00  0.00    -0.029 A 
ATOM     20  C   UNL d   1       3.723  -9.729  -0.077  0.00  0.00     0.096 A 
ATOM     21  N   UNL d   1       5.050 -10.079  -0.096  0.00  0.00    -0.365 N 
ATOM     22  C   UNL d   1       5.854  -8.985  -0.078  0.00  0.00     0.043 A 
ATOM     23  H   UNL d   1       5.429 -11.007  -0.121  0.00  0.00     0.165 HD
ATOM     24  C   UNL d   1       7.275  -8.860  -0.064  0.00  0.00     0.033 A 
ATOM     25  C   UNL d   1       4.958  -7.925  -0.073  0.00  0.00     0.001 A 
ATOM     26  C   UNL d   1       7.846  -7.616  -0.061  0.00  0.00     0.044 A 
ATOM     27  C   UNL d   1       6.975  -6.602  -0.056  0.00  0.00     0.117 A 
ATOM     28  F   UNL d   1       7.481  -5.415   0.024  0.00  0.00    -0.206 F 
ATOM     29  C   UNL d   1       5.616  -6.737  -0.056  0.00  0.00     0.056 A 
ENDBRANCH  18  19
ENDBRANCH  17  18
ENDBRANCH   6  17
BRANCH   4  30
ATOM     30  C   UNL d   1       4.821  -2.697  -0.065  0.00  0.00     0.078 C 
ATOM     31  C   UNL d   1       6.067  -3.256  -0.094  0.00  0.00     0.017 C 
BRANCH  31  32
ATOM     32  C   UNL d   1       7.476  -2.728  -0.090  0.00  0.00    -0.030 A 
ATOM     33  C   UNL d   1       8.733  -3.431  -0.123  0.00  0.00     0.012 A 
ATOM     34  C   UNL d   1       9.972  -2.801  -0.084  0.00  0.00     0.001 A 
ATOM     35  C   UNL d   1       9.996  -1.432  -0.033  0.00  0.00     0.001 A 
ATOM     36  C   UNL d   1       8.804  -0.722  -0.019  0.00  0.00     0.007 A 
ATOM     37  C   UNL d   1       7.567  -1.349  -0.039  0.00  0.00    -0.052 A 
ATOM     38  C   UNL d   1       6.351  -0.498  -0.007  0.00  0.00     0.049 C 
ENDBRANCH  31  32
ENDBRANCH   4  30
TORSDOF 6
