@<TRIPOS>MOLECULE
*****
 39 41 0 0 0
SMALL
GASTEIGER

@<TRIPOS>ATOM
      1 O           2.4632    0.1210    2.9200 O.2     1  UNL1       -0.2507
      2 C           3.4143   -0.5163    3.3840 C.2     1  UNL1        0.3228
      3 N           3.5199   -0.8379    4.7176 N.am    1  UNL1       -0.1781
      4 O           2.4328   -0.3969    5.5358 O.3     1  UNL1       -0.2740
      5 C           2.6270   -0.7684    6.9065 C.3     1  UNL1        0.0983
      6 C           1.4967   -0.2754    7.7906 C.ar    1  UNL1       -0.0197
      7 C           0.7920   -1.1736    8.6100 C.ar    1  UNL1       -0.0563
      8 C          -0.2867   -0.7421    9.3885 C.ar    1  UNL1       -0.0614
      9 C          -0.6211    0.6085    9.4296 C.ar    1  UNL1       -0.0617
     10 C           0.0958    1.5208    8.6577 C.ar    1  UNL1       -0.0614
     11 C           1.1423    1.0816    7.8368 C.ar    1  UNL1       -0.0563
     12 N           4.4694   -0.9489    2.5741 N.am    1  UNL1       -0.2944
     13 C           4.3251   -0.8009    1.1377 C.3     1  UNL1        0.0321
     14 C           5.2516    0.0829    0.3425 C.3     1  UNL1       -0.0254
     15 C           5.1633   -1.3914    0.0171 C.3     1  UNL1        0.0044
     16 C           4.4249   -1.8672   -1.2434 C.ar    1  UNL1       -0.0398
     17 C           4.5558   -3.1896   -1.7106 C.ar    1  UNL1       -0.0581
     18 C           3.9206   -3.6272   -2.8839 C.ar    1  UNL1       -0.0588
     19 C           3.0749   -2.7705   -3.5814 C.ar    1  UNL1       -0.0264
     20 C           2.9161   -1.4719   -3.1305 C.ar    1  UNL1        0.1237
     21 F           2.1275   -0.6255   -3.8061 F       1  UNL1       -0.2055
     22 C           3.5806   -1.0233   -1.9930 C.ar    1  UNL1       -0.0229
     23 H           4.2339   -1.4211    5.1244 H       1  UNL1        0.1841
     24 H           3.5711   -0.3507    7.2727 H       1  UNL1        0.0634
     25 H           2.6792   -1.8618    6.9595 H       1  UNL1        0.0634
     26 H           1.0695   -2.2244    8.6434 H       1  UNL1        0.0621
     27 H          -0.8727   -1.4624    9.9544 H       1  UNL1        0.0618
     28 H          -1.4394    0.9480   10.0600 H       1  UNL1        0.0618
     29 H          -0.1737    2.5742    8.6799 H       1  UNL1        0.0618
     30 H           1.6750    1.8072    7.2256 H       1  UNL1        0.0621
     31 H           5.1327   -1.6171    2.9402 H       1  UNL1        0.1506
     32 H           3.2666   -0.7665    0.8795 H       1  UNL1        0.0505
     33 H           6.1923    0.4342    0.7505 H       1  UNL1        0.0290
     34 H           4.8015    0.8227   -0.3099 H       1  UNL1        0.0290
     35 H           6.0857   -1.9247    0.2358 H       1  UNL1        0.0367
     36 H           5.1646   -3.9008   -1.1554 H       1  UNL1        0.0620
     37 H           4.0915   -4.6347   -3.2554 H       1  UNL1        0.0619
     38 H           2.5418   -3.1012   -4.4663 H       1  UNL1        0.0646
     39 H           3.4108    0.0065   -1.6969 H       1  UNL1        0.0649
@<TRIPOS>BOND
     1     1     2    2
     2     2     3   am
     3     3     4    1
     4     4     5    1
     5     5     6    1
     6     6     7   ar
     7     7     8   ar
     8     8     9   ar
     9     9    10   ar
    10    10    11   ar
    11     6    11   ar
    12     2    12   am
    13    13    14    1
    14    14    15    1
    15    13    15    1
    16    15    16    1
    17    16    17   ar
    18    17    18   ar
    19    18    19   ar
    20    19    20   ar
    21    20    21    1
    22    20    22   ar
    23    16    22   ar
    24    13    12    1
    25     3    23    1
    26     5    24    1
    27     5    25    1
    28     7    26    1
    29     8    27    1
    30     9    28    1
    31    10    29    1
    32    11    30    1
    33    12    31    1
    34    13    32    1
    35    14    33    1
    36    14    34    1
    37    15    35    1
    38    17    36    1
    39    18    37    1
    40    19    38    1
    41    22    39    1
