@<TRIPOS>MOLECULE
*****
 37 38 0 0 0
SMALL
GASTEIGER

@<TRIPOS>ATOM
      1 C           1.0621    0.0080    0.0414 C.3     1  UNL1       -0.0613
      2 C           2.5864    0.0063   -0.0063 C.3     1  UNL1       -0.0305
      3 C           3.0908    0.6383   -1.2794 C.ar    1  UNL1       -0.0475
      4 C           3.7828   -0.0572   -2.2773 C.ar    1  UNL1       -0.0568
      5 C           4.2382    0.6130   -3.4430 C.ar    1  UNL1       -0.0402
      6 C           3.9360    1.9712   -3.6627 C.ar    1  UNL1        0.0348
      7 N           4.2681    2.6334   -4.8961 N.am    1  UNL1       -0.2683
      8 C           3.9097    3.9428   -5.2173 C.2     1  UNL1        0.3202
      9 O           3.2958    4.7291   -4.4905 O.2     1  UNL1       -0.2509
     10 N           4.3043    4.4033   -6.4648 N.am    1  UNL1       -0.2177
     11 N           3.9702    5.7730   -6.7831 N.am    1  UNL1       -0.2279
     12 C           4.2478    6.3029   -8.0380 C.2     1  UNL1        0.2785
     13 O           4.8150    5.6347   -8.9086 O.2     1  UNL1       -0.2670
     14 C           3.8239    7.7387   -8.3000 C.ar    1  UNL1        0.1268
     15 C           4.0447    8.7496   -7.3654 C.ar    1  UNL1       -0.0311
     16 C           3.6458   10.0569   -7.6759 C.ar    1  UNL1       -0.0582
     17 C           3.0480   10.3226   -8.9028 C.ar    1  UNL1       -0.0436
     18 C           2.8881    9.2670   -9.7842 C.ar    1  UNL1        0.0284
     19 N           3.2600    7.9903   -9.5146 N.ar    1  UNL1       -0.2503
     20 C           3.2658    2.6380   -2.6373 C.ar    1  UNL1       -0.0402
     21 C           2.8544    1.9949   -1.4731 C.ar    1  UNL1       -0.0568
     22 H           0.7027   -0.4199    0.9816 H       1  UNL1        0.0233
     23 H           0.6489   -0.5727   -0.7893 H       1  UNL1        0.0233
     24 H           0.6558    1.0237   -0.0324 H       1  UNL1        0.0233
     25 H           2.9658   -1.0144    0.1100 H       1  UNL1        0.0311
     26 H           2.9759    0.5815    0.8453 H       1  UNL1        0.0311
     27 H           3.9609   -1.1265   -2.1613 H       1  UNL1        0.0621
     28 H           4.8239    0.0371   -4.1562 H       1  UNL1        0.0636
     29 H           4.7214    2.0697   -5.6023 H       1  UNL1        0.1564
     30 H           4.7397    3.8572   -7.2018 H       1  UNL1        0.1744
     31 H           3.4080    6.2503   -6.0762 H       1  UNL1        0.1732
     32 H           4.5458    8.5504   -6.4256 H       1  UNL1        0.0640
     33 H           3.8069   10.8692   -6.9699 H       1  UNL1        0.0619
     34 H           2.7224   11.3250   -9.1685 H       1  UNL1        0.0633
     35 H           2.4409    9.4294  -10.7629 H       1  UNL1        0.0830
     36 H           3.0231    3.6893   -2.6895 H       1  UNL1        0.0636
     37 H           2.3191    2.5762   -0.7262 H       1  UNL1        0.0621
@<TRIPOS>BOND
     1     1     2    1
     2     2     3    1
     3     3     4   ar
     4     4     5   ar
     5     5     6   ar
     6     6     7    1
     7     7     8   am
     8     8     9    2
     9     8    10   am
    10    10    11    1
    11    11    12   am
    12    12    13    2
    13    12    14    1
    14    14    15   ar
    15    15    16   ar
    16    16    17   ar
    17    17    18   ar
    18    18    19   ar
    19    14    19   ar
    20     6    20   ar
    21    20    21   ar
    22     3    21   ar
    23     1    22    1
    24     1    23    1
    25     1    24    1
    26     2    25    1
    27     2    26    1
    28     4    27    1
    29     5    28    1
    30     7    29    1
    31    10    30    1
    32    11    31    1
    33    15    32    1
    34    16    33    1
    35    17    34    1
    36    18    35    1
    37    20    36    1
    38    21    37    1
