REMARK  6 active torsions:
REMARK  status: ('A' for Active; 'I' for Inactive)
REMARK    1  A    between atoms: C_2  and  C_3 
REMARK       I    between atoms: C_2  and  N_18 
REMARK    2  A    between atoms: C_3  and  N_4 
REMARK       I    between atoms: N_4  and  C_5 
REMARK       I    between atoms: C_5  and  N_7 
REMARK    3  A    between atoms: N_7  and  C_8 
REMARK    4  A    between atoms: C_8  and  C_9 
REMARK    5  A    between atoms: C_13  and  N_14 
REMARK    6  A    between atoms: N_18  and  C_19 
ROOT
ATOM      1  N   UNL d   1       2.118   2.057  -1.627  0.00  0.00    -0.334 N 
ATOM      2  C   UNL d   1       2.639   3.071  -2.388  0.00  0.00     0.316 C 
ATOM      3  O   UNL d   1       3.849   3.246  -2.521  0.00  0.00    -0.247 OA
ATOM      4  N   UNL d   1       1.707   3.868  -2.997  0.00  0.00    -0.339 N 
ATOM      5  H   UNL d   1       1.120   1.923  -1.526  0.00  0.00     0.164 HD
ATOM      6  H   UNL d   1       0.730   3.725  -2.792  0.00  0.00     0.164 HD
ENDROOT
BRANCH   1   7
ATOM      7  C   UNL d   1       2.995   1.111  -0.926  0.00  0.00     0.227 C 
BRANCH   7   8
ATOM      8  C   UNL d   1       2.246   0.031  -0.123  0.00  0.00     0.235 C 
ATOM      9  O   UNL d   1       1.015  -0.005  -0.064  0.00  0.00    -0.272 OA
ATOM     10  N   UNL d   1       2.993  -0.913   0.555  0.00  0.00    -0.355 N 
ATOM     11  H   UNL d   1       2.444  -1.585   1.082  0.00  0.00     0.162 HD
BRANCH  10  12
ATOM     12  C   UNL d   1       4.418  -0.996   0.618  0.00  0.00     0.084 A 
ATOM     13  C   UNL d   1       5.126  -2.244   1.089  0.00  0.00     0.027 A 
ATOM     14  C   UNL d   1       5.163  -1.861  -0.361  0.00  0.00     0.027 A 
ENDBRANCH  10  12
ENDBRANCH   7   8
ENDBRANCH   1   7
BRANCH   4  15
ATOM     15  C   UNL d   1       2.110   4.991  -3.848  0.00  0.00     0.162 C 
BRANCH  15  16
ATOM     16  C   UNL d   1       0.943   5.777  -4.416  0.00  0.00    -0.038 A 
ATOM     17  C   UNL d   1       0.995   7.179  -4.529  0.00  0.00     0.009 A 
ATOM     18  C   UNL d   1      -0.128   7.913  -4.938  0.00  0.00     0.003 A 
ATOM     19  C   UNL d   1      -1.294   7.253  -5.327  0.00  0.00     0.036 A 
ATOM     20  C   UNL d   1      -1.330   5.856  -5.282  0.00  0.00     0.103 A 
ATOM     21  C   UNL d   1      -0.215   5.121  -4.853  0.00  0.00     0.045 A 
BRANCH  20  22
ATOM     22  N   UNL d   1      -2.568   5.142  -5.615  0.00  0.00    -0.116 N 
ATOM     23  O   UNL d   1      -3.548   5.815  -5.965  0.00  0.00    -0.532 OA
ATOM     24  O   UNL d   1      -2.567   3.907  -5.503  0.00  0.00    -0.532 OA
ENDBRANCH  20  22
ENDBRANCH  15  16
ENDBRANCH   4  15
TORSDOF 6
