@<TRIPOS>MOLECULE
*****
 74 77 0 0 0
SMALL
GASTEIGER

@<TRIPOS>ATOM
      1 C           4.1516   -0.5965   -4.0156 C.3     1  UNL1       -0.0643
      2 C           2.6959   -0.6988   -4.3643 C.3     1  UNL1       -0.0407
      3 C           1.5255   -1.6287   -3.8784 C.3     1  UNL1        0.0605
      4 C           1.2765   -1.7383   -2.3599 C.2     1  UNL1        0.2242
      5 O           0.3447   -1.0942   -1.8657 O.2     1  UNL1       -0.2749
      6 N           2.0896   -2.5757   -1.5821 N.am    1  UNL1       -0.2778
      7 C           3.0905   -3.4775   -2.2355 C.3     1  UNL1        0.0737
      8 C           4.4759   -2.9617   -2.1984 C.ar    1  UNL1        0.1225
      9 C           4.8788   -1.7278   -1.8242 C.ar    1  UNL1       -0.0189
     10 C           6.2304   -1.5559   -2.0766 C.ar    1  UNL1       -0.0207
     11 C           6.6303   -2.7709   -2.5405 C.ar    1  UNL1        0.1023
     12 C           7.9685   -3.1309   -2.9997 C.3     1  UNL1       -0.0064
     13 O           5.5775   -3.6563   -2.6225 O.2     1  UNL1       -0.4633
     14 C           1.7931   -2.6186   -0.0578 C.3     1  UNL1        0.1346
     15 C           2.5667   -1.4555    0.6471 C.2     1  UNL1        0.2386
     16 O           2.0795   -0.4335    1.1658 O.2     1  UNL1       -0.2734
     17 N           3.9000   -1.6839    0.5735 N.am    1  UNL1       -0.3106
     18 C           5.0462   -0.8512    0.8054 C.3     1  UNL1        0.0232
     19 C           5.0682    0.4954    0.0344 C.3     1  UNL1       -0.0345
     20 C           6.2839    1.3034    0.4056 C.3     1  UNL1       -0.0514
     21 C           6.2798    1.4689    1.9066 C.3     1  UNL1       -0.0529
     22 C           6.3382    0.1225    2.6276 C.3     1  UNL1       -0.0514
     23 C           5.1511   -0.7321    2.2856 C.3     1  UNL1       -0.0345
     24 C           2.0847   -3.9585    0.6929 C.ar    1  UNL1        0.0648
     25 C           3.1064   -4.8980    0.4321 C.ar    1  UNL1        0.1292
     26 O           4.1837   -4.8425   -0.3870 O.3     1  UNL1       -0.5062
     27 C           3.2645   -6.1046    1.0797 C.ar    1  UNL1        0.0219
     28 C           2.5433   -6.3463    2.2031 C.ar    1  UNL1        0.1238
     29 O           2.8350   -7.4603    2.9201 O.3     1  UNL1       -0.5065
     30 C           1.5939   -5.4274    2.6163 C.ar    1  UNL1        0.0219
     31 C           1.3435   -4.2670    1.8520 C.ar    1  UNL1        0.1292
     32 O           0.3815   -3.3971    2.2899 O.3     1  UNL1       -0.5062
     33 C           1.2755   -2.9106   -4.6983 C.ar    1  UNL1       -0.0355
     34 C           1.1179   -4.1885   -4.1308 C.ar    1  UNL1       -0.0578
     35 C           1.4407   -5.3248   -4.8635 C.ar    1  UNL1       -0.0615
     36 C           1.5094   -5.2365   -6.2417 C.ar    1  UNL1       -0.0617
     37 C           1.3757   -3.9960   -6.8590 C.ar    1  UNL1       -0.0615
     38 C           1.3030   -2.8360   -6.0917 C.ar    1  UNL1       -0.0578
     39 H           4.7613    0.0276   -4.6727 H       1  UNL1        0.0230
     40 H           4.6369   -1.5663   -4.1053 H       1  UNL1        0.0230
     41 H           4.2391   -0.0228   -3.0896 H       1  UNL1        0.0230
     42 H           2.7888   -0.8442   -5.4336 H       1  UNL1        0.0273
     43 H           2.3561    0.3019   -4.0978 H       1  UNL1        0.0273
     44 H           0.6647   -1.0199   -4.2049 H       1  UNL1        0.0443
     45 H           3.0074   -3.5726   -3.3003 H       1  UNL1        0.0545
     46 H           2.8392   -4.4744   -1.9004 H       1  UNL1        0.0545
     47 H           4.1225   -1.0151   -1.5346 H       1  UNL1        0.0652
     48 H           6.8196   -0.6502   -2.0129 H       1  UNL1        0.0652
     49 H           8.6019   -2.2324   -2.9484 H       1  UNL1        0.0308
     50 H           7.9439   -3.4593   -4.0370 H       1  UNL1        0.0308
     51 H           8.3997   -3.8788   -2.3372 H       1  UNL1        0.0308
     52 H           0.7295   -2.3545    0.0717 H       1  UNL1        0.0650
     53 H           4.1133   -2.5453    0.1408 H       1  UNL1        0.1490
     54 H           5.9125   -1.4565    0.4852 H       1  UNL1        0.0498
     55 H           4.1283    1.0290    0.1864 H       1  UNL1        0.0283
     56 H           5.1494    0.4547   -1.0511 H       1  UNL1        0.0283
     57 H           6.2408    2.2660   -0.1162 H       1  UNL1        0.0266
     58 H           7.1976    0.7984    0.0593 H       1  UNL1        0.0266
     59 H           5.3524    1.9875    2.1787 H       1  UNL1        0.0265
     60 H           7.1274    2.0839    2.2008 H       1  UNL1        0.0265
     61 H           6.3288    0.2645    3.7062 H       1  UNL1        0.0266
     62 H           7.2539   -0.4133    2.3460 H       1  UNL1        0.0266
     63 H           4.2224   -0.3008    2.6655 H       1  UNL1        0.0283
     64 H           5.2424   -1.7420    2.7117 H       1  UNL1        0.0283
     65 H           4.5394   -3.9603   -0.4352 H       1  UNL1        0.2922
     66 H           4.0483   -6.7681    0.7200 H       1  UNL1        0.0691
     67 H           3.5693   -7.9094    2.4576 H       1  UNL1        0.2921
     68 H           1.0695   -5.6230    3.5428 H       1  UNL1        0.0691
     69 H          -0.0116   -3.7412    3.1124 H       1  UNL1        0.2922
     70 H           0.9433   -4.3277   -3.0665 H       1  UNL1        0.0620
     71 H           1.6618   -6.2589   -4.3505 H       1  UNL1        0.0618
     72 H           1.6372   -6.1388   -6.8292 H       1  UNL1        0.0618
     73 H           1.3812   -3.9222   -7.9405 H       1  UNL1        0.0618
     74 H           1.2866   -1.8684   -6.5870 H       1  UNL1        0.0620
@<TRIPOS>BOND
     1     1     2    1
     2     4     5    2
     3     4     6   am
     4     6     7    1
     5     7     8    1
     6     8     9   ar
     7     9    10   ar
     8    10    11   ar
     9    11    12    1
    10    11    13   ar
    11     8    13   ar
    12    15    16    2
    13    15    17   am
    14    17    18    1
    15    18    19    1
    16    19    20    1
    17    20    21    1
    18    21    22    1
    19    22    23    1
    20    18    23    1
    21    14    24    1
    22    24    25   ar
    23    25    26    1
    24    25    27   ar
    25    27    28   ar
    26    28    29    1
    27    28    30   ar
    28    30    31   ar
    29    24    31   ar
    30    31    32    1
    31     3    33    1
    32    33    34   ar
    33    34    35   ar
    34    35    36   ar
    35    36    37   ar
    36    37    38   ar
    37    33    38   ar
    38     3     4    1
    39     3     2    1
    40    14    15    1
    41    14     6    1
    42     1    39    1
    43     1    40    1
    44     1    41    1
    45     2    42    1
    46     2    43    1
    47     3    44    1
    48     7    45    1
    49     7    46    1
    50     9    47    1
    51    10    48    1
    52    12    49    1
    53    12    50    1
    54    12    51    1
    55    14    52    1
    56    17    53    1
    57    18    54    1
    58    19    55    1
    59    19    56    1
    60    20    57    1
    61    20    58    1
    62    21    59    1
    63    21    60    1
    64    22    61    1
    65    22    62    1
    66    23    63    1
    67    23    64    1
    68    26    65    1
    69    27    66    1
    70    29    67    1
    71    30    68    1
    72    32    69    1
    73    34    70    1
    74    35    71    1
    75    36    72    1
    76    37    73    1
    77    38    74    1
