@<TRIPOS>MOLECULE
*****
 60 62 0 0 0
SMALL
GASTEIGER

@<TRIPOS>ATOM
      1 C          -2.4924    1.8472   -0.0218 C.3     1  UNL1       -0.0379
      2 C          -1.6561    0.6148    0.0111 C.ar    1  UNL1       -0.0279
      3 C          -0.2677    0.8783    0.0264 C.ar    1  UNL1       -0.0387
      4 C           0.6583   -0.1435    0.0116 C.ar    1  UNL1        0.0413
      5 CL          2.3338    0.2440    0.0061 Cl      1  UNL1       -0.0835
      6 C           0.2092   -1.4548   -0.0093 C.ar    1  UNL1       -0.0416
      7 C          -1.1832   -1.7350   -0.0024 C.ar    1  UNL1       -0.0388
      8 C          -2.1601   -0.7053    0.0133 C.ar    1  UNL1        0.0368
      9 N          -3.5652   -1.0734    0.0348 N.am    1  UNL1       -0.2775
     10 C          -4.7025   -0.2455    0.0482 C.2     1  UNL1        0.3048
     11 O          -4.7842    0.9814    0.0160 O.2     1  UNL1       -0.2648
     12 C          -6.0999   -0.8705    0.1093 C.2     1  UNL1        0.3184
     13 O          -6.2326   -2.0868    0.1232 O.2     1  UNL1       -0.2634
     14 N          -7.0917    0.1287    0.1367 N.am    1  UNL1       -0.1992
     15 N          -8.4193   -0.1756    0.1937 N.2     1  UNL1       -0.1873
     16 C          -9.2811    0.7936    0.1275 C.2     1  UNL1        0.0528
     17 C         -10.7331    0.4827    0.2192 C.ar    1  UNL1       -0.0052
     18 C         -11.6952    1.1810   -0.5140 C.ar    1  UNL1       -0.0496
     19 C         -13.0567    0.8589   -0.3515 C.ar    1  UNL1       -0.0193
     20 C         -13.4598   -0.1793    0.5034 C.ar    1  UNL1        0.1212
     21 O         -14.8028   -0.4430    0.5381 O.3     1  UNL1       -0.4828
     22 C         -15.2499   -1.5812    1.2824 C.3     1  UNL1        0.1651
     23 C         -16.7596   -1.8003    1.0895 C.2     1  UNL1        0.2507
     24 O         -17.4528   -1.0956    0.3584 O.2     1  UNL1       -0.2721
     25 N         -17.3068   -2.8600    1.8041 N.am    1  UNL1       -0.3122
     26 C         -18.7378   -3.1045    1.7061 C.3     1  UNL1        0.0157
     27 C         -19.2449   -4.2648    2.5647 C.3     1  UNL1       -0.0121
     28 C         -20.7365   -4.5044    2.4468 C.ar    1  UNL1       -0.0459
     29 C         -21.6540   -3.4418    2.4394 C.ar    1  UNL1       -0.0585
     30 C         -23.0283   -3.6811    2.4576 C.ar    1  UNL1       -0.0615
     31 C         -23.5076   -4.9865    2.4307 C.ar    1  UNL1       -0.0617
     32 C         -22.6118   -6.0534    2.4154 C.ar    1  UNL1       -0.0615
     33 C         -21.2350   -5.8153    2.4364 C.ar    1  UNL1       -0.0585
     34 C         -12.4898   -0.8588    1.2352 C.ar    1  UNL1       -0.0193
     35 C         -11.1363   -0.5328    1.0902 C.ar    1  UNL1       -0.0496
     36 H          -1.9190    2.7741   -0.0563 H       1  UNL1        0.0278
     37 H          -3.0692    1.8936    0.9059 H       1  UNL1        0.0278
     38 H          -3.0742    1.8347   -0.9485 H       1  UNL1        0.0278
     39 H           0.0770    1.9113    0.0419 H       1  UNL1        0.0635
     40 H           0.9428   -2.2590   -0.0304 H       1  UNL1        0.0633
     41 H          -1.4633   -2.7874   -0.0154 H       1  UNL1        0.0637
     42 H          -3.7709   -2.0718    0.0506 H       1  UNL1        0.1553
     43 H          -6.7732    1.1017    0.1133 H       1  UNL1        0.1777
     44 H          -9.0064    1.8618    0.0182 H       1  UNL1        0.0851
     45 H         -11.4115    1.9442   -1.2346 H       1  UNL1        0.0625
     46 H         -13.8119    1.4185   -0.9031 H       1  UNL1        0.0654
     47 H         -15.0708   -1.4147    2.3510 H       1  UNL1        0.0795
     48 H         -14.7406   -2.4912    0.9419 H       1  UNL1        0.0795
     49 H         -16.7428   -3.4120    2.4375 H       1  UNL1        0.1488
     50 H         -18.9769   -3.2871    0.6515 H       1  UNL1        0.0465
     51 H         -19.2290   -2.1687    1.9932 H       1  UNL1        0.0465
     52 H         -19.0181   -4.0787    3.6223 H       1  UNL1        0.0328
     53 H         -18.6999   -5.1762    2.2868 H       1  UNL1        0.0328
     54 H         -21.3213   -2.4071    2.4295 H       1  UNL1        0.0620
     55 H         -23.7206   -2.8444    2.5042 H       1  UNL1        0.0618
     56 H         -24.5783   -5.1700    2.4239 H       1  UNL1        0.0618
     57 H         -22.9865   -7.0735    2.4034 H       1  UNL1        0.0618
     58 H         -20.5555   -6.6647    2.4483 H       1  UNL1        0.0620
     59 H         -12.7471   -1.6457    1.9339 H       1  UNL1        0.0654
     60 H         -10.3916   -1.0744    1.6689 H       1  UNL1        0.0625
@<TRIPOS>BOND
     1     1     2    1
     2     2     3   ar
     3     3     4   ar
     4     4     5    1
     5     4     6   ar
     6     6     7   ar
     7     7     8   ar
     8     2     8   ar
     9     8     9    1
    10     9    10   am
    11    10    11    2
    12    10    12    1
    13    12    13    2
    14    12    14   am
    15    14    15    1
    16    15    16    2
    17    16    17    1
    18    17    18   ar
    19    18    19   ar
    20    19    20   ar
    21    20    21    1
    22    21    22    1
    23    22    23    1
    24    23    24    2
    25    23    25   am
    26    25    26    1
    27    26    27    1
    28    27    28    1
    29    28    29   ar
    30    29    30   ar
    31    30    31   ar
    32    31    32   ar
    33    32    33   ar
    34    28    33   ar
    35    20    34   ar
    36    34    35   ar
    37    17    35   ar
    38     1    36    1
    39     1    37    1
    40     1    38    1
    41     3    39    1
    42     6    40    1
    43     7    41    1
    44     9    42    1
    45    14    43    1
    46    16    44    1
    47    18    45    1
    48    19    46    1
    49    22    47    1
    50    22    48    1
    51    25    49    1
    52    26    50    1
    53    26    51    1
    54    27    52    1
    55    27    53    1
    56    29    54    1
    57    30    55    1
    58    31    56    1
    59    32    57    1
    60    33    58    1
    61    34    59    1
    62    35    60    1
