@<TRIPOS>MOLECULE
*****
 46 47 0 0 0
SMALL
GASTEIGER

@<TRIPOS>ATOM
      1 C           0.9420   -0.0025   -0.0337 C.3     1  UNL1       -0.0306
      2 C           2.4603   -0.0088   -0.0466 C.3     1  UNL1        0.0897
      3 O           2.9299    0.7847   -1.1519 O.3     1  UNL1       -0.4646
      4 C           4.2812    0.8471   -1.2778 C.2     1  UNL1        0.3171
      5 O           5.0482    0.1950   -0.5554 O.2     1  UNL1       -0.2503
      6 C           4.7792    1.7798   -2.3804 C.3     1  UNL1        0.1328
      7 C           5.3123    3.0646   -1.7121 C.3     1  UNL1        0.0650
      8 C           6.3640    2.8179   -0.6485 C.ar    1  UNL1       -0.0226
      9 C           7.5263    2.1015   -0.9961 C.ar    1  UNL1       -0.0531
     10 C           8.4803    1.7782   -0.0351 C.ar    1  UNL1       -0.0162
     11 C           8.3044    2.1967    1.2809 C.ar    1  UNL1        0.1585
     12 O           9.2690    1.8739    2.1941 O.3     1  UNL1       -0.5033
     13 C           7.1675    2.9278    1.6508 C.ar    1  UNL1        0.1620
     14 O           6.8387    3.3962    2.8992 O.3     1  UNL1       -0.4886
     15 C           7.7683    3.0962    3.9338 C.3     1  UNL1        0.0870
     16 C           7.2792    3.6627    5.2457 C.3     1  UNL1       -0.0307
     17 C           6.2099    3.2341    0.6787 C.ar    1  UNL1       -0.0113
     18 N           4.1972    3.9252   -1.3255 N.am    1  UNL1       -0.3187
     19 C           3.1308    4.1301   -2.1532 C.2     1  UNL1        0.1330
     20 S           2.3725    5.5884   -2.3168 S.2     1  UNL1       -0.0188
     21 N           2.7008    2.9901   -2.7679 N.am    1  UNL1       -0.2913
     22 C           3.7126    2.1838   -3.4164 C.3     1  UNL1        0.2444
     23 O           3.0272    1.0234   -3.9081 O.3     1  UNL1       -0.3639
     24 C           4.3426    2.9535   -4.6697 C.3     1  UNL1        0.4363
     25 F           5.4179    3.7118   -4.3686 F       1  UNL1       -0.1660
     26 F           4.7487    2.0929   -5.6330 F       1  UNL1       -0.1660
     27 F           3.4321    3.7839   -5.2399 F       1  UNL1       -0.1660
     28 H           0.5584   -0.6256    0.7806 H       1  UNL1        0.0262
     29 H           0.5444   -0.3809   -0.9809 H       1  UNL1        0.0262
     30 H           0.5552    1.0139    0.0940 H       1  UNL1        0.0262
     31 H           2.8171   -1.0377   -0.1625 H       1  UNL1        0.0694
     32 H           2.8347    0.4083    0.8959 H       1  UNL1        0.0694
     33 H           5.5694    1.2237   -2.9011 H       1  UNL1        0.0484
     34 H           5.8643    3.6742   -2.4325 H       1  UNL1        0.0558
     35 H           7.6850    1.7506   -2.0147 H       1  UNL1        0.0622
     36 H           9.3429    1.1856   -0.3236 H       1  UNL1        0.0655
     37 H           9.9860    1.3806    1.7703 H       1  UNL1        0.2923
     38 H           8.7333    3.5645    3.7110 H       1  UNL1        0.0694
     39 H           7.8581    2.0105    4.0540 H       1  UNL1        0.0694
     40 H           7.1559    4.7466    5.1729 H       1  UNL1        0.0262
     41 H           8.0025    3.4365    6.0347 H       1  UNL1        0.0262
     42 H           6.3108    3.2317    5.5137 H       1  UNL1        0.0262
     43 H           5.3286    3.7820    0.9973 H       1  UNL1        0.0659
     44 H           4.2859    4.5816   -0.5587 H       1  UNL1        0.1483
     45 H           1.7649    2.9773   -3.1530 H       1  UNL1        0.1507
     46 H           2.6516    0.5573   -3.1411 H       1  UNL1        0.2123
@<TRIPOS>BOND
     1     1     2    1
     2     2     3    1
     3     3     4    1
     4     4     5    2
     5     4     6    1
     6     6     7    1
     7     8     9   ar
     8     9    10   ar
     9    10    11   ar
    10    11    12    1
    11    11    13   ar
    12    13    14    1
    13    14    15    1
    14    15    16    1
    15    13    17   ar
    16     8    17   ar
    17     7    18    1
    18    18    19    1
    19    19    20    2
    20    19    21    1
    21    21    22    1
    22     6    22    1
    23    24    25    1
    24    24    26    1
    25    24    27    1
    26    22    24    1
    27    22    23    1
    28     7     8    1
    29     1    28    1
    30     1    29    1
    31     1    30    1
    32     2    31    1
    33     2    32    1
    34     6    33    1
    35     7    34    1
    36     9    35    1
    37    10    36    1
    38    12    37    1
    39    15    38    1
    40    15    39    1
    41    16    40    1
    42    16    41    1
    43    16    42    1
    44    17    43    1
    45    18    44    1
    46    21    45    1
    47    23    46    1
