REMARK  7 active torsions:
REMARK  status: ('A' for Active; 'I' for Inactive)
REMARK    1  A    between atoms: O_2  and  C_3 
REMARK    2  A    between atoms: C_5  and  O_6 
REMARK    3  A    between atoms: C_9  and  C_10 
REMARK       I    between atoms: C_10  and  N_12 
REMARK       I    between atoms: C_13  and  N_14 
REMARK       I    between atoms: C_13  and  N_26 
REMARK    4  A    between atoms: N_14  and  C_15 
REMARK    5  A    between atoms: C_15  and  C_16 
REMARK    6  A    between atoms: C_16  and  C_17 
REMARK    7  A    between atoms: N_26  and  C_27 
ROOT
ATOM      1  C   UNL d   1       3.228  -4.731   0.714  0.00  0.00     0.294 C 
ATOM      2  O   UNL d   1       4.010  -5.572   1.127  0.00  0.00    -0.265 OA
ATOM      3  N   UNL d   1       2.065  -4.999   0.022  0.00  0.00    -0.023 NA
ATOM      4  C   UNL d   1       1.706  -6.239  -0.153  0.00  0.00     0.704 C 
ATOM      5  N   UNL d   1       0.539  -6.496  -0.826  0.00  0.00    -0.224 N 
ATOM      6  N   UNL d   1       2.358  -7.349   0.326  0.00  0.00    -0.190 N 
ATOM      7  H   UNL d   1       0.193  -7.447  -0.789  0.00  0.00     0.177 HD
ATOM      8  H   UNL d   1       3.245  -7.137   0.793  0.00  0.00     0.184 HD
ENDROOT
BRANCH   5   9
ATOM      9  C   UNL d   1      -0.360  -5.466  -1.281  0.00  0.00     0.142 C 
BRANCH   9  10
ATOM     10  C   UNL d   1      -1.576  -6.080  -1.950  0.00  0.00     0.057 C 
BRANCH  10  11
ATOM     11  C   UNL d   1      -2.610  -5.124  -2.457  0.00  0.00    -0.048 A 
ATOM     12  C   UNL d   1      -3.678  -5.577  -3.111  0.00  0.00    -0.006 A 
ATOM     13  C   UNL d   1      -4.058  -6.898  -3.459  0.00  0.00     0.014 A 
ATOM     14  C   UNL d   1      -4.453  -4.400  -3.514  0.00  0.00     0.038 A 
ATOM     15  C   UNL d   1      -5.095  -7.056  -4.285  0.00  0.00     0.001 A 
ATOM     16  C   UNL d   1      -5.909  -5.923  -4.697  0.00  0.00     0.002 A 
ATOM     17  C   UNL d   1      -5.650  -4.644  -4.348  0.00  0.00     0.030 A 
ATOM     18  N   UNL d   1      -3.929  -3.320  -3.068  0.00  0.00    -0.385 N 
ATOM     19  C   UNL d   1      -2.636  -3.624  -2.376  0.00  0.00     0.155 A 
ATOM     20  H   UNL d   1      -4.367  -2.407  -3.190  0.00  0.00     0.160 HD
ENDBRANCH  10  11
ENDBRANCH   9  10
ENDBRANCH   5   9
BRANCH   6  21
ATOM     21  C   UNL d   1       2.220  -8.710   0.005  0.00  0.00     0.049 A 
ATOM     22  C   UNL d   1       2.443  -9.679   0.998  0.00  0.00     0.033 A 
ATOM     23  C   UNL d   1       2.265 -11.037   0.716  0.00  0.00     0.044 A 
ATOM     24  C   UNL d   1       1.792 -11.421  -0.533  0.00  0.00     0.116 A 
ATOM     25  F   UNL d   1       1.536 -12.711  -0.779  0.00  0.00    -0.206 F 
ATOM     26  C   UNL d   1       1.569 -10.482  -1.528  0.00  0.00     0.044 A 
ATOM     27  C   UNL d   1       1.816  -9.138  -1.266  0.00  0.00     0.033 A 
ENDBRANCH   6  21
BRANCH   1  28
ATOM     28  C   UNL d   1       3.540  -3.284   0.929  0.00  0.00     0.040 A 
ATOM     29  C   UNL d   1       4.756  -2.966   1.547  0.00  0.00     0.054 A 
ATOM     30  C   UNL d   1       5.168  -1.641   1.658  0.00  0.00     0.071 A 
ATOM     31  C   UNL d   1       4.305  -0.624   1.240  0.00  0.00     0.073 A 
ATOM     32  C   UNL d   1       3.090  -0.928   0.614  0.00  0.00     0.071 A 
ATOM     33  C   UNL d   1       2.705  -2.261   0.462  0.00  0.00     0.054 A 
BRANCH  30  34
ATOM     34  O   UNL d   1       6.401  -1.248   2.106  0.00  0.00    -0.356 OA
ATOM     35  C   UNL d   1       7.357  -2.293   2.304  0.00  0.00     0.210 C 
ENDBRANCH  30  34
BRANCH  32  36
ATOM     36  O   UNL d   1       2.432   0.140   0.065  0.00  0.00    -0.356 OA
ATOM     37  C   UNL d   1       1.017   0.057  -0.011  0.00  0.00     0.210 C 
ENDBRANCH  32  36
ENDBRANCH   1  28
TORSDOF 7
