@<TRIPOS>MOLECULE
*****
 54 54 0 0 0
SMALL
GASTEIGER

@<TRIPOS>ATOM
      1 C           0.9653    0.0509    0.0399 C.3     1  UNL1       -0.0622
      2 C           2.4909    0.0272    0.0302 C.3     1  UNL1       -0.0214
      3 C           3.0317   -1.2984   -0.5130 C.3     1  UNL1        0.0922
      4 O           4.4762   -1.3141   -0.5196 O.3     1  UNL1       -0.4646
      5 C           5.0158   -2.4778   -0.9967 C.2     1  UNL1        0.3075
      6 O           4.3531   -3.4394   -1.3900 O.2     1  UNL1       -0.2508
      7 C           6.5238   -2.4626   -0.9907 C.3     1  UNL1        0.0532
      8 C           7.1445   -3.7936   -1.5344 C.3     1  UNL1        0.0344
      9 C           8.6639   -3.6915   -1.4815 C.2     1  UNL1        0.2190
     10 O           9.1190   -2.6498   -1.0075 O.2     1  UNL1       -0.2754
     11 N           9.4644   -4.7631   -1.9323 N.am    1  UNL1       -0.2676
     12 C          10.8853   -4.7215   -2.0035 C.2     1  UNL1        0.1408
     13 S          11.7738   -3.3147   -1.6643 S.2     1  UNL1       -0.0182
     14 N          11.5131   -5.9280   -2.4205 N.am    1  UNL1       -0.2966
     15 C          12.9495   -6.1120   -2.4098 C.ar    1  UNL1        0.0326
     16 C          13.6571   -6.6649   -3.4828 C.ar    1  UNL1       -0.0398
     17 C          15.0696   -6.7755   -3.4176 C.ar    1  UNL1       -0.0479
     18 C          15.7997   -6.2858   -2.3141 C.ar    1  UNL1        0.0368
     19 C          17.2957   -6.3048   -2.3486 C.2     1  UNL1        0.2445
     20 O          17.8417   -6.7943   -3.3384 O.2     1  UNL1       -0.2702
     21 N          18.0060   -5.7594   -1.2830 N.am    1  UNL1       -0.3066
     22 C          19.4808   -5.7127   -1.2367 C.3     1  UNL1        0.0265
     23 C          20.0524   -7.1372   -1.2840 C.3     1  UNL1       -0.0442
     24 C          20.0292   -4.8713   -2.3997 C.3     1  UNL1       -0.0442
     25 C          19.9578   -5.0588    0.0788 C.3     1  UNL1       -0.0442
     26 C          15.0873   -5.7761   -1.2382 C.ar    1  UNL1       -0.0479
     27 C          13.6904   -5.7299   -1.2821 C.ar    1  UNL1       -0.0398
     28 H           0.5942    1.0047    0.4307 H       1  UNL1        0.0231
     29 H           0.5618   -0.7485    0.6704 H       1  UNL1        0.0231
     30 H           0.5618   -0.0762   -0.9703 H       1  UNL1        0.0231
     31 H           2.8648    0.1961    1.0467 H       1  UNL1        0.0295
     32 H           2.8648    0.8609   -0.5756 H       1  UNL1        0.0295
     33 H           2.6688   -1.4409   -1.5378 H       1  UNL1        0.0697
     34 H           2.6689   -2.1190    0.1172 H       1  UNL1        0.0697
     35 H           6.8617   -2.2882    0.0405 H       1  UNL1        0.0382
     36 H           6.8642   -1.6160   -1.6030 H       1  UNL1        0.0382
     37 H           6.8172   -3.9541   -2.5664 H       1  UNL1        0.0364
     38 H           6.8106   -4.6315   -0.9143 H       1  UNL1        0.0364
     39 H           8.9903   -5.5990   -2.2493 H       1  UNL1        0.1565
     40 H          10.9971   -6.6111   -2.9633 H       1  UNL1        0.1538
     41 H          13.1680   -6.9411   -4.4142 H       1  UNL1        0.0636
     42 H          15.6119   -7.2280   -4.2505 H       1  UNL1        0.0626
     43 H          17.5186   -5.3363   -0.5076 H       1  UNL1        0.1495
     44 H          19.7639   -7.6655   -2.1964 H       1  UNL1        0.0250
     45 H          19.6859   -7.7300   -0.4376 H       1  UNL1        0.0250
     46 H          21.1464   -7.1284   -1.2481 H       1  UNL1        0.0250
     47 H          19.7370   -5.2741   -3.3730 H       1  UNL1        0.0250
     48 H          21.1237   -4.8348   -2.3800 H       1  UNL1        0.0250
     49 H          19.6538   -3.8424   -2.3488 H       1  UNL1        0.0250
     50 H          19.6075   -5.6130    0.9568 H       1  UNL1        0.0250
     51 H          19.5968   -4.0283    0.1740 H       1  UNL1        0.0250
     52 H          21.0545   -5.0281    0.1247 H       1  UNL1        0.0250
     53 H          15.5664   -5.3955   -0.3459 H       1  UNL1        0.0626
     54 H          13.1851   -5.3462   -0.4008 H       1  UNL1        0.0636
@<TRIPOS>BOND
     1     1     2    1
     2     2     3    1
     3     3     4    1
     4     4     5    1
     5     5     6    2
     6     5     7    1
     7     7     8    1
     8     8     9    1
     9     9    10    2
    10     9    11   am
    11    11    12    1
    12    12    13    2
    13    12    14    1
    14    14    15    1
    15    15    16   ar
    16    16    17   ar
    17    17    18   ar
    18    18    19    1
    19    19    20    2
    20    19    21   am
    21    21    22    1
    22    22    23    1
    23    22    24    1
    24    22    25    1
    25    18    26   ar
    26    26    27   ar
    27    15    27   ar
    28     1    28    1
    29     1    29    1
    30     1    30    1
    31     2    31    1
    32     2    32    1
    33     3    33    1
    34     3    34    1
    35     7    35    1
    36     7    36    1
    37     8    37    1
    38     8    38    1
    39    11    39    1
    40    14    40    1
    41    16    41    1
    42    17    42    1
    43    21    43    1
    44    23    44    1
    45    23    45    1
    46    23    46    1
    47    24    47    1
    48    24    48    1
    49    24    49    1
    50    25    50    1
    51    25    51    1
    52    25    52    1
    53    26    53    1
    54    27    54    1
