REMARK  7 active torsions:
REMARK  status: ('A' for Active; 'I' for Inactive)
REMARK    1  A    between atoms: C_6  and  C_7 
REMARK    2  A    between atoms: C_10  and  C_11 
REMARK       I    between atoms: C_11  and  N_13 
REMARK    3  A    between atoms: N_13  and  N_14 
REMARK       I    between atoms: N_14  and  C_15 
REMARK    4  A    between atoms: C_15  and  C_17 
REMARK    5  A    between atoms: C_17  and  C_18 
REMARK    6  A    between atoms: C_18  and  C_19 
REMARK    7  A    between atoms: C_19  and  C_20 
ROOT
ATOM      1  C   UNL d   1      -4.059   6.278   0.120  0.00  0.00     0.275 C 
ATOM      2  O   UNL d   1      -3.922   7.099  -0.788  0.00  0.00    -0.266 OA
ATOM      3  N   UNL d   1      -4.904   6.508   1.190  0.00  0.00    -0.263 N 
ATOM      4  H   UNL d   1      -5.039   5.829   1.948  0.00  0.00     0.190 HD
ENDROOT
BRANCH   1   5
ATOM      5  C   UNL d   1      -3.313   4.970   0.117  0.00  0.00     0.101 A 
ATOM      6  C   UNL d   1      -2.466   4.688  -0.896  0.00  0.00     0.025 A 
ATOM      7  C   UNL d   1      -1.717   3.445  -0.958  0.00  0.00     0.031 A 
ATOM      8  C   UNL d   1      -1.856   2.526   0.011  0.00  0.00     0.045 A 
ATOM      9  N   UNL d   1      -2.717   2.784   1.052  0.00  0.00    -0.322 N 
ATOM     10  C   UNL d   1      -3.453   3.938   1.187  0.00  0.00     0.261 A 
ATOM     11  H   UNL d   1      -2.812   2.102   1.795  0.00  0.00     0.169 HD
ATOM     12  O   UNL d   1      -4.198   4.108   2.155  0.00  0.00    -0.267 OA
BRANCH   8  13
ATOM     13  C   UNL d   1      -1.124   1.244  -0.000  0.00  0.00    -0.009 A 
ATOM     14  C   UNL d   1      -1.819   0.026  -0.001  0.00  0.00     0.014 A 
ATOM     15  C   UNL d   1      -1.125  -1.188   0.003  0.00  0.00     0.001 A 
ATOM     16  C   UNL d   1       0.269  -1.200   0.004  0.00  0.00     0.007 A 
ATOM     17  C   UNL d   1       0.983   0.003   0.000  0.00  0.00    -0.061 A 
ATOM     18  C   UNL d   1       2.484   0.005  -0.013  0.00  0.00     0.048 C 
ATOM     19  C   UNL d   1       0.279   1.218   0.001  0.00  0.00     0.020 A 
ENDBRANCH   8  13
ENDBRANCH   1   5
BRANCH   3  20
ATOM     20  N   UNL d   1      -5.685   7.687   1.242  0.00  0.00    -0.267 N 
ATOM     21  C   UNL d   1      -6.555   7.863   2.306  0.00  0.00     0.236 C 
ATOM     22  O   UNL d   1      -6.651   7.053   3.225  0.00  0.00    -0.272 OA
ATOM     23  H   UNL d   1      -5.542   8.370   0.501  0.00  0.00     0.190 HD
BRANCH  21  24
ATOM     24  C   UNL d   1      -7.375   9.145   2.248  0.00  0.00     0.105 C 
BRANCH  24  25
ATOM     25  C   UNL d   1      -8.208   9.350   3.540  0.00  0.00     0.014 C 
BRANCH  25  26
ATOM     26  C   UNL d   1      -8.902  10.721   3.632  0.00  0.00     0.039 C 
BRANCH  26  27
ATOM     27  C   UNL d   1      -7.952  11.899   3.675  0.00  0.00    -0.058 C 
ATOM     28  C   UNL d   1      -8.443  13.207   3.638  0.00  0.00     0.007 C 
ATOM     29  C   UNL d   1      -7.554  14.287   3.579  0.00  0.00     0.001 C 
ATOM     30  C   UNL d   1      -6.176  14.070   3.509  0.00  0.00     0.000 C 
ATOM     31  C   UNL d   1      -5.678  12.781   3.572  0.00  0.00     0.001 C 
ATOM     32  C   UNL d   1      -6.559  11.724   3.729  0.00  0.00     0.007 C 
ENDBRANCH  26  27
ENDBRANCH  25  26
ENDBRANCH  24  25
ENDBRANCH  21  24
ENDBRANCH   3  20
TORSDOF 7
