@<TRIPOS>MOLECULE
*****
 32 33 0 0 0
SMALL
GASTEIGER

@<TRIPOS>ATOM
      1 O           1.0301   -0.0640    0.1182 O.2     1  UNL1       -0.2636
      2 C           2.2625   -0.0158    0.0860 C.2     1  UNL1        0.3153
      3 N           3.0100    0.4132    1.1824 N.am    1  UNL1       -0.2286
      4 N           2.3064    0.6285    2.3788 N.pl3   1  UNL1       -0.2627
      5 C           2.9559    1.0936    3.5326 C.ar    1  UNL1        0.0628
      6 C           4.0732    1.9366    3.4573 C.ar    1  UNL1       -0.0366
      7 C           4.7272    2.3797    4.6145 C.ar    1  UNL1       -0.0415
      8 C           4.2944    1.9571    5.8684 C.ar    1  UNL1        0.0425
      9 CL          5.1068    2.5095    7.2811 Cl      1  UNL1       -0.0835
     10 C           3.2085    1.0973    5.9800 C.ar    1  UNL1       -0.0232
     11 C           2.5437    0.6757    4.8204 C.ar    1  UNL1        0.0646
     12 CL          1.2072   -0.4082    5.0157 Cl      1  UNL1       -0.0815
     13 C           3.0050   -0.4264   -1.2179 C.2     1  UNL1        0.3046
     14 O           2.3137   -0.7542   -2.1840 O.2     1  UNL1       -0.2648
     15 N           4.4052   -0.4637   -1.2264 N.am    1  UNL1       -0.2777
     16 C           5.1265   -0.8673   -2.3860 C.ar    1  UNL1        0.0340
     17 C           4.7623   -0.4156   -3.6632 C.ar    1  UNL1       -0.0378
     18 C           5.4534   -0.8450   -4.8012 C.ar    1  UNL1       -0.0247
     19 C           6.5043   -1.7394   -4.6654 C.ar    1  UNL1        0.1235
     20 F           7.1490   -2.1749   -5.7563 F       1  UNL1       -0.2055
     21 C           6.8931   -2.1890   -3.4081 C.ar    1  UNL1       -0.0247
     22 C           6.2201   -1.7348   -2.2626 C.ar    1  UNL1       -0.0378
     23 H           4.0095    0.2986    1.2614 H       1  UNL1        0.1732
     24 H           1.2855    0.5250    2.3727 H       1  UNL1        0.1700
     25 H           4.4114    2.3115    2.4955 H       1  UNL1        0.0637
     26 H           5.5659    3.0666    4.5294 H       1  UNL1        0.0633
     27 H           2.8808    0.7586    6.9601 H       1  UNL1        0.0647
     28 H           4.9071   -0.4780   -0.3529 H       1  UNL1        0.1553
     29 H           3.9450    0.2903   -3.7901 H       1  UNL1        0.0637
     30 H           5.1675   -0.4943   -5.7882 H       1  UNL1        0.0647
     31 H           7.7064   -2.9057   -3.3351 H       1  UNL1        0.0647
     32 H           6.5198   -2.1321   -1.2971 H       1  UNL1        0.0637
@<TRIPOS>BOND
     1     1     2    2
     2     2     3   am
     3     3     4    1
     4     4     5    1
     5     5     6   ar
     6     6     7   ar
     7     7     8   ar
     8     8     9    1
     9     8    10   ar
    10    10    11   ar
    11     5    11   ar
    12    11    12    1
    13     2    13    1
    14    13    14    2
    15    13    15   am
    16    15    16    1
    17    16    17   ar
    18    17    18   ar
    19    18    19   ar
    20    19    20    1
    21    19    21   ar
    22    21    22   ar
    23    16    22   ar
    24     3    23    1
    25     4    24    1
    26     6    25    1
    27     7    26    1
    28    10    27    1
    29    15    28    1
    30    17    29    1
    31    18    30    1
    32    21    31    1
    33    22    32    1
