@<TRIPOS>MOLECULE
*****
 56 59 0 0 0
SMALL
GASTEIGER

@<TRIPOS>ATOM
      1 C          15.3187   -1.2308   -9.8045 C.3     1  UNL1        0.0820
      2 O          14.8207   -1.0010   -8.4761 O.3     1  UNL1       -0.4645
      3 C          14.0390   -2.0099   -8.0013 C.2     1  UNL1        0.3389
      4 O          13.7539   -3.0315   -8.5927 O.2     1  UNL1       -0.2450
      5 C          13.5460   -1.7175   -6.6244 C.ar    1  UNL1        0.0592
      6 C          13.4225   -2.7649   -5.7025 C.ar    1  UNL1       -0.0443
      7 C          12.7824   -2.5539   -4.4678 C.ar    1  UNL1       -0.0192
      8 C          12.3217   -1.2828   -4.1071 C.ar    1  UNL1        0.1207
      9 O          11.7725   -1.1727   -2.8501 O.3     1  UNL1       -0.4890
     10 C          11.4711    0.1584   -2.3951 C.3     1  UNL1        0.1201
     11 C          11.0181    0.1864   -0.8897 C.3     1  UNL1        0.1191
     12 N          11.6468   -0.8262   -0.0468 N.3     1  UNL1       -0.1784
     13 O          12.8158   -0.1659    0.5456 O.3     1  UNL1       -0.2698
     14 C          12.6950    1.2165    0.2531 C.3     1  UNL1        0.2084
     15 C          13.1518    2.1392    1.4214 C.2     1  UNL1        0.2589
     16 O          14.2605    2.0344    1.9507 O.2     1  UNL1       -0.2714
     17 N          12.2909    3.1501    1.8101 N.am    1  UNL1       -0.3117
     18 C          12.6603    4.0136    2.9160 C.3     1  UNL1        0.0156
     19 C          11.5591    4.9861    3.2662 C.3     1  UNL1       -0.0092
     20 C          11.8162    5.9359    4.3929 C.2     1  UNL1        0.0092
     21 C          10.8954    6.8426    4.7181 C.ar    1  UNL1        0.0536
     22 C           9.6210    7.1091    4.1540 C.ar    1  UNL1       -0.0129
     23 C           8.9775    8.2028    4.5623 C.ar    1  UNL1        0.1244
     24 F           7.8464    8.5733    3.9358 F       1  UNL1       -0.2055
     25 C           9.4795    9.0222    5.6495 C.ar    1  UNL1       -0.0202
     26 C          10.6562    8.7955    6.2758 C.ar    1  UNL1        0.0125
     27 C          11.4664    7.6486    5.8024 C.ar    1  UNL1        0.2087
     28 N          12.6164    7.2103    6.1552 N.2     1  UNL1       -0.2369
     29 C          13.0302    6.0720    5.2703 C.3     1  UNL1        0.1661
     30 N          11.3136    1.4604   -0.2084 N.3     1  UNL1       -0.2627
     31 C          12.4516   -0.2414   -5.0309 C.ar    1  UNL1       -0.0192
     32 C          13.0602   -0.4538   -6.2805 C.ar    1  UNL1       -0.0443
     33 H          15.9740   -0.3979  -10.0797 H       1  UNL1        0.0661
     34 H          14.4937   -1.2658  -10.5244 H       1  UNL1        0.0661
     35 H          15.9068   -2.1541   -9.8534 H       1  UNL1        0.0661
     36 H          13.8111   -3.7531   -5.9442 H       1  UNL1        0.0627
     37 H          12.6306   -3.3980   -3.7970 H       1  UNL1        0.0654
     38 H          10.6478    0.5606   -2.9994 H       1  UNL1        0.0727
     39 H          12.3534    0.7966   -2.5253 H       1  UNL1        0.0727
     40 H           9.9366    0.0088   -0.8804 H       1  UNL1        0.0684
     41 H          12.0701   -1.5377   -0.6510 H       1  UNL1        0.1558
     42 H          13.3916    1.4336   -0.5650 H       1  UNL1        0.0888
     43 H          11.3439    3.1101    1.4377 H       1  UNL1        0.1488
     44 H          13.5657    4.5608    2.6295 H       1  UNL1        0.0465
     45 H          12.9000    3.3935    3.7866 H       1  UNL1        0.0465
     46 H          10.6532    4.4144    3.5115 H       1  UNL1        0.0327
     47 H          11.3167    5.5740    2.3684 H       1  UNL1        0.0327
     48 H           9.2187    6.4699    3.3778 H       1  UNL1        0.0654
     49 H           8.8160    9.8298    5.9500 H       1  UNL1        0.0648
     50 H          10.9881    9.4396    7.0816 H       1  UNL1        0.0684
     51 H          13.1406    7.6054    6.9363 H       1  UNL1        0.4459
     52 H          13.2159    5.1882    5.8860 H       1  UNL1        0.1077
     53 H          13.9296    6.3708    4.7211 H       1  UNL1        0.1077
     54 H          11.3107    2.2202   -0.8803 H       1  UNL1        0.1265
     55 H          12.0605    0.7490   -4.8264 H       1  UNL1        0.0654
     56 H          13.1169    0.3667   -6.9913 H       1  UNL1        0.0627
@<TRIPOS>UNITY_ATOM_ATTR
28 1
charge 1
@<TRIPOS>BOND
     1     1     2    1
     2     2     3    1
     3     3     4    2
     4     3     5    1
     5     5     6   ar
     6     6     7   ar
     7     7     8   ar
     8     8     9    1
     9     9    10    1
    10    11    12    1
    11    12    13    1
    12    13    14    1
    13    15    16    2
    14    15    17   am
    15    17    18    1
    16    18    19    1
    17    19    20    1
    18    20    21    2
    19    21    22   ar
    20    22    23   ar
    21    23    24    1
    22    23    25   ar
    23    25    26   ar
    24    26    27   ar
    25    21    27   ar
    26    27    28    2
    27    28    29    1
    28    20    29    1
    29    14    30    1
    30    11    30    1
    31     8    31   ar
    32    31    32   ar
    33     5    32   ar
    34    14    15    1
    35    11    10    1
    36     1    33    1
    37     1    34    1
    38     1    35    1
    39     6    36    1
    40     7    37    1
    41    10    38    1
    42    10    39    1
    43    11    40    1
    44    12    41    1
    45    14    42    1
    46    17    43    1
    47    18    44    1
    48    18    45    1
    49    19    46    1
    50    19    47    1
    51    22    48    1
    52    25    49    1
    53    26    50    1
    54    28    51    1
    55    29    52    1
    56    29    53    1
    57    30    54    1
    58    31    55    1
    59    32    56    1
