@<TRIPOS>MOLECULE
*****
 41 43 0 0 0
SMALL
GASTEIGER

@<TRIPOS>ATOM
      1 C           2.5128   -0.0881   -0.0128 C.3     1  UNL1       -0.0333
      2 C           1.0101   -0.0043    0.0019 C.ar    1  UNL1        0.0273
      3 C           0.2626   -1.2106    0.0051 C.ar    1  UNL1       -0.0403
      4 C          -1.1447   -1.2179    0.0018 C.ar    1  UNL1        0.0374
      5 C          -1.8647   -2.5454    0.0083 C.2     1  UNL1        0.2445
      6 O          -1.2475   -3.6053    0.0197 O.2     1  UNL1       -0.2702
      7 N          -3.2448   -2.5210    0.0035 N.am    1  UNL1       -0.3014
      8 C          -4.0356   -3.7409    0.0137 C.3     1  UNL1        0.0983
      9 C          -5.4966   -3.4327    0.0063 C.ar    1  UNL1        0.2178
     10 C          -6.1682   -2.2246    0.0015 C.ar    1  UNL1        0.0836
     11 N          -7.5254   -2.4747   -0.0051 N.ar    1  UNL1       -0.2620
     12 C          -8.5882   -1.5680   -0.0124 C.ar    1  UNL1        0.0261
     13 C          -8.3947   -0.0793   -0.0195 C.3     1  UNL1       -0.0237
     14 C          -9.8291   -2.1044   -0.0154 C.ar    1  UNL1       -0.0418
     15 C         -10.0907   -3.5373   -0.0142 C.ar    1  UNL1       -0.0523
     16 C          -9.0658   -4.4056   -0.0088 C.ar    1  UNL1        0.0293
     17 C          -7.7081   -3.8096   -0.0034 C.ar    1  UNL1        0.2885
     18 N          -6.5071   -4.3907    0.0027 N.ar    1  UNL1       -0.1905
     19 C          -1.8098    0.0155   -0.0065 C.ar    1  UNL1       -0.0432
     20 C          -1.0913    1.2194   -0.0006 C.ar    1  UNL1        0.0166
     21 C           0.3140    1.2218    0.0025 C.ar    1  UNL1        0.2760
     22 N           0.9948    2.5420   -0.0006 N.pl3   1  UNL1        0.0799
     23 O           0.2724    3.5494   -0.0061 O.2     1  UNL1        0.0414
     24 O           2.2297    2.5843    0.0018 O.co2   1  UNL1       -0.5760
     25 H           2.8711   -1.1210   -0.0040 H       1  UNL1        0.0280
     26 H           2.9261    0.4021    0.8750 H       1  UNL1        0.0280
     27 H           2.9018    0.3810   -0.9230 H       1  UNL1        0.0280
     28 H           0.7932   -2.1652    0.0072 H       1  UNL1        0.0630
     29 H          -3.7014   -1.6290   -0.0047 H       1  UNL1        0.1496
     30 H          -3.7906   -4.3196    0.9107 H       1  UNL1        0.0572
     31 H          -3.7853   -4.3375   -0.8700 H       1  UNL1        0.0572
     32 H          -5.8181   -1.2085    0.0018 H       1  UNL1        0.0879
     33 H          -7.3452    0.2191   -0.0151 H       1  UNL1        0.0292
     34 H          -8.8615    0.3692    0.8638 H       1  UNL1        0.0292
     35 H          -8.8503    0.3578   -0.9145 H       1  UNL1        0.0292
     36 H         -10.7035   -1.4549   -0.0208 H       1  UNL1        0.0635
     37 H         -11.1244   -3.8725   -0.0193 H       1  UNL1        0.0621
     38 H          -9.1980   -5.4782   -0.0089 H       1  UNL1        0.0700
     39 H          -6.3709   -5.3982    0.0044 H       1  UNL1        0.4548
     40 H          -2.8887    0.1006   -0.0187 H       1  UNL1        0.0627
     41 H          -1.6494    2.1559   -0.0012 H       1  UNL1        0.0685
@<TRIPOS>UNITY_ATOM_ATTR
18 1
charge 1
22 1
charge 1
24 1
charge -1
@<TRIPOS>BOND
     1     1     2    1
     2     2     3   ar
     3     3     4   ar
     4     4     5    1
     5     5     6    2
     6     5     7   am
     7     7     8    1
     8     8     9    1
     9     9    10   ar
    10    10    11   ar
    11    11    12   ar
    12    12    13    1
    13    12    14   ar
    14    14    15   ar
    15    15    16   ar
    16    16    17   ar
    17    11    17   ar
    18    17    18   ar
    19     9    18   ar
    20     4    19   ar
    21    19    20   ar
    22    20    21   ar
    23     2    21   ar
    24    21    22    1
    25    22    23    2
    26    22    24    1
    27     1    25    1
    28     1    26    1
    29     1    27    1
    30     3    28    1
    31     7    29    1
    32     8    30    1
    33     8    31    1
    34    10    32    1
    35    13    33    1
    36    13    34    1
    37    13    35    1
    38    14    36    1
    39    15    37    1
    40    16    38    1
    41    18    39    1
    42    19    40    1
    43    20    41    1
