REMARK  14 active torsions:
REMARK  status: ('A' for Active; 'I' for Inactive)
REMARK    1  A    between atoms: C_2  and  C_3 
REMARK    2  A    between atoms: C_3  and  C_4 
REMARK    3  A    between atoms: C_4  and  C_5 
REMARK    4  A    between atoms: C_5  and  C_6 
REMARK    5  A    between atoms: C_6  and  O_7 
REMARK    6  A    between atoms: O_7  and  C_8 
REMARK    7  A    between atoms: C_13  and  C_14 
REMARK       I    between atoms: C_14  and  N_16 
REMARK    8  A    between atoms: N_16  and  C_17 
REMARK    9  A    between atoms: C_17  and  N_19 
REMARK   10  A    between atoms: C_25  and  C_26 
REMARK   11  A    between atoms: C_26  and  C_27 
REMARK   12  A    between atoms: C_27  and  O_29 
REMARK   13  A    between atoms: O_29  and  C_30 
REMARK   14  A    between atoms: C_30  and  C_32 
ROOT
ATOM      1  C   UNL d   1       6.893   2.482   1.515  0.00  0.00     0.177 C 
ATOM      2  S   UNL d   1       7.874   3.390   0.479  0.00  0.00    -0.041 SA
ENDROOT
BRANCH   1   3
ATOM      3  N   UNL d   1       7.372   1.832   2.680  0.00  0.00    -0.299 N 
ATOM      4  C   UNL d   1       8.734   1.494   2.916  0.00  0.00     0.260 C 
ATOM      5  O   UNL d   1       9.669   2.079   2.369  0.00  0.00    -0.267 OA
ATOM      6  H   UNL d   1       6.708   1.376   3.292  0.00  0.00     0.171 HD
BRANCH   4   7
ATOM      7  C   UNL d   1       9.166   0.398   3.865  0.00  0.00     0.065 A 
ATOM      8  C   UNL d   1      10.545   0.398   4.219  0.00  0.00     0.020 A 
ATOM      9  C   UNL d   1      11.098  -0.513   5.129  0.00  0.00     0.001 A 
ATOM     10  C   UNL d   1      10.282  -1.466   5.714  0.00  0.00     0.003 A 
ATOM     11  C   UNL d   1       8.945  -1.549   5.318  0.00  0.00     0.038 A 
ATOM     12  C   UNL d   1       8.386  -0.632   4.396  0.00  0.00     0.084 A 
BRANCH  12  13
ATOM     13  O   UNL d   1       7.042  -0.760   4.217  0.00  0.00    -0.350 OA
BRANCH  13  14
ATOM     14  C   UNL d   1       6.617  -1.048   2.888  0.00  0.00     0.175 C 
BRANCH  14  15
ATOM     15  C   UNL d   1       5.086  -1.021   2.943  0.00  0.00     0.027 C 
BRANCH  15  16
ATOM     16  C   UNL d   1       4.539  -0.979   1.517  0.00  0.00     0.002 C 
BRANCH  16  17
ATOM     17  C   UNL d   1       2.999  -1.127   1.366  0.00  0.00    -0.000 C 
BRANCH  17  18
ATOM     18  C   UNL d   1       2.289  -0.976  -0.041  0.00  0.00    -0.005 C 
ATOM     19  C   UNL d   1       0.800  -0.597   0.065  0.00  0.00     0.005 C 
ENDBRANCH  17  18
ENDBRANCH  16  17
ENDBRANCH  15  16
ENDBRANCH  14  15
ENDBRANCH  13  14
ENDBRANCH  12  13
ENDBRANCH   4   7
ENDBRANCH   1   3
BRANCH   1  20
ATOM     20  N   UNL d   1       5.542   2.277   1.158  0.00  0.00    -0.343 N 
ATOM     21  C   UNL d   1       5.134   2.364  -0.281  0.00  0.00     0.146 C 
ATOM     22  C   UNL d   1       4.117   1.325  -0.607  0.00  0.00     0.142 C 
ATOM     23  N   UNL d   1       2.975   1.615   0.267  0.00  0.00    -0.358 N 
ATOM     24  C   UNL d   1       3.089   1.704   1.617  0.00  0.00     0.241 C 
ATOM     25  H   UNL d   1       2.028   1.421  -0.018  0.00  0.00     0.162 HD
ATOM     26  O   UNL d   1       2.079   1.584   2.338  0.00  0.00    -0.271 OA
ATOM     27  C   UNL d   1       4.396   2.295   2.115  0.00  0.00     0.188 C 
BRANCH  27  28
ATOM     28  C   UNL d   1       3.807   3.680   2.378  0.00  0.00     0.146 C 
BRANCH  28  29
ATOM     29  C   UNL d   1       3.288   3.552   3.787  0.00  0.00     0.261 C 
ATOM     30  O   UNL d   1       3.859   2.902   4.637  0.00  0.00    -0.265 OA
BRANCH  29  31
ATOM     31  O   UNL d   1       2.115   4.225   3.960  0.00  0.00    -0.316 OA
BRANCH  31  32
ATOM     32  C   UNL d   1       1.677   4.233   5.332  0.00  0.00     0.127 C 
ATOM     33  C   UNL d   1       2.743   4.957   6.162  0.00  0.00     0.040 C 
BRANCH  32  34
ATOM     34  C   UNL d   1       0.344   4.989   5.394  0.00  0.00     0.027 C 
ATOM     35  C   UNL d   1      -0.160   5.142   6.822  0.00  0.00     0.007 C 
ENDBRANCH  32  34
ENDBRANCH  31  32
ENDBRANCH  29  31
ENDBRANCH  28  29
ENDBRANCH  27  28
ENDBRANCH   1  20
TORSDOF 14
