@<TRIPOS>MOLECULE
*****
 38 40 0 0 0
SMALL
GASTEIGER

@<TRIPOS>ATOM
      1 N           1.0362    0.0304   -0.1277 N.am    1  UNL1       -0.3240
      2 C           2.3904    0.1643   -0.2920 C.2     1  UNL1        0.2623
      3 O           2.9379    1.2617   -0.3432 O.2     1  UNL1       -0.2687
      4 C           3.1122   -1.0946   -0.4054 C.ar    1  UNL1        0.1557
      5 N           2.7823   -1.9398   -1.4513 N.ar    1  UNL1       -0.2181
      6 C           3.6038   -2.9549   -1.5429 C.ar    1  UNL1        0.1648
      7 N           3.4848   -3.9059   -2.5115 N.pl3   1  UNL1       -0.2937
      8 C           2.6079   -3.7763   -3.6184 C.ar    1  UNL1        0.0328
      9 C           1.6878   -4.7902   -3.9225 C.ar    1  UNL1       -0.0405
     10 C           0.8197   -4.6736   -5.0196 C.ar    1  UNL1       -0.0600
     11 C           0.8336   -3.5247   -5.8077 C.ar    1  UNL1       -0.0616
     12 C           1.7450   -2.5119   -5.5252 C.ar    1  UNL1       -0.0600
     13 C           2.6286   -2.6425   -4.4461 C.ar    1  UNL1       -0.0405
     14 S           4.8009   -2.9823   -0.2718 S.2     1  UNL1       -0.0364
     15 C           4.1469   -1.5379    0.4082 C.ar    1  UNL1        0.1059
     16 N           4.7218   -1.0454    1.5924 N.am    1  UNL1       -0.2739
     17 C           4.0700   -0.0553    2.3262 C.2     1  UNL1        0.2542
     18 O           2.8914    0.2530    2.1427 O.2     1  UNL1       -0.2696
     19 C           4.7283    0.6818    3.4222 C.ar    1  UNL1        0.1072
     20 C           3.9053    1.3922    4.3174 C.ar    1  UNL1        0.1383
     21 F           2.5719    1.2358    4.3244 F       1  UNL1       -0.2046
     22 C           4.4272    2.2754    5.2565 C.ar    1  UNL1       -0.0255
     23 C           5.8035    2.4057    5.3763 C.ar    1  UNL1       -0.0563
     24 C           6.6411    1.6906    4.5145 C.ar    1  UNL1       -0.0255
     25 C           6.1026    0.8463    3.5333 C.ar    1  UNL1        0.1383
     26 F           6.9426    0.2195    2.6976 F       1  UNL1       -0.2046
     27 H           0.5558    0.8283    0.2606 H       1  UNL1        0.1453
     28 H           0.5919   -0.8765   -0.1206 H       1  UNL1        0.1453
     29 H           4.1281   -4.6839   -2.5744 H       1  UNL1        0.1541
     30 H           1.5977   -5.6600   -3.2776 H       1  UNL1        0.0636
     31 H           0.1224   -5.4745   -5.2542 H       1  UNL1        0.0618
     32 H           0.1320   -3.4141   -6.6316 H       1  UNL1        0.0618
     33 H           1.7691   -1.6156   -6.1402 H       1  UNL1        0.0618
     34 H           3.3324   -1.8380   -4.2477 H       1  UNL1        0.0636
     35 H           5.5733   -1.4723    1.9404 H       1  UNL1        0.1557
     36 H           3.7442    2.8531    5.8744 H       1  UNL1        0.0646
     37 H           6.2155    3.0618    6.1391 H       1  UNL1        0.0619
     38 H           7.7185    1.8108    4.5889 H       1  UNL1        0.0646
@<TRIPOS>BOND
     1     1     2   am
     2     2     3    2
     3     2     4    1
     4     4     5   ar
     5     5     6   ar
     6     6     7    1
     7     7     8    1
     8     8     9   ar
     9     9    10   ar
    10    10    11   ar
    11    11    12   ar
    12    12    13   ar
    13     8    13   ar
    14     6    14   ar
    15    14    15   ar
    16     4    15   ar
    17    15    16    1
    18    16    17   am
    19    17    18    2
    20    17    19    1
    21    19    20   ar
    22    20    21    1
    23    20    22   ar
    24    22    23   ar
    25    23    24   ar
    26    24    25   ar
    27    19    25   ar
    28    25    26    1
    29     1    27    1
    30     1    28    1
    31     7    29    1
    32     9    30    1
    33    10    31    1
    34    11    32    1
    35    12    33    1
    36    13    34    1
    37    16    35    1
    38    22    36    1
    39    23    37    1
    40    24    38    1
