@<TRIPOS>MOLECULE
*****
 38 40 0 0 0
SMALL
GASTEIGER

@<TRIPOS>ATOM
      1 C           2.4063    1.5233   -0.0403 C.3     1  UNL1        0.0119
      2 N           1.5364    0.3706    0.0039 N.ar    1  UNL1       -0.3494
      3 C           1.9880   -0.9114    0.0097 C.ar    1  UNL1        0.0090
      4 C           0.9249   -1.7946   -0.0050 C.ar    1  UNL1       -0.0134
      5 C           1.0148   -3.3154   -0.0288 C.3     1  UNL1        0.0525
      6 C           2.4549   -3.8876   -0.0678 C.2     1  UNL1        0.2334
      7 O           3.4924   -3.2150    0.0073 O.2     1  UNL1       -0.2739
      8 N           2.5845   -5.2682   -0.2078 N.am    1  UNL1       -0.2362
      9 N           3.8814   -5.7377    0.0845 N.pl3   1  UNL1       -0.2644
     10 C           4.2063   -7.0875   -0.0709 C.ar    1  UNL1        0.0458
     11 C           3.5173   -7.9521   -0.9268 C.ar    1  UNL1       -0.0393
     12 C           3.8206   -9.3182   -0.9679 C.ar    1  UNL1       -0.0586
     13 C           4.8017   -9.8438   -0.1296 C.ar    1  UNL1       -0.0433
     14 C           5.4944   -8.9944    0.7268 C.ar    1  UNL1        0.0428
     15 CL          6.6793   -9.6460    1.7931 Cl      1  UNL1       -0.0835
     16 C           5.2170   -7.6257    0.7429 C.ar    1  UNL1       -0.0210
     17 C          -0.2572   -0.9551   -0.0024 C.ar    1  UNL1        0.0035
     18 C          -1.6510   -1.1944   -0.0185 C.ar    1  UNL1       -0.0523
     19 C          -2.5484   -0.1118   -0.0201 C.ar    1  UNL1       -0.0611
     20 C          -2.0873    1.2009    0.0039 C.ar    1  UNL1       -0.0598
     21 C          -0.7214    1.4711    0.0240 C.ar    1  UNL1       -0.0376
     22 C           0.1662    0.3845    0.0134 C.ar    1  UNL1        0.0491
     23 H           3.4491    1.1916   -0.0333 H       1  UNL1        0.0456
     24 H           2.2134    2.1418    0.8384 H       1  UNL1        0.0456
     25 H           2.2054    2.0708   -0.9639 H       1  UNL1        0.0456
     26 H           3.0537   -1.0838    0.0102 H       1  UNL1        0.0812
     27 H           0.4779   -3.6839   -0.9118 H       1  UNL1        0.0408
     28 H           0.5045   -3.7116    0.8594 H       1  UNL1        0.0408
     29 H           1.8252   -5.9023    0.0209 H       1  UNL1        0.1727
     30 H           4.6279   -5.0338    0.0340 H       1  UNL1        0.1700
     31 H           2.7584   -7.5626   -1.5993 H       1  UNL1        0.0636
     32 H           3.2873   -9.9720   -1.6530 H       1  UNL1        0.0619
     33 H           5.0212  -10.9081   -0.1492 H       1  UNL1        0.0632
     34 H           5.7613   -6.9791    1.4278 H       1  UNL1        0.0651
     35 H          -2.0396   -2.2077   -0.0352 H       1  UNL1        0.0624
     36 H          -3.6198   -0.2969   -0.0415 H       1  UNL1        0.0618
     37 H          -2.7924    2.0290    0.0039 H       1  UNL1        0.0618
     38 H          -0.3588    2.4943    0.0423 H       1  UNL1        0.0638
@<TRIPOS>BOND
     1     1     2    1
     2     2     3   ar
     3     3     4   ar
     4     4     5    1
     5     5     6    1
     6     6     7    2
     7     6     8   am
     8     8     9    1
     9     9    10    1
    10    10    11   ar
    11    11    12   ar
    12    12    13   ar
    13    13    14   ar
    14    14    15    1
    15    14    16   ar
    16    10    16   ar
    17     4    17   ar
    18    17    18   ar
    19    18    19   ar
    20    19    20   ar
    21    20    21   ar
    22    21    22   ar
    23    17    22   ar
    24     2    22   ar
    25     1    23    1
    26     1    24    1
    27     1    25    1
    28     3    26    1
    29     5    27    1
    30     5    28    1
    31     8    29    1
    32     9    30    1
    33    11    31    1
    34    12    32    1
    35    13    33    1
    36    16    34    1
    37    18    35    1
    38    19    36    1
    39    20    37    1
    40    21    38    1
