@<TRIPOS>MOLECULE
*****
 46 47 0 0 0
SMALL
GASTEIGER

@<TRIPOS>ATOM
      1 C           1.1193    0.1384    0.2483 C.3     1  UNL1       -0.0605
      2 C           2.6232   -0.0348    0.0690 C.3     1  UNL1       -0.0197
      3 C           3.1235   -0.4672    1.4555 C.3     1  UNL1       -0.0605
      4 C           3.0780   -1.0539   -1.0473 C.3     1  UNL1        0.1034
      5 N           2.4878   -0.7817   -2.3778 N.am    1  UNL1       -0.2880
      6 C           1.1901   -0.7324   -2.7798 C.2     1  UNL1        0.2977
      7 N           0.2540   -1.3005   -1.9938 N.am    1  UNL1       -0.3133
      8 O           0.8677   -0.1727   -3.8210 O.2     1  UNL1       -0.2531
      9 C           4.6569   -0.9952   -1.1052 C.2     1  UNL1        0.2378
     10 O           5.2832   -0.2116   -0.3853 O.2     1  UNL1       -0.2734
     11 N           5.3267   -1.8539   -1.9668 N.am    1  UNL1       -0.2840
     12 C           6.7496   -1.9312   -1.9599 C.ar    1  UNL1        0.0337
     13 C           7.4910   -2.0210   -3.1408 C.ar    1  UNL1       -0.0370
     14 C           8.8977   -2.1607   -3.0908 C.ar    1  UNL1       -0.0176
     15 C           9.5786   -2.1317   -1.8639 C.ar    1  UNL1        0.1286
     16 O          10.9627   -2.1069   -1.8945 O.3     1  UNL1       -0.4560
     17 C          11.6683   -2.1148   -0.7048 C.ar    1  UNL1        0.1285
     18 C          12.5927   -1.0971   -0.4537 C.ar    1  UNL1       -0.0181
     19 C          13.4101   -1.1566    0.6869 C.ar    1  UNL1       -0.0409
     20 C          13.2290   -2.1696    1.6367 C.ar    1  UNL1        0.0520
     21 C          13.9492   -2.1426    2.8743 C.1     1  UNL1        0.0992
     22 N          14.5065   -2.1022    3.8997 N.1     1  UNL1       -0.1909
     23 C          12.2998   -3.1826    1.3846 C.ar    1  UNL1       -0.0409
     24 C          11.5525   -3.1723    0.2025 C.ar    1  UNL1       -0.0181
     25 C           8.8268   -2.0505   -0.6968 C.ar    1  UNL1       -0.0176
     26 C           7.4377   -1.9578   -0.7449 C.ar    1  UNL1       -0.0370
     27 H           0.8512    0.8538    1.0284 H       1  UNL1        0.0233
     28 H           0.6752   -0.8162    0.5533 H       1  UNL1        0.0233
     29 H           0.6715    0.5453   -0.6559 H       1  UNL1        0.0233
     30 H           3.0280    0.9558   -0.1806 H       1  UNL1        0.0318
     31 H           2.7574   -1.4717    1.6926 H       1  UNL1        0.0233
     32 H           2.7543    0.2257    2.2182 H       1  UNL1        0.0233
     33 H           4.2082   -0.4807    1.5500 H       1  UNL1        0.0233
     34 H           2.7775   -2.0713   -0.7730 H       1  UNL1        0.0598
     35 H           3.0951   -0.3467   -3.0631 H       1  UNL1        0.1510
     36 H           0.4903   -1.6726   -1.0933 H       1  UNL1        0.1465
     37 H          -0.6755   -0.8944   -2.0578 H       1  UNL1        0.1465
     38 H           4.8221   -2.3312   -2.7022 H       1  UNL1        0.1549
     39 H           7.0093   -1.8937   -4.1076 H       1  UNL1        0.0637
     40 H           9.4560   -2.2736   -4.0191 H       1  UNL1        0.0655
     41 H          12.6783   -0.2489   -1.1292 H       1  UNL1        0.0655
     42 H          14.1890   -0.4092    0.8318 H       1  UNL1        0.0631
     43 H          12.1510   -3.9908    2.0976 H       1  UNL1        0.0631
     44 H          10.8388   -3.9693    0.0141 H       1  UNL1        0.0655
     45 H           9.2841   -2.0535    0.2846 H       1  UNL1        0.0655
     46 H           6.9088   -1.9075    0.2021 H       1  UNL1        0.0637
@<TRIPOS>BOND
     1     1     2    1
     2     2     3    1
     3     2     4    1
     4     4     5    1
     5     5     6   am
     6     6     7   am
     7     6     8    2
     8     4     9    1
     9     9    10    2
    10     9    11   am
    11    11    12    1
    12    12    13   ar
    13    13    14   ar
    14    14    15   ar
    15    15    16    1
    16    16    17    1
    17    17    18   ar
    18    18    19   ar
    19    19    20   ar
    20    20    21    1
    21    21    22    3
    22    20    23   ar
    23    23    24   ar
    24    17    24   ar
    25    15    25   ar
    26    25    26   ar
    27    12    26   ar
    28     1    27    1
    29     1    28    1
    30     1    29    1
    31     2    30    1
    32     3    31    1
    33     3    32    1
    34     3    33    1
    35     4    34    1
    36     5    35    1
    37     7    36    1
    38     7    37    1
    39    11    38    1
    40    13    39    1
    41    14    40    1
    42    18    41    1
    43    19    42    1
    44    23    43    1
    45    24    44    1
    46    25    45    1
    47    26    46    1
