REMARK  8 active torsions:
REMARK  status: ('A' for Active; 'I' for Inactive)
REMARK    1  A    between atoms: C_2  and  C_3 
REMARK    2  A    between atoms: C_3  and  N_4 
REMARK    3  A    between atoms: C_3  and  C_20 
REMARK       I    between atoms: N_4  and  C_5 
REMARK       I    between atoms: C_5  and  N_7 
REMARK    4  A    between atoms: N_7  and  N_8 
REMARK       I    between atoms: N_8  and  C_9 
REMARK    5  A    between atoms: C_9  and  C_11 
REMARK    6  A    between atoms: C_11  and  C_12 
REMARK    7  A    between atoms: C_12  and  O_13 
REMARK    8  A    between atoms: O_13  and  C_14 
ROOT
ATOM      1  N   UNL d   1      -0.713   1.308  -3.983  0.00  0.00    -0.266 N 
ATOM      2  C   UNL d   1      -1.116   2.078  -5.063  0.00  0.00     0.238 C 
ATOM      3  O   UNL d   1      -0.295   2.612  -5.811  0.00  0.00    -0.272 OA
ATOM      4  H   UNL d   1      -1.347   0.839  -3.337  0.00  0.00     0.190 HD
ENDROOT
BRANCH   1   5
ATOM      5  N   UNL d   1       0.689   1.188  -3.671  0.00  0.00    -0.249 N 
ATOM      6  C   UNL d   1       1.078   0.185  -2.794  0.00  0.00     0.335 C 
ATOM      7  N   UNL d   1       2.409   0.235  -2.402  0.00  0.00    -0.337 N 
ATOM      8  O   UNL d   1       0.248  -0.593  -2.322  0.00  0.00    -0.246 OA
ATOM      9  H   UNL d   1       3.053   0.739  -2.993  0.00  0.00     0.164 HD
ATOM     10  H   UNL d   1       1.324   1.591  -4.355  0.00  0.00     0.192 HD
BRANCH   7  11
ATOM     11  C   UNL d   1       2.970  -0.547  -1.258  0.00  0.00     0.089 C 
BRANCH  11  12
ATOM     12  C   UNL d   1       2.508   0.043   0.102  0.00  0.00     0.021 C 
ATOM     13  C   UNL d   1       1.008   0.083   0.294  0.00  0.00     0.007 C 
ENDBRANCH  11  12
BRANCH  11  14
ATOM     14  C   UNL d   1       4.543  -0.606  -1.256  0.00  0.00     0.000 C 
ATOM     15  C   UNL d   1       5.117  -1.421  -0.074  0.00  0.00     0.011 C 
ATOM     16  C   UNL d   1       5.096  -1.216  -2.545  0.00  0.00     0.011 C 
ENDBRANCH  11  14
ENDBRANCH   7  11
ENDBRANCH   1   5
BRANCH   2  17
ATOM     17  C   UNL d   1      -2.629   2.226  -5.267  0.00  0.00     0.131 C 
BRANCH  17  18
ATOM     18  C   UNL d   1      -2.942   3.091  -6.506  0.00  0.00     0.185 C 
BRANCH  18  19
ATOM     19  O   UNL d   1      -4.364   3.258  -6.655  0.00  0.00    -0.351 OA
BRANCH  19  20
ATOM     20  C   UNL d   1      -4.752   4.027  -7.729  0.00  0.00     0.068 A 
ATOM     21  C   UNL d   1      -5.783   4.944  -7.502  0.00  0.00     0.037 A 
ATOM     22  C   UNL d   1      -6.316   5.698  -8.554  0.00  0.00     0.003 A 
ATOM     23  C   UNL d   1      -5.792   5.572  -9.838  0.00  0.00     0.000 A 
ATOM     24  C   UNL d   1      -4.771   4.653 -10.076  0.00  0.00     0.003 A 
ATOM     25  C   UNL d   1      -4.263   3.871  -9.028  0.00  0.00     0.037 A 
ENDBRANCH  19  20
ENDBRANCH  18  19
ENDBRANCH  17  18
ENDBRANCH   2  17
TORSDOF 8
