REMARK  7 active torsions:
REMARK  status: ('A' for Active; 'I' for Inactive)
REMARK    1  A    between atoms: C_2  and  C_3 
REMARK    2  A    between atoms: C_3  and  C_4 
REMARK    3  A    between atoms: C_4  and  N_5 
REMARK       I    between atoms: N_5  and  C_6 
REMARK    4  A    between atoms: C_6  and  C_8 
REMARK    5  A    between atoms: C_11  and  C_12 
REMARK    6  A    between atoms: C_12  and  N_13 
REMARK       I    between atoms: N_13  and  C_14 
REMARK    7  A    between atoms: C_14  and  C_16 
ROOT
ATOM      1  C   UNL d   1       6.947  -2.475   3.797  0.00  0.00     0.032 A 
ATOM      2  C   UNL d   1       8.136  -2.119   4.445  0.00  0.00     0.017 A 
ATOM      3  C   UNL d   1       8.757  -3.010   5.338  0.00  0.00     0.010 A 
ATOM      4  C   UNL d   1       8.163  -4.245   5.661  0.00  0.00    -0.040 A 
ATOM      5  C   UNL d   1       6.961  -4.569   5.010  0.00  0.00     0.010 A 
ATOM      6  C   UNL d   1       6.353  -3.698   4.098  0.00  0.00     0.017 A 
ENDROOT
BRANCH   4   7
ATOM      7  C   UNL d   1       8.810  -5.140   6.711  0.00  0.00     0.161 C 
BRANCH   7   8
ATOM      8  N   UNL d   1       8.100  -6.381   6.984  0.00  0.00    -0.351 N 
ATOM      9  C   UNL d   1       8.475  -7.255   7.984  0.00  0.00     0.272 C 
ATOM     10  O   UNL d   1       9.458  -7.054   8.700  0.00  0.00    -0.266 OA
ATOM     11  H   UNL d   1       7.197  -6.546   6.573  0.00  0.00     0.163 HD
BRANCH   9  12
ATOM     12  C   UNL d   1       7.602  -8.447   8.111  0.00  0.00     0.145 A 
ATOM     13  C   UNL d   1       7.036  -9.219   7.052  0.00  0.00     0.058 A 
ATOM     14  C   UNL d   1       6.352 -10.245   7.660  0.00  0.00     0.112 A 
ATOM     15  N   UNL d   1       6.506 -10.048   8.999  0.00  0.00    -0.289 N 
ATOM     16  N   UNL d   1       7.245  -8.967   9.301  0.00  0.00    -0.170 NA
ATOM     17  H   UNL d   1       6.143 -10.614   9.760  0.00  0.00     0.188 HD
ENDBRANCH   9  12
ENDBRANCH   7   8
ENDBRANCH   4   7
BRANCH   1  18
ATOM     18  C   UNL d   1       6.452  -1.649   2.663  0.00  0.00     0.251 C 
ATOM     19  N   UNL d   1       5.086  -1.586   2.457  0.00  0.00    -0.357 N 
ATOM     20  H   UNL d   1       4.447  -1.993   3.127  0.00  0.00     0.162 HD
ATOM     21  O   UNL d   1       7.266  -1.087   1.936  0.00  0.00    -0.268 OA
BRANCH  19  22
ATOM     22  C   UNL d   1       4.556  -0.837   1.331  0.00  0.00     0.123 C 
BRANCH  22  23
ATOM     23  C   UNL d   1       3.031  -0.824   1.304  0.00  0.00     0.019 C 
BRANCH  23  24
ATOM     24  C   UNL d   1       2.500  -0.031   0.108  0.00  0.00    -0.003 C 
ATOM     25  C   UNL d   1       0.980  -0.020   0.092  0.00  0.00     0.005 C 
ENDBRANCH  23  24
ENDBRANCH  22  23
ENDBRANCH  19  22
ENDBRANCH   1  18
TORSDOF 7
