REMARK  4 active torsions:
REMARK  status: ('A' for Active; 'I' for Inactive)
REMARK       I    between atoms: C_2  and  N_4 
REMARK    1  A    between atoms: N_4  and  C_5 
REMARK    2  A    between atoms: C_9  and  N_10 
REMARK    3  A    between atoms: C_11  and  C_12 
REMARK    4  A    between atoms: C_13  and  O_14 
ROOT
ATOM      1  N   UNL d   1       7.373   1.188  -1.453  0.00  0.00    -0.260 NA
ATOM      2  C   UNL d   1       6.720   1.197  -2.570  0.00  0.00     0.132 C 
ENDROOT
BRANCH   2   3
ATOM      3  C   UNL d   1       7.399   1.356  -3.866  0.00  0.00     0.025 C 
ATOM      4  C   UNL d   1       6.834   2.198  -4.836  0.00  0.00     0.078 C 
ATOM      5  C   UNL d   1       7.379   2.135  -6.119  0.00  0.00     0.038 C 
ATOM      6  C   UNL d   1       8.562   1.478  -6.387  0.00  0.00     0.015 C 
ATOM      7  C   UNL d   1       9.096   0.669  -5.434  0.00  0.00    -0.025 C 
ATOM      8  C   UNL d   1      10.142  -0.081  -5.850  0.00  0.00     0.009 C 
ATOM      9  C   UNL d   1       8.641   0.560  -4.136  0.00  0.00    -0.015 C 
ATOM     10  C   UNL d   1      10.687  -0.765  -4.823  0.00  0.00    -0.016 C 
ATOM     11  C   UNL d   1      11.248  -1.414  -3.900  0.00  0.00     0.043 C 
ATOM     12  C   UNL d   1       9.728  -0.404  -3.386  0.00  0.00    -0.004 C 
BRANCH   4  13
ATOM     13  O   UNL d   1       5.842   3.127  -4.622  0.00  0.00    -0.360 OA
ATOM     14  H   UNL d   1       5.523   3.192  -3.701  0.00  0.00     0.217 HD
ENDBRANCH   4  13
ENDBRANCH   2   3
BRANCH   1  15
ATOM     15  C   UNL d   1       6.689   1.025  -0.239  0.00  0.00     0.058 C 
ATOM     16  C   UNL d   1       7.392   1.053   0.947  0.00  0.00     0.031 C 
ATOM     17  C   UNL d   1       6.697   1.047   2.149  0.00  0.00     0.005 C 
ATOM     18  C   UNL d   1       5.323   0.802   2.196  0.00  0.00     0.029 C 
ATOM     19  C   UNL d   1       4.597   0.797   1.025  0.00  0.00     0.036 C 
ATOM     20  C   UNL d   1       5.308   0.878  -0.158  0.00  0.00     0.061 C 
BRANCH  19  21
ATOM     21  N   UNL d   1       3.173   0.772   0.982  0.00  0.00    -0.327 N 
ATOM     22  C   UNL d   1       2.491  -0.029   0.061  0.00  0.00     0.218 C 
ATOM     23  C   UNL d   1       0.970  -0.017   0.083  0.00  0.00     0.117 C 
ATOM     24  O   UNL d   1       3.062  -0.770  -0.742  0.00  0.00    -0.274 OA
ATOM     25  H   UNL d   1       2.688   1.359   1.655  0.00  0.00     0.169 HD
ENDBRANCH  19  21
ENDBRANCH   1  15
TORSDOF 4
