REMARK  9 active torsions:
REMARK  status: ('A' for Active; 'I' for Inactive)
REMARK    1  A    between atoms: C_2  and  C_3 
REMARK       I    between atoms: C_2  and  N_11 
REMARK    2  A    between atoms: C_3  and  O_4 
REMARK    3  A    between atoms: O_4  and  C_5 
REMARK    4  A    between atoms: N_11  and  C_12 
REMARK    5  A    between atoms: C_15  and  C_16 
REMARK    6  A    between atoms: C_21  and  N_22 
REMARK       I    between atoms: N_22  and  C_23 
REMARK    7  A    between atoms: C_23  and  C_25 
REMARK    8  A    between atoms: C_25  and  O_26 
REMARK    9  A    between atoms: O_26  and  C_27 
ROOT
ATOM      1  C   UNL d   1       8.840  -0.335  -1.303  0.00  0.00     0.139 C 
ATOM      2  N   UNL d   1       9.298  -1.423  -0.715  0.00  0.00    -0.228 NA
ATOM      3  C   UNL d   1      10.649  -1.345  -0.676  0.00  0.00     0.086 C 
ATOM      4  C   UNL d   1      11.534  -2.359  -0.317  0.00  0.00     0.036 C 
ATOM      5  C   UNL d   1      12.907  -2.109  -0.207  0.00  0.00     0.032 C 
ATOM      6  C   UNL d   1      13.437  -0.834  -0.444  0.00  0.00     0.037 C 
ATOM      7  C   UNL d   1      12.527   0.210  -0.852  0.00  0.00     0.061 C 
ATOM      8  C   UNL d   1      11.122  -0.103  -1.059  0.00  0.00     0.065 C 
ATOM      9  N   UNL d   1       9.958   0.449  -1.661  0.00  0.00    -0.338 N 
ATOM     10  H   UNL d   1       9.950   1.122  -2.416  0.00  0.00     0.167 HD
ENDROOT
BRANCH   1  11
ATOM     11  C   UNL d   1       7.349  -0.173  -1.449  0.00  0.00     0.010 A 
ATOM     12  C   UNL d   1       6.609   0.616  -2.339  0.00  0.00     0.017 A 
ATOM     13  C   UNL d   1       5.175   0.684  -2.256  0.00  0.00     0.030 A 
ATOM     14  C   UNL d   1       4.456  -0.069  -1.316  0.00  0.00     0.034 A 
ATOM     15  C   UNL d   1       5.175  -0.950  -0.531  0.00  0.00     0.030 A 
ATOM     16  C   UNL d   1       6.574  -0.980  -0.583  0.00  0.00     0.017 A 
BRANCH  14  17
ATOM     17  N   UNL d   1       3.049   0.004  -1.224  0.00  0.00    -0.325 N 
ATOM     18  C   UNL d   1       2.243  -0.089  -0.097  0.00  0.00     0.246 C 
ATOM     19  O   UNL d   1       1.023  -0.106  -0.245  0.00  0.00    -0.271 OA
ATOM     20  H   UNL d   1       2.516   0.161  -2.073  0.00  0.00     0.169 HD
BRANCH  18  21
ATOM     21  C   UNL d   1       2.908  -0.041   1.295  0.00  0.00     0.278 C 
BRANCH  21  22
ATOM     22  O   UNL d   1       1.968  -0.059   2.364  0.00  0.00    -0.342 OA
BRANCH  22  23
ATOM     23  C   UNL d   1       2.526   0.001   3.616  0.00  0.00     0.069 A 
ATOM     24  C   UNL d   1       1.910  -0.773   4.602  0.00  0.00     0.037 A 
ATOM     25  C   UNL d   1       2.280  -0.632   5.941  0.00  0.00     0.003 A 
ATOM     26  C   UNL d   1       3.314   0.234   6.291  0.00  0.00     0.000 A 
ATOM     27  C   UNL d   1       3.958   0.979   5.305  0.00  0.00     0.003 A 
ATOM     28  C   UNL d   1       3.559   0.870   3.970  0.00  0.00     0.037 A 
ENDBRANCH  22  23
ENDBRANCH  21  22
ENDBRANCH  18  21
ENDBRANCH  14  17
ENDBRANCH   1  11
BRANCH   6  29
ATOM     29  N   UNL d   1      14.884  -0.731  -0.312  0.00  0.00    -0.325 N 
ATOM     30  C   UNL d   1      15.654   0.428  -0.456  0.00  0.00     0.246 C 
ATOM     31  O   UNL d   1      15.151   1.525  -0.629  0.00  0.00    -0.271 OA
ATOM     32  H   UNL d   1      15.376  -1.599  -0.119  0.00  0.00     0.169 HD
BRANCH  30  33
ATOM     33  C   UNL d   1      17.222   0.271  -0.404  0.00  0.00     0.278 C 
BRANCH  33  34
ATOM     34  O   UNL d   1      17.776   1.600  -0.446  0.00  0.00    -0.342 OA
BRANCH  34  35
ATOM     35  C   UNL d   1      19.120   1.787  -0.596  0.00  0.00     0.069 A 
ATOM     36  C   UNL d   1      19.643   2.938   0.011  0.00  0.00     0.037 A 
ATOM     37  C   UNL d   1      20.981   3.304  -0.172  0.00  0.00     0.003 A 
ATOM     38  C   UNL d   1      21.822   2.492  -0.926  0.00  0.00     0.000 A 
ATOM     39  C   UNL d   1      21.308   1.348  -1.537  0.00  0.00     0.003 A 
ATOM     40  C   UNL d   1      19.957   1.004  -1.385  0.00  0.00     0.037 A 
ENDBRANCH  34  35
ENDBRANCH  33  34
ENDBRANCH  30  33
ENDBRANCH   6  29
TORSDOF 9
