@<TRIPOS>MOLECULE
*****
 67 71 0 0 0
SMALL
GASTEIGER

@<TRIPOS>ATOM
      1 C           0.8912    0.3072   -0.0835 C.3     1  UNL1       -0.0307
      2 C           2.3878    0.5991   -0.1580 C.3     1  UNL1        0.0869
      3 O           2.9039    0.0215   -1.3514 O.3     1  UNL1       -0.4904
      4 C           4.2343   -0.2919   -1.4438 C.ar    1  UNL1        0.1416
      5 C           4.7933    0.0765   -2.6787 C.ar    1  UNL1       -0.0181
      6 C           6.1244   -0.2040   -2.9862 C.ar    1  UNL1       -0.0582
      7 C           6.9328   -0.8143   -2.0362 C.ar    1  UNL1       -0.0598
      8 C           6.3894   -1.2120   -0.8101 C.ar    1  UNL1       -0.0369
      9 C           5.0306   -0.9942   -0.5134 C.ar    1  UNL1        0.0758
     10 N           4.5635   -1.5093    0.7324 N.am    1  UNL1       -0.2783
     11 C           3.2790   -1.9735    0.8762 C.2     1  UNL1        0.2582
     12 O           2.5653   -2.3418   -0.0606 O.2     1  UNL1       -0.2695
     13 C           2.7309   -1.9597    2.2586 C.ar    1  UNL1        0.1490
     14 C           1.4707   -2.4065    2.3346 C.ar    1  UNL1       -0.0287
     15 C           0.8660   -2.7787    3.5968 C.ar    1  UNL1        0.0271
     16 C          -0.3253   -3.5137    3.6428 C.ar    1  UNL1        0.0066
     17 C          -1.0948   -3.8529    2.3901 C.3     1  UNL1        0.0713
     18 O          -2.2622   -4.6095    2.6473 O.3     1  UNL1       -0.3903
     19 C          -0.7287   -3.9397    4.9000 C.ar    1  UNL1        0.0340
     20 N          -0.0450   -3.6986    6.0473 N.ar    1  UNL1       -0.2561
     21 C           1.0981   -2.9807    5.9771 C.ar    1  UNL1        0.0811
     22 C           1.8214   -2.7215    7.2625 C.3     1  UNL1       -0.0188
     23 C           1.5805   -2.5182    4.7624 C.ar    1  UNL1        0.1629
     24 O           2.7975   -1.8104    4.7047 O.2     1  UNL1       -0.4015
     25 C           3.3467   -1.4465    3.4807 C.ar    1  UNL1        0.3880
     26 N           4.2445   -0.5275    3.5594 N.2     1  UNL1       -0.1722
     27 C           5.0359   -0.3357    4.7026 C.ar    1  UNL1        0.2092
     28 C           5.3647    0.9615    5.1040 C.ar    1  UNL1        0.0132
     29 C           6.1178    1.1437    6.2735 C.ar    1  UNL1       -0.0131
     30 C           6.5266    0.0382    7.0335 C.ar    1  UNL1        0.1289
     31 O           7.1429    0.3108    8.2379 O.3     1  UNL1       -0.4560
     32 C           7.5207   -0.7460    9.0387 C.ar    1  UNL1        0.1284
     33 C           6.9477   -0.8695   10.3052 C.ar    1  UNL1       -0.0193
     34 C           7.3831   -1.8832   11.1639 C.ar    1  UNL1       -0.0583
     35 C           8.3246   -2.8168   10.7272 C.ar    1  UNL1       -0.0615
     36 C           8.8871   -2.6983    9.4579 C.ar    1  UNL1       -0.0583
     37 C           8.5162   -1.6396    8.6305 C.ar    1  UNL1       -0.0193
     38 C           6.2421   -1.2482    6.5726 C.ar    1  UNL1       -0.0131
     39 C           5.5047   -1.4398    5.4143 C.ar    1  UNL1        0.0132
     40 H           0.5029    0.5228    0.9169 H       1  UNL1        0.0262
     41 H           0.6518   -0.7392   -0.3114 H       1  UNL1        0.0262
     42 H           0.3479    0.9070   -0.8171 H       1  UNL1        0.0262
     43 H           2.8438    0.2295    0.7539 H       1  UNL1        0.0694
     44 H           2.6028    1.6685   -0.1403 H       1  UNL1        0.0694
     45 H           4.1809    0.5956   -3.4145 H       1  UNL1        0.0655
     46 H           6.5248    0.0511   -3.9660 H       1  UNL1        0.0619
     47 H           7.9824   -0.9948   -2.2624 H       1  UNL1        0.0618
     48 H           7.0449   -1.7428   -0.1242 H       1  UNL1        0.0637
     49 H           5.2699   -1.9648    1.2998 H       1  UNL1        0.1552
     50 H           0.9071   -2.6294    1.4328 H       1  UNL1        0.0635
     51 H          -0.4671   -4.4271    1.6968 H       1  UNL1        0.0608
     52 H          -1.4038   -2.9281    1.8890 H       1  UNL1        0.0608
     53 H          -1.9826   -5.4850    2.9648 H       1  UNL1        0.2098
     54 H          -1.6386   -4.5201    5.0364 H       1  UNL1        0.0833
     55 H           1.2892   -3.1687    8.1084 H       1  UNL1        0.0294
     56 H           1.8971   -1.6444    7.4393 H       1  UNL1        0.0294
     57 H           2.8267   -3.1527    7.2267 H       1  UNL1        0.0294
     58 H           4.5751   -0.0377    2.7236 H       1  UNL1        0.4567
     59 H           4.9557    1.8419    4.6085 H       1  UNL1        0.0684
     60 H           6.3544    2.1528    6.6140 H       1  UNL1        0.0656
     61 H           6.1711   -0.1846   10.6346 H       1  UNL1        0.0654
     62 H           7.0003   -1.9427   12.1806 H       1  UNL1        0.0619
     63 H           8.6298   -3.6300   11.3826 H       1  UNL1        0.0618
     64 H           9.6299   -3.4174    9.1226 H       1  UNL1        0.0619
     65 H           8.9790   -1.5353    7.6540 H       1  UNL1        0.0654
     66 H           6.5714   -2.1350    7.1047 H       1  UNL1        0.0656
     67 H           5.3397   -2.4647    5.0905 H       1  UNL1        0.0684
@<TRIPOS>UNITY_ATOM_ATTR
26 1
charge 1
@<TRIPOS>BOND
     1     1     2    1
     2     2     3    1
     3     3     4    1
     4     4     5   ar
     5     5     6   ar
     6     6     7   ar
     7     7     8   ar
     8     8     9   ar
     9     4     9   ar
    10     9    10    1
    11    10    11   am
    12    11    12    2
    13    11    13    1
    14    13    14   ar
    15    14    15   ar
    16    15    16   ar
    17    16    17    1
    18    17    18    1
    19    16    19   ar
    20    19    20   ar
    21    20    21   ar
    22    21    22    1
    23    21    23   ar
    24    15    23   ar
    25    23    24   ar
    26    24    25   ar
    27    13    25   ar
    28    25    26    2
    29    26    27    1
    30    27    28   ar
    31    28    29   ar
    32    29    30   ar
    33    30    31    1
    34    31    32    1
    35    32    33   ar
    36    33    34   ar
    37    34    35   ar
    38    35    36   ar
    39    36    37   ar
    40    32    37   ar
    41    30    38   ar
    42    38    39   ar
    43    27    39   ar
    44     1    40    1
    45     1    41    1
    46     1    42    1
    47     2    43    1
    48     2    44    1
    49     5    45    1
    50     6    46    1
    51     7    47    1
    52     8    48    1
    53    10    49    1
    54    14    50    1
    55    17    51    1
    56    17    52    1
    57    18    53    1
    58    19    54    1
    59    22    55    1
    60    22    56    1
    61    22    57    1
    62    26    58    1
    63    28    59    1
    64    29    60    1
    65    33    61    1
    66    34    62    1
    67    35    63    1
    68    36    64    1
    69    37    65    1
    70    38    66    1
    71    39    67    1
