@<TRIPOS>MOLECULE
*****
 63 65 0 0 0
SMALL
GASTEIGER

@<TRIPOS>ATOM
      1 O          -3.7047    5.4801    0.1576 O.2     1  UNL1        0.0416
      2 N          -4.3894    6.1005    0.9826 N.pl3   1  UNL1        0.0835
      3 O          -4.0832    7.1814    1.4943 O.co2   1  UNL1       -0.5759
      4 C          -5.6569    5.5170    1.3924 C.ar    1  UNL1        0.3161
      5 C          -6.7832    6.2822    1.0524 C.ar    1  UNL1        0.0457
      6 C          -8.0319    5.9236    1.5557 C.ar    1  UNL1        0.1121
      7 S          -9.3654    7.1141    1.4799 S.O2    1  UNL1        0.0611
      8 O          -8.8934    8.2304    2.2910 O.2     1  UNL1       -0.1528
      9 O          -9.6585    7.2607    0.0831 O.2     1  UNL1       -0.1528
     10 N         -10.7089    6.4561    2.2476 N.3     1  UNL1       -0.1766
     11 C         -10.8380    6.1501    3.6806 C.3     1  UNL1        0.0205
     12 C         -11.3346    4.7029    3.6893 C.3     1  UNL1       -0.0373
     13 C         -12.2373    4.6370    2.4664 C.3     1  UNL1       -0.0373
     14 C         -11.7064    5.6895    1.4898 C.3     1  UNL1        0.0205
     15 C          -8.1646    4.7266    2.2336 C.ar    1  UNL1       -0.0315
     16 C          -7.0515    3.9648    2.5832 C.ar    1  UNL1       -0.0113
     17 C          -5.7666    4.3659    2.1953 C.ar    1  UNL1        0.1977
     18 O          -4.7969    3.5631    2.7289 O.3     1  UNL1       -0.4828
     19 C          -3.4919    3.6779    2.1810 C.3     1  UNL1        0.1207
     20 C          -2.5898    2.5427    2.5986 C.3     1  UNL1        0.1285
     21 O          -1.4099    2.5345    1.7919 O.3     1  UNL1       -0.3831
     22 C          -3.3805    1.2711    2.3525 C.3     1  UNL1       -0.0016
     23 N          -2.7230    0.0902    2.9912 N.4     1  UNL1        0.2420
     24 C          -1.4562   -0.1842    2.2168 C.3     1  UNL1       -0.0078
     25 C          -1.0943   -1.6457    2.0781 C.3     1  UNL1        0.0841
     26 O           0.0395   -1.7679    1.2420 O.3     1  UNL1       -0.3898
     27 C          -3.6910   -1.0516    3.1055 C.3     1  UNL1       -0.0058
     28 C          -4.8457   -0.8677    4.0591 C.ar    1  UNL1       -0.0029
     29 C          -5.3073    0.3593    4.5732 C.ar    1  UNL1       -0.0535
     30 C          -6.3502    0.4473    5.4742 C.ar    1  UNL1       -0.0613
     31 C          -6.9776   -0.7063    5.8852 C.ar    1  UNL1       -0.0617
     32 C          -6.5442   -1.9423    5.4069 C.ar    1  UNL1       -0.0613
     33 C          -5.4957   -2.0280    4.4912 C.ar    1  UNL1       -0.0535
     34 H          -6.6682    7.1773    0.4436 H       1  UNL1        0.0706
     35 H         -11.6189    6.7876    4.1142 H       1  UNL1        0.0444
     36 H          -9.9199    6.2940    4.2538 H       1  UNL1        0.0444
     37 H         -11.8435    4.4231    4.6144 H       1  UNL1        0.0278
     38 H         -10.5304    3.9727    3.5931 H       1  UNL1        0.0278
     39 H         -13.2648    4.8731    2.7614 H       1  UNL1        0.0278
     40 H         -12.2458    3.6432    2.0067 H       1  UNL1        0.0278
     41 H         -12.5210    6.3573    1.1845 H       1  UNL1        0.0444
     42 H         -11.2736    5.2296    0.5997 H       1  UNL1        0.0444
     43 H          -9.1364    4.3811    2.5088 H       1  UNL1        0.0638
     44 H          -7.2136    3.0793    3.1994 H       1  UNL1        0.0657
     45 H          -3.0387    4.6133    2.5086 H       1  UNL1        0.0725
     46 H          -3.5579    3.5601    1.0988 H       1  UNL1        0.0725
     47 H          -2.2970    2.6511    3.6503 H       1  UNL1        0.0681
     48 H          -1.6658    2.4695    0.8496 H       1  UNL1        0.2102
     49 H          -3.5494    1.0414    1.2963 H       1  UNL1        0.0841
     50 H          -4.3737    1.3797    2.7298 H       1  UNL1        0.0841
     51 H          -2.4476    0.3170    3.9598 H       1  UNL1        0.2039
     52 H          -1.6008    0.1994    1.1990 H       1  UNL1        0.0837
     53 H          -0.6498    0.3907    2.6872 H       1  UNL1        0.0837
     54 H          -1.9117   -2.2021    1.6103 H       1  UNL1        0.0610
     55 H          -0.8756   -2.0725    3.0597 H       1  UNL1        0.0610
     56 H          -0.1827   -1.4399    0.3507 H       1  UNL1        0.2096
     57 H          -3.1076   -1.8930    3.4931 H       1  UNL1        0.0867
     58 H          -4.0319   -1.2843    2.0885 H       1  UNL1        0.0867
     59 H          -4.9119    1.3401    4.3630 H       1  UNL1        0.0622
     60 H          -6.6276    1.4272    5.8549 H       1  UNL1        0.0618
     61 H          -7.7971   -0.6311    6.5904 H       1  UNL1        0.0618
     62 H          -7.0192   -2.8492    5.7678 H       1  UNL1        0.0618
     63 H          -5.1770   -3.0128    4.1463 H       1  UNL1        0.0622
@<TRIPOS>UNITY_ATOM_ATTR
2 1
charge 1
3 1
charge -1
23 1
charge 1
@<TRIPOS>BOND
     1     1     2    2
     2     2     3    1
     3     2     4    1
     4     4     5   ar
     5     5     6   ar
     6     6     7    1
     7     7     8    2
     8     7     9    2
     9     7    10    1
    10    10    11    1
    11    11    12    1
    12    12    13    1
    13    13    14    1
    14    10    14    1
    15     6    15   ar
    16    15    16   ar
    17    16    17   ar
    18     4    17   ar
    19    17    18    1
    20    18    19    1
    21    20    22    1
    22    24    25    1
    23    25    26    1
    24    23    27    1
    25    27    28    1
    26    28    29   ar
    27    29    30   ar
    28    30    31   ar
    29    31    32   ar
    30    32    33   ar
    31    28    33   ar
    32    20    21    1
    33    20    19    1
    34    23    24    1
    35    23    22    1
    36     5    34    1
    37    11    35    1
    38    11    36    1
    39    12    37    1
    40    12    38    1
    41    13    39    1
    42    13    40    1
    43    14    41    1
    44    14    42    1
    45    15    43    1
    46    16    44    1
    47    19    45    1
    48    19    46    1
    49    20    47    1
    50    21    48    1
    51    22    49    1
    52    22    50    1
    53    23    51    1
    54    24    52    1
    55    24    53    1
    56    25    54    1
    57    25    55    1
    58    26    56    1
    59    27    57    1
    60    27    58    1
    61    29    59    1
    62    30    60    1
    63    31    61    1
    64    32    62    1
    65    33    63    1
