@<TRIPOS>MOLECULE
*****
 63 66 0 0 0
SMALL
GASTEIGER

@<TRIPOS>ATOM
      1 C           1.0674   -0.0566   -0.0763 C.3     1  UNL1        0.0788
      2 O           2.4867   -0.0224   -0.1892 O.3     1  UNL1       -0.4950
      3 C           3.1046    1.0858    0.3276 C.ar    1  UNL1        0.1243
      4 C           4.2973    1.4889   -0.2888 C.ar    1  UNL1        0.0218
      5 C           5.0787    2.5106    0.2674 C.ar    1  UNL1        0.1243
      6 O           6.3007    2.7425   -0.3098 O.3     1  UNL1       -0.4950
      7 C           7.1681    3.6283    0.4064 C.3     1  UNL1        0.0788
      8 C           4.6075    3.1937    1.3841 C.ar    1  UNL1       -0.0061
      9 C           3.4298    2.7879    2.0119 C.ar    1  UNL1        0.0630
     10 C           3.0414    3.4583    3.2841 C.2     1  UNL1        0.3408
     11 O           3.7510    4.3459    3.7341 O.2     1  UNL1       -0.2483
     12 N           1.8694    3.0071    3.8473 N.am    1  UNL1        0.0006
     13 C           1.3898    3.6225    4.8854 C.2     1  UNL1        0.3842
     14 N           0.1532    3.2633    5.3389 N.pl3   1  UNL1       -0.2767
     15 C          -0.5249    2.0444    4.9754 C.3     1  UNL1        0.0684
     16 C          -1.6910    1.7374    5.9107 C.3     1  UNL1        0.0059
     17 C          -2.5991    0.6357    5.4611 C.2     1  UNL1        0.0106
     18 C          -3.6414    0.2391    6.1924 C.ar    1  UNL1        0.0510
     19 C          -4.1258    0.6646    7.4571 C.ar    1  UNL1       -0.0482
     20 C          -5.1019   -0.0500    8.0290 C.ar    1  UNL1       -0.0608
     21 C          -5.7572   -1.1389    7.3194 C.ar    1  UNL1       -0.0555
     22 C          -5.4034   -1.5501    6.0838 C.ar    1  UNL1        0.0098
     23 C          -4.2656   -0.8593    5.4455 C.ar    1  UNL1        0.2086
     24 N          -3.6871   -1.0577    4.3224 N.2     1  UNL1       -0.2369
     25 C          -2.4853   -0.1853    4.2070 C.3     1  UNL1        0.1661
     26 N           1.9535    4.6841    5.5415 N.pl3   1  UNL1       -0.2448
     27 C           1.7892    5.1796    6.8542 C.ar    1  UNL1        0.1027
     28 C           2.0320    6.5584    7.0404 C.ar    1  UNL1       -0.0229
     29 C           1.9461    7.1508    8.3021 C.ar    1  UNL1       -0.0585
     30 C           1.5333    6.3945    9.3890 C.ar    1  UNL1       -0.0613
     31 C           1.2722    5.0387    9.2255 C.ar    1  UNL1       -0.0556
     32 C           1.4301    4.4082    7.9794 C.ar    1  UNL1       -0.0120
     33 C           1.2603    2.9166    7.9653 C.3     1  UNL1       -0.0365
     34 C           2.6805    1.7329    1.4852 C.ar    1  UNL1       -0.0061
     35 H           0.7248   -1.0444   -0.4005 H       1  UNL1        0.0660
     36 H           0.6260    0.6957   -0.7357 H       1  UNL1        0.0660
     37 H           0.7020    0.0697    0.9477 H       1  UNL1        0.0660
     38 H           4.6291    0.9916   -1.1984 H       1  UNL1        0.0691
     39 H           8.1506    3.6235   -0.0732 H       1  UNL1        0.0660
     40 H           7.3128    3.3113    1.4481 H       1  UNL1        0.0660
     41 H           6.7799    4.6515    0.3640 H       1  UNL1        0.0660
     42 H           5.1554    4.0299    1.8055 H       1  UNL1        0.0662
     43 H          -0.2602    3.8902    6.0198 H       1  UNL1        0.2577
     44 H           0.1688    1.1944    5.0066 H       1  UNL1        0.0658
     45 H          -0.8992    2.1565    3.9567 H       1  UNL1        0.0658
     46 H          -2.2957    2.6432    6.0526 H       1  UNL1        0.0343
     47 H          -1.3150    1.4665    6.9084 H       1  UNL1        0.0343
     48 H          -3.6716    1.5170    7.9512 H       1  UNL1        0.0626
     49 H          -5.4199    0.1862    9.0414 H       1  UNL1        0.0618
     50 H          -6.5920   -1.5994    7.8453 H       1  UNL1        0.0620
     51 H          -5.9229   -2.3670    5.5976 H       1  UNL1        0.0683
     52 H          -4.0360   -1.7261    3.6366 H       1  UNL1        0.4459
     53 H          -2.5536    0.4098    3.2937 H       1  UNL1        0.1077
     54 H          -1.5963   -0.8261    4.1989 H       1  UNL1        0.1077
     55 H           2.8728    4.9417    5.1645 H       1  UNL1        0.2646
     56 H           2.2904    7.1907    6.1908 H       1  UNL1        0.0652
     57 H           2.2053    8.1979    8.4381 H       1  UNL1        0.0619
     58 H           1.4314    6.8496   10.3702 H       1  UNL1        0.0618
     59 H           0.9836    4.4534   10.0957 H       1  UNL1        0.0621
     60 H           1.1555    2.5053    8.9719 H       1  UNL1        0.0279
     61 H           2.1048    2.4279    7.4729 H       1  UNL1        0.0279
     62 H           0.3290    2.6348    7.4937 H       1  UNL1        0.0279
     63 H           1.7968    1.4094    2.0187 H       1  UNL1        0.0662
@<TRIPOS>UNITY_ATOM_ATTR
24 1
charge 1
@<TRIPOS>BOND
     1     1     2    1
     2     2     3    1
     3     3     4   ar
     4     4     5   ar
     5     5     6    1
     6     6     7    1
     7     5     8   ar
     8     8     9   ar
     9     9    10    1
    10    10    11    2
    11    10    12    1
    12    12    13    2
    13    13    14    1
    14    14    15    1
    15    15    16    1
    16    16    17    1
    17    17    18    2
    18    18    19   ar
    19    19    20   ar
    20    20    21   ar
    21    21    22   ar
    22    22    23   ar
    23    18    23   ar
    24    23    24    2
    25    24    25    1
    26    17    25    1
    27    13    26    1
    28    26    27    1
    29    27    28   ar
    30    28    29   ar
    31    29    30   ar
    32    30    31   ar
    33    31    32   ar
    34    27    32   ar
    35    32    33    1
    36     9    34   ar
    37     3    34   ar
    38     1    35    1
    39     1    36    1
    40     1    37    1
    41     4    38    1
    42     7    39    1
    43     7    40    1
    44     7    41    1
    45     8    42    1
    46    14    43    1
    47    15    44    1
    48    15    45    1
    49    16    46    1
    50    16    47    1
    51    19    48    1
    52    20    49    1
    53    21    50    1
    54    22    51    1
    55    24    52    1
    56    25    53    1
    57    25    54    1
    58    26    55    1
    59    28    56    1
    60    29    57    1
    61    30    58    1
    62    31    59    1
    63    33    60    1
    64    33    61    1
    65    33    62    1
    66    34    63    1
