REMARK  4 active torsions:
REMARK  status: ('A' for Active; 'I' for Inactive)
REMARK    1  A    between atoms: O_2  and  C_3 
REMARK    2  A    between atoms: C_5  and  C_6 
REMARK    3  A    between atoms: C_28  and  O_29 
REMARK    4  A    between atoms: C_31  and  O_32 
ROOT
ATOM      1  C   UNL d   1       6.812   2.256  -0.100  0.00  0.00     0.091 C 
ATOM      2  C   UNL d   1       7.413   2.976   1.137  0.00  0.00     0.078 C 
ATOM      3  C   UNL d   1       8.913   2.764   1.409  0.00  0.00     0.032 C 
ATOM      4  C   UNL d   1       9.389   2.032   2.451  0.00  0.00     0.117 C 
ATOM      5  C   UNL d   1       8.500   1.206   3.284  0.00  0.00     0.246 C 
ATOM      6  O   UNL d   1       7.576   1.648   3.963  0.00  0.00    -0.273 OA
ATOM      7  N   UNL d   1       8.849  -0.108   3.257  0.00  0.00    -0.175 NA
ATOM      8  C   UNL d   1      10.169  -0.395   3.468  0.00  0.00     0.310 C 
ATOM      9  O   UNL d   1      10.522  -1.204   4.319  0.00  0.00    -0.253 OA
ATOM     10  N   UNL d   1      11.027   0.337   2.684  0.00  0.00    -0.274 N 
ATOM     11  C   UNL d   1      12.121  -0.333   2.022  0.00  0.00     0.164 C 
ATOM     12  C   UNL d   1      10.841   1.700   2.568  0.00  0.00     0.268 C 
ATOM     13  O   UNL d   1      11.734   2.538   2.607  0.00  0.00    -0.267 OA
ATOM     14  N   UNL d   1       9.795   3.305   0.472  0.00  0.00    -0.357 N 
ATOM     15  C   UNL d   1      10.024   2.602  -0.739  0.00  0.00     0.049 A 
ATOM     16  C   UNL d   1      11.326   2.128  -0.932  0.00  0.00     0.031 A 
ATOM     17  C   UNL d   1      11.635   1.296  -2.004  0.00  0.00     0.002 A 
ATOM     18  C   UNL d   1      10.656   0.973  -2.937  0.00  0.00     0.002 A 
ATOM     19  C   UNL d   1       9.376   1.513  -2.813  0.00  0.00     0.021 A 
ATOM     20  C   UNL d   1       9.053   2.337  -1.723  0.00  0.00     0.028 A 
ATOM     21  S   UNL d   1       7.401   2.997  -1.678  0.00  0.00    -0.118 SA
ATOM     22  H   UNL d   1       8.225  -0.715   3.766  0.00  0.00     0.141 HD
ATOM     23  H   UNL d   1       9.712   4.311   0.332  0.00  0.00     0.166 HD
ENDROOT
BRANCH   1  24
ATOM     24  C   UNL d   1       5.280   2.308  -0.079  0.00  0.00    -0.038 A 
ATOM     25  C   UNL d   1       4.524   1.128  -0.067  0.00  0.00     0.048 A 
ATOM     26  C   UNL d   1       3.121   1.168  -0.052  0.00  0.00     0.104 A 
ATOM     27  C   UNL d   1       2.449   2.409  -0.038  0.00  0.00     0.133 A 
ATOM     28  C   UNL d   1       3.178   3.605  -0.057  0.00  0.00     0.104 A 
ATOM     29  C   UNL d   1       4.584   3.534  -0.080  0.00  0.00     0.048 A 
BRANCH  26  30
ATOM     30  O   UNL d   1       2.529  -0.079  -0.051  0.00  0.00    -0.353 OA
ATOM     31  C   UNL d   1       1.103  -0.129  -0.064  0.00  0.00     0.210 C 
ENDBRANCH  26  30
BRANCH  27  32
ATOM     32  O   UNL d   1       1.089   2.329  -0.009  0.00  0.00    -0.356 OA
ATOM     33  H   UNL d   1       0.599   3.145   0.042  0.00  0.00     0.218 HD
ENDBRANCH  27  32
BRANCH  28  34
ATOM     34  O   UNL d   1       2.717   4.899  -0.059  0.00  0.00    -0.353 OA
ATOM     35  C   UNL d   1       1.321   5.127  -0.033  0.00  0.00     0.210 C 
ENDBRANCH  28  34
ENDBRANCH   1  24
TORSDOF 4
