@<TRIPOS>MOLECULE
*****
 59 61 0 0 0
SMALL
GASTEIGER

@<TRIPOS>ATOM
      1 C           2.9802   -1.4037    0.0900 C.3     1  UNL1       -0.0466
      2 C           2.5347    0.0506   -0.0893 C.3     1  UNL1        0.0210
      3 C           0.9826    0.0888   -0.0901 C.3     1  UNL1       -0.0308
      4 C           0.4329    0.7330    1.1909 C.3     1  UNL1       -0.0260
      5 C          -1.0762    0.7393    1.2082 C.ar    1  UNL1       -0.0471
      6 C          -1.7903    1.9218    0.9673 C.ar    1  UNL1       -0.0551
      7 C          -3.1888    1.9176    0.9522 C.ar    1  UNL1       -0.0199
      8 C          -3.8707    0.7255    1.1749 C.ar    1  UNL1        0.1169
      9 O          -5.2318    0.6552    1.1538 O.3     1  UNL1       -0.5068
     10 C          -3.1788   -0.4522    1.4258 C.ar    1  UNL1       -0.0199
     11 C          -1.7846   -0.4474    1.4437 C.ar    1  UNL1       -0.0551
     12 N           3.1240    0.6173   -1.3179 N.am    1  UNL1       -0.3050
     13 C           4.5147    0.6361   -1.5573 C.2     1  UNL1        0.2995
     14 O           5.3728    0.4761   -0.7253 O.2     1  UNL1       -0.2652
     15 C           4.9145    0.8852   -3.0608 C.2     1  UNL1        0.3031
     16 O           4.0062    0.9034   -3.8893 O.2     1  UNL1       -0.2648
     17 N           6.2839    1.1237   -3.3335 N.am    1  UNL1       -0.2777
     18 C           6.8362    1.6159   -4.5779 C.ar    1  UNL1        0.0342
     19 C           7.9882    1.2168   -5.1889 C.ar    1  UNL1       -0.0404
     20 C           8.4541    1.9258   -6.3465 C.ar    1  UNL1       -0.0596
     21 C           7.8486    3.1178   -6.8417 C.ar    1  UNL1       -0.0534
     22 C           6.7712    3.6193   -6.1523 C.ar    1  UNL1       -0.0012
     23 C           6.0514    4.9576   -6.3187 C.3     1  UNL1       -0.0059
     24 N           5.0321    5.4225   -5.1626 N.4     1  UNL1        0.2385
     25 C           5.6700    5.7923   -3.8038 C.3     1  UNL1       -0.0314
     26 C           5.5462    4.5539   -2.9521 C.3     1  UNL1       -0.0077
     27 C           4.1878    3.9919   -3.3940 C.3     1  UNL1       -0.0077
     28 C           3.8757    4.4685   -4.8324 C.3     1  UNL1       -0.0314
     29 C           6.3100    2.7442   -5.1725 C.ar    1  UNL1       -0.0323
     30 H           4.0686   -1.4874    0.1282 H       1  UNL1        0.0247
     31 H           2.6331   -2.0207   -0.7471 H       1  UNL1        0.0247
     32 H           2.5842   -1.8257    1.0194 H       1  UNL1        0.0247
     33 H           2.9224    0.6436    0.7474 H       1  UNL1        0.0496
     34 H           0.5882    0.6237   -0.9622 H       1  UNL1        0.0286
     35 H           0.5773   -0.9321   -0.1648 H       1  UNL1        0.0286
     36 H           0.8088    1.7599    1.2724 H       1  UNL1        0.0314
     37 H           0.7945    0.1990    2.0792 H       1  UNL1        0.0314
     38 H          -1.2597    2.8542    0.7897 H       1  UNL1        0.0621
     39 H          -3.7206    2.8455    0.7673 H       1  UNL1        0.0654
     40 H          -5.5967    1.5335    0.9616 H       1  UNL1        0.2921
     41 H          -3.7257   -1.3734    1.6058 H       1  UNL1        0.0654
     42 H          -1.2575   -1.3787    1.6375 H       1  UNL1        0.0621
     43 H           2.5121    0.8016   -2.1052 H       1  UNL1        0.1494
     44 H           6.9250    0.8934   -2.5769 H       1  UNL1        0.1553
     45 H           8.4812    0.3131   -4.8536 H       1  UNL1        0.0636
     46 H           9.3265    1.5356   -6.8661 H       1  UNL1        0.0618
     47 H           8.2341    3.5998   -7.7405 H       1  UNL1        0.0622
     48 H           5.4600    4.9712   -7.2435 H       1  UNL1        0.0867
     49 H           6.7751    5.7834   -6.3731 H       1  UNL1        0.0867
     50 H           4.5964    6.2761   -5.5347 H       1  UNL1        0.2037
     51 H           5.0509    6.5741   -3.3545 H       1  UNL1        0.0814
     52 H           6.6941    6.1377   -3.9598 H       1  UNL1        0.0814
     53 H           5.6048    4.6577   -1.8659 H       1  UNL1        0.0319
     54 H           6.4339    3.9381   -3.1503 H       1  UNL1        0.0319
     55 H           3.3809    4.0879   -2.6727 H       1  UNL1        0.0319
     56 H           4.2638    2.9294   -3.4331 H       1  UNL1        0.0319
     57 H           2.9189    4.9886   -4.8864 H       1  UNL1        0.0814
     58 H           3.8482    3.6741   -5.5982 H       1  UNL1        0.0814
     59 H           5.4459    3.0626   -4.7269 H       1  UNL1        0.0641
@<TRIPOS>UNITY_ATOM_ATTR
24 1
charge 1
@<TRIPOS>BOND
     1     3     4    1
     2     4     5    1
     3     5     6   ar
     4     6     7   ar
     5     7     8   ar
     6     8     9    1
     7     8    10   ar
     8    10    11   ar
     9     5    11   ar
    10     2    12    1
    11    12    13   am
    12    13    14    2
    13    13    15    1
    14    15    16    2
    15    15    17   am
    16    17    18    1
    17    18    19   ar
    18    19    20   ar
    19    20    21   ar
    20    21    22   ar
    21    22    23    1
    22    23    24    1
    23    24    25    1
    24    25    26    1
    25    26    27    1
    26    27    28    1
    27    24    28    1
    28    22    29   ar
    29    18    29   ar
    30     2     3    1
    31     2     1    1
    32     1    30    1
    33     1    31    1
    34     1    32    1
    35     2    33    1
    36     3    34    1
    37     3    35    1
    38     4    36    1
    39     4    37    1
    40     6    38    1
    41     7    39    1
    42     9    40    1
    43    10    41    1
    44    11    42    1
    45    12    43    1
    46    17    44    1
    47    19    45    1
    48    20    46    1
    49    21    47    1
    50    23    48    1
    51    23    49    1
    52    24    50    1
    53    25    51    1
    54    25    52    1
    55    26    53    1
    56    26    54    1
    57    27    55    1
    58    27    56    1
    59    28    57    1
    60    28    58    1
    61    29    59    1
