REMARK  5 active torsions:
REMARK  status: ('A' for Active; 'I' for Inactive)
REMARK    1  A    between atoms: C_2  and  C_3 
REMARK       I    between atoms: C_2  and  N_14 
REMARK    2  A    between atoms: C_3  and  C_4 
REMARK    3  A    between atoms: N_14  and  O_15 
REMARK    4  A    between atoms: O_15  and  C_16 
REMARK    5  A    between atoms: C_16  and  C_17 
ROOT
ATOM      1  O   UNL d   1       1.045   0.031   0.089  0.00  0.00    -0.271 OA
ATOM      2  C   UNL d   1       2.277  -0.011  -0.009  0.00  0.00     0.245 C 
ATOM      3  N   UNL d   1       2.990   0.815   0.801  0.00  0.00    -0.234 N 
ATOM      4  H   UNL d   1       2.484   1.407   1.447  0.00  0.00     0.197 HD
ENDROOT
BRANCH   2   5
ATOM      5  C   UNL d   1       3.033  -0.914  -0.982  0.00  0.00     0.145 C 
BRANCH   5   6
ATOM      6  C   UNL d   1       2.130  -1.762  -1.846  0.00  0.00    -0.021 A 
ATOM      7  C   UNL d   1       2.203  -3.135  -1.996  0.00  0.00     0.097 A 
ATOM      8  N   UNL d   1       1.196  -3.540  -2.831  0.00  0.00    -0.365 N 
ATOM      9  C   UNL d   1       0.488  -2.453  -3.285  0.00  0.00     0.044 A 
ATOM     10  H   UNL d   1       1.005  -4.497  -3.094  0.00  0.00     0.165 HD
ATOM     11  C   UNL d   1      -0.597  -2.389  -4.171  0.00  0.00     0.054 A 
ATOM     12  C   UNL d   1       1.052  -1.321  -2.692  0.00  0.00    -0.001 A 
ATOM     13  C   UNL d   1      -1.111  -1.124  -4.469  0.00  0.00     0.036 A 
ATOM     14 CL   UNL d   1      -2.419  -0.987  -5.585  0.00  0.00    -0.084 Cl
ATOM     15  C   UNL d   1      -0.582   0.026  -3.894  0.00  0.00     0.025 A 
ATOM     16  C   UNL d   1       0.494  -0.061  -3.002  0.00  0.00     0.016 A 
ENDBRANCH   5   6
ENDBRANCH   2   5
BRANCH   3  17
ATOM     17  O   UNL d   1       4.390   0.788   0.829  0.00  0.00    -0.273 OA
BRANCH  17  18
ATOM     18  C   UNL d   1       4.884   1.726   1.804  0.00  0.00     0.240 C 
BRANCH  18  19
ATOM     19  C   UNL d   1       6.395   1.749   1.788  0.00  0.00    -0.032 A 
ATOM     20  C   UNL d   1       7.106   2.603   2.647  0.00  0.00     0.009 A 
ATOM     21  C   UNL d   1       8.494   2.725   2.527  0.00  0.00     0.001 A 
ATOM     22  C   UNL d   1       9.190   1.940   1.608  0.00  0.00     0.000 A 
ATOM     23  C   UNL d   1       8.500   1.058   0.785  0.00  0.00     0.001 A 
ATOM     24  C   UNL d   1       7.114   0.970   0.871  0.00  0.00     0.009 A 
ENDBRANCH  18  19
ENDBRANCH  17  18
ENDBRANCH   3  17
TORSDOF 5
