REMARK  8 active torsions:
REMARK  status: ('A' for Active; 'I' for Inactive)
REMARK    1  A    between atoms: O_2  and  C_3 
REMARK    2  A    between atoms: C_6  and  S_7 
REMARK    3  A    between atoms: S_7  and  N_10 
REMARK    4  A    between atoms: C_13  and  N_14 
REMARK    5  A    between atoms: N_14  and  N_15 
REMARK       I    between atoms: N_15  and  C_16 
REMARK    6  A    between atoms: C_16  and  C_18 
REMARK    7  A    between atoms: C_20  and  O_21 
REMARK    8  A    between atoms: C_23  and  O_24 
ROOT
ATOM      1  N   UNL d   1       4.693   1.774   5.973  0.00  0.00    -0.160 NA
ATOM      2  C   UNL d   1       5.204   2.273   7.076  0.00  0.00     0.079 A 
ATOM      3  C   UNL d   1       4.521   1.980   8.387  0.00  0.00     0.068 A 
ATOM      4  C   UNL d   1       4.923   2.426   9.599  0.00  0.00     0.101 A 
ATOM      5  C   UNL d   1       6.157   3.287   9.698  0.00  0.00     0.207 A 
ATOM      6  O   UNL d   1       6.550   3.717  10.788  0.00  0.00    -0.285 OA
ATOM      7  C   UNL d   1       6.884   3.597   8.457  0.00  0.00     0.007 A 
ATOM      8  C   UNL d   1       6.429   3.132   7.284  0.00  0.00    -0.015 A 
ATOM      9  C   UNL d   1       7.211   3.445   6.080  0.00  0.00     0.068 C 
ATOM     10  C   UNL d   1       8.595   3.887   6.177  0.00  0.00    -0.026 C 
ATOM     11  C   UNL d   1       9.056   4.344   7.334  0.00  0.00    -0.026 C 
ATOM     12  C   UNL d   1       8.155   4.427   8.546  0.00  0.00     0.070 C 
ENDROOT
BRANCH   4  13
ATOM     13  N   UNL d   1       4.295   2.170  10.810  0.00  0.00    -0.294 N 
ATOM     14  H   UNL d   1       4.726   2.583  11.654  0.00  0.00     0.187 HD
BRANCH  13  15
ATOM     15  N   UNL d   1       3.160   1.391  10.986  0.00  0.00    -0.265 N 
ATOM     16  C   UNL d   1       2.582   1.265  12.231  0.00  0.00     0.270 C 
ATOM     17  O   UNL d   1       3.002   1.797  13.260  0.00  0.00    -0.266 OA
ATOM     18  H   UNL d   1       2.716   1.015  10.159  0.00  0.00     0.190 HD
BRANCH  16  19
ATOM     19  C   UNL d   1       1.365   0.407  12.274  0.00  0.00     0.038 A 
ATOM     20  C   UNL d   1       0.303   0.756  13.117  0.00  0.00     0.053 A 
ATOM     21  C   UNL d   1      -0.758  -0.135  13.277  0.00  0.00     0.069 A 
ATOM     22  C   UNL d   1      -0.822  -1.321  12.551  0.00  0.00     0.073 A 
ATOM     23  C   UNL d   1       0.227  -1.644  11.698  0.00  0.00     0.069 A 
ATOM     24  C   UNL d   1       1.321  -0.795  11.555  0.00  0.00     0.053 A 
BRANCH  21  25
ATOM     25  O   UNL d   1      -1.753   0.095  14.184  0.00  0.00    -0.361 OA
ATOM     26  H   UNL d   1      -1.478   0.812  14.781  0.00  0.00     0.217 HD
ENDBRANCH  21  25
BRANCH  23  27
ATOM     27  O   UNL d   1       0.248  -2.818  11.003  0.00  0.00    -0.361 OA
ATOM     28  H   UNL d   1      -0.515  -3.358  11.272  0.00  0.00     0.217 HD
ENDBRANCH  23  27
ENDBRANCH  16  19
ENDBRANCH  13  15
ENDBRANCH   4  13
BRANCH   1  29
ATOM     29  S   UNL d   1       5.355   2.000   4.479  0.00  0.00     0.283 S 
ATOM     30  O   UNL d   1       6.558   1.197   4.360  0.00  0.00    -0.198 OA
ATOM     31  O   UNL d   1       5.323   3.419   4.170  0.00  0.00    -0.198 OA
BRANCH  29  32
ATOM     32  C   UNL d   1       4.418   1.379   3.167  0.00  0.00     0.081 A 
ATOM     33  C   UNL d   1       4.919   1.616   1.871  0.00  0.00     0.028 A 
ATOM     34  C   UNL d   1       4.149   1.256   0.784  0.00  0.00     0.038 A 
ATOM     35  C   UNL d   1       2.941   0.599   1.012  0.00  0.00     0.068 A 
ATOM     36  C   UNL d   1       2.485   0.358   2.320  0.00  0.00     0.038 A 
ATOM     37  C   UNL d   1       3.223   0.757   3.416  0.00  0.00     0.028 A 
BRANCH  35  38
ATOM     38  O   UNL d   1       2.315   0.135  -0.109  0.00  0.00    -0.356 OA
ATOM     39  C   UNL d   1       0.902   0.042  -0.015  0.00  0.00     0.210 C 
ENDBRANCH  35  38
ENDBRANCH  29  32
ENDBRANCH   1  29
TORSDOF 8
