REMARK  7 active torsions:
REMARK  status: ('A' for Active; 'I' for Inactive)
REMARK    1  A    between atoms: N_5  and  C_6 
REMARK    2  A    between atoms: C_6  and  C_7 
REMARK    3  A    between atoms: C_8  and  C_9 
REMARK       I    between atoms: C_9  and  N_11 
REMARK    4  A    between atoms: N_11  and  N_12 
REMARK    5  A    between atoms: C_13  and  C_14 
REMARK    6  A    between atoms: N_22  and  C_23 
REMARK    7  A    between atoms: C_27  and  N_28 
ROOT
ATOM      1  C   UNL d   1       2.428   1.208   5.221  0.00  0.00     0.096 C 
ATOM      2  C   UNL d   1       3.070   1.162   6.477  0.00  0.00     0.170 C 
ATOM      3  N   UNL d   1       3.360   2.473   6.817  0.00  0.00    -0.152 NA
ATOM      4  N   UNL d   1       2.970   3.294   5.859  0.00  0.00     0.012 NA
ATOM      5  N   UNL d   1       2.233   2.607   4.970  0.00  0.00    -0.215 N 
ENDROOT
BRANCH   2   6
ATOM      6  C   UNL d   1       3.516   0.077   7.434  0.00  0.00     0.293 C 
ATOM      7  O   UNL d   1       4.128   0.399   8.463  0.00  0.00    -0.264 OA
ATOM      8  N   UNL d   1       3.232  -1.278   7.161  0.00  0.00    -0.242 N 
ATOM      9  H   UNL d   1       2.724  -1.577   6.353  0.00  0.00     0.192 HD
BRANCH   8  10
ATOM     10  N   UNL d   1       3.637  -2.300   8.034  0.00  0.00    -0.188 NA
ATOM     11  C   UNL d   1       3.328  -3.527   7.712  0.00  0.00     0.116 C 
BRANCH  11  12
ATOM     12  C   UNL d   1       3.833  -4.757   8.499  0.00  0.00     0.028 C 
ATOM     13  C   UNL d   1       2.940  -6.017   8.421  0.00  0.00     0.010 C 
ATOM     14  C   UNL d   1       2.861  -6.606   7.012  0.00  0.00     0.001 C 
ATOM     15  C   UNL d   1       4.251  -6.904   6.461  0.00  0.00     0.000 C 
ATOM     16  C   UNL d   1       5.144  -5.668   6.526  0.00  0.00     0.001 C 
ATOM     17  C   UNL d   1       5.226  -5.112   7.952  0.00  0.00     0.010 C 
ENDBRANCH  11  12
ENDBRANCH   8  10
ENDBRANCH   2   6
BRANCH   1  18
ATOM     18  C   UNL d   1       2.008   0.131   4.277  0.00  0.00     0.296 C 
BRANCH  18  19
ATOM     19  N   UNL d   1       2.768   0.031   2.947  0.00  0.00    -0.066 N 
ATOM     20  C   UNL d   1       2.458  -1.269   2.188  0.00  0.00     0.235 C 
ATOM     21  C   UNL d   1       3.085  -1.234   0.791  0.00  0.00     0.032 C 
ATOM     22  C   UNL d   1       2.599  -0.021  -0.008  0.00  0.00    -0.015 C 
ATOM     23  C   UNL d   1       1.063   0.013  -0.119  0.00  0.00     0.010 C 
ATOM     24  C   UNL d   1       3.143   1.195   0.715  0.00  0.00     0.032 C 
ATOM     25  C   UNL d   1       2.564   1.261   2.099  0.00  0.00     0.235 C 
ATOM     26  H   UNL d   1       3.770   0.001   3.174  0.00  0.00     0.280 HD
ENDBRANCH  18  19
ENDBRANCH   1  18
BRANCH   5  27
ATOM     27  C   UNL d   1       1.458   3.272   3.956  0.00  0.00     0.225 A 
ATOM     28  N   UNL d   1       2.023   4.181   3.148  0.00  0.00    -0.081 NA
ATOM     29  O   UNL d   1       1.071   4.383   2.135  0.00  0.00    -0.103 OA
ATOM     30  N   UNL d   1      -0.061   3.599   2.353  0.00  0.00    -0.083 NA
ATOM     31  C   UNL d   1       0.182   2.936   3.481  0.00  0.00     0.201 A 
BRANCH  31  32
ATOM     32  N   UNL d   1      -0.624   2.002   4.023  0.00  0.00    -0.379 N 
ATOM     33  H   UNL d   1      -1.608   2.071   3.756  0.00  0.00     0.158 HD
ATOM     34  H   UNL d   1      -0.542   1.792   5.015  0.00  0.00     0.158 HD
ENDBRANCH  31  32
ENDBRANCH   5  27
TORSDOF 7
