@<TRIPOS>MOLECULE
*****
 41 44 0 0 0
SMALL
GASTEIGER

@<TRIPOS>ATOM
      1 O           1.0011   -0.1754   -0.0505 O.2     1  UNL1       -0.2698
      2 C           2.2283   -0.1497    0.0529 C.2     1  UNL1        0.2490
      3 N           2.9241   -0.4674    1.2198 N.am    1  UNL1       -0.2815
      4 C           2.2480   -0.8039    2.4244 C.ar    1  UNL1        0.0339
      5 C           1.1404   -1.6617    2.4188 C.ar    1  UNL1       -0.0370
      6 C           0.4566   -1.9701    3.6020 C.ar    1  UNL1       -0.0184
      7 C           0.8732   -1.3999    4.7974 C.ar    1  UNL1        0.1170
      8 O           0.2362   -1.6505    5.9772 O.3     1  UNL1       -0.5068
      9 C           1.9699   -0.5450    4.8232 C.ar    1  UNL1       -0.0184
     10 C           2.6777   -0.2678    3.6431 C.ar    1  UNL1       -0.0370
     11 C           3.0275    0.3064   -1.1270 C.ar    1  UNL1        0.0482
     12 C           4.1380   -0.4457   -1.5008 C.ar    1  UNL1       -0.0229
     13 C           4.8561   -0.0604   -2.6261 C.ar    1  UNL1        0.0738
     14 C           6.0184   -0.8255   -3.0757 C.ar    1  UNL1        0.0185
     15 C           7.3000   -0.2673   -3.1470 C.ar    1  UNL1       -0.0497
     16 C           8.3901   -1.0647   -3.4955 C.ar    1  UNL1       -0.0430
     17 C           8.1646   -2.4024   -3.7757 C.ar    1  UNL1        0.0276
     18 N           6.9457   -2.9786   -3.7419 N.ar    1  UNL1       -0.2626
     19 C           5.9079   -2.1763   -3.4052 C.ar    1  UNL1        0.0367
     20 N           4.5306    1.0251   -3.3649 N.ar    1  UNL1       -0.2466
     21 C           3.4406    1.7391   -3.0328 C.ar    1  UNL1        0.0724
     22 C           3.1022    2.8377   -3.8213 C.ar    1  UNL1       -0.0357
     23 C           1.9866    3.6323   -3.5469 C.ar    1  UNL1       -0.0597
     24 C           1.1813    3.3234   -2.4636 C.ar    1  UNL1       -0.0611
     25 C           1.5034    2.2342   -1.6565 C.ar    1  UNL1       -0.0518
     26 C           2.6337    1.4207   -1.9167 C.ar    1  UNL1        0.0125
     27 H           3.8929   -0.1815    1.2994 H       1  UNL1        0.1551
     28 H           0.8088   -2.1174    1.4892 H       1  UNL1        0.0637
     29 H          -0.3940   -2.6429    3.5583 H       1  UNL1        0.0655
     30 H          -0.4899   -2.2771    5.8216 H       1  UNL1        0.2921
     31 H           2.2605   -0.0837    5.7638 H       1  UNL1        0.0655
     32 H           3.5117    0.4260    3.6927 H       1  UNL1        0.0637
     33 H           4.4258   -1.3333   -0.9476 H       1  UNL1        0.0647
     34 H           7.4545    0.7841   -2.9144 H       1  UNL1        0.0625
     35 H           9.3928   -0.6545   -3.5405 H       1  UNL1        0.0633
     36 H           8.9821   -3.0659   -4.0429 H       1  UNL1        0.0829
     37 H           4.9407   -2.6743   -3.4018 H       1  UNL1        0.0836
     38 H           3.7247    3.0884   -4.6791 H       1  UNL1        0.0639
     39 H           1.7499    4.4860   -4.1772 H       1  UNL1        0.0618
     40 H           0.3026    3.9215   -2.2369 H       1  UNL1        0.0618
     41 H           0.8472    2.0222   -0.8153 H       1  UNL1        0.0624
@<TRIPOS>BOND
     1     1     2    2
     2     2     3   am
     3     3     4    1
     4     4     5   ar
     5     5     6   ar
     6     6     7   ar
     7     7     8    1
     8     7     9   ar
     9     9    10   ar
    10     4    10   ar
    11     2    11    1
    12    11    12   ar
    13    12    13   ar
    14    13    14    1
    15    14    15   ar
    16    15    16   ar
    17    16    17   ar
    18    17    18   ar
    19    18    19   ar
    20    14    19   ar
    21    13    20   ar
    22    20    21   ar
    23    21    22   ar
    24    22    23   ar
    25    23    24   ar
    26    24    25   ar
    27    25    26   ar
    28    11    26   ar
    29    21    26   ar
    30     3    27    1
    31     5    28    1
    32     6    29    1
    33     8    30    1
    34     9    31    1
    35    10    32    1
    36    12    33    1
    37    15    34    1
    38    16    35    1
    39    17    36    1
    40    19    37    1
    41    22    38    1
    42    23    39    1
    43    24    40    1
    44    25    41    1
