@<TRIPOS>MOLECULE
*****
 42 43 0 0 0
SMALL
GASTEIGER

@<TRIPOS>ATOM
      1 C           2.5098    1.1078    0.0079 C.3     1  UNL1       -0.0397
      2 C           1.2102    0.3601   -0.0000 C.ar    1  UNL1       -0.0501
      3 C           1.2373   -1.0241    0.0044 C.ar    1  UNL1       -0.0571
      4 C           0.0529   -1.7511    0.0010 C.ar    1  UNL1       -0.0400
      5 C          -1.2108   -1.1494   -0.0005 C.ar    1  UNL1        0.0364
      6 N          -2.3893   -1.9616   -0.0030 N.am    1  UNL1       -0.2837
      7 C          -2.4172   -3.3589   -0.0163 C.2     1  UNL1        0.2373
      8 O          -1.4315   -4.1017   -0.0002 O.2     1  UNL1       -0.2734
      9 C          -3.8120   -4.0282   -0.0525 C.3     1  UNL1        0.0972
     10 C          -4.5667   -3.6050   -1.3063 C.3     1  UNL1       -0.0381
     11 N          -3.5968   -5.4931   -0.0234 N.am    1  UNL1       -0.3003
     12 C          -4.6234   -6.4075   -0.0363 C.2     1  UNL1        0.2447
     13 O          -5.8111   -6.0881   -0.0434 O.2     1  UNL1       -0.2702
     14 C          -4.2694   -7.8514   -0.0839 C.ar    1  UNL1        0.0368
     15 C          -3.2980   -8.3960    0.7626 C.ar    1  UNL1       -0.0483
     16 C          -3.0431   -9.7746    0.7368 C.ar    1  UNL1       -0.0427
     17 C          -3.7508  -10.6037   -0.1355 C.ar    1  UNL1        0.0410
     18 CL         -3.4118  -12.2909   -0.1785 Cl      1  UNL1       -0.0835
     19 C          -4.7315  -10.0720   -0.9699 C.ar    1  UNL1       -0.0427
     20 C          -4.9959   -8.6976   -0.9382 C.ar    1  UNL1       -0.0483
     21 C          -1.2596    0.2648   -0.0022 C.ar    1  UNL1       -0.0290
     22 C          -2.5357    1.0691   -0.0045 C.3     1  UNL1       -0.0379
     23 C          -0.0379    1.0008   -0.0062 C.ar    1  UNL1       -0.0542
     24 H           3.3607    0.4136    0.0028 H       1  UNL1        0.0278
     25 H           2.5950    1.7182    0.9109 H       1  UNL1        0.0278
     26 H           2.5991    1.7364   -0.8820 H       1  UNL1        0.0278
     27 H           2.1755   -1.5731    0.0105 H       1  UNL1        0.0621
     28 H           0.1872   -2.8227    0.0012 H       1  UNL1        0.0636
     29 H          -3.2765   -1.4772   -0.0028 H       1  UNL1        0.1549
     30 H          -4.3601   -3.7583    0.8564 H       1  UNL1        0.0592
     31 H          -3.9950   -3.8566   -2.2064 H       1  UNL1        0.0252
     32 H          -4.7585   -2.5286   -1.3158 H       1  UNL1        0.0252
     33 H          -5.5356   -4.1048   -1.3822 H       1  UNL1        0.0252
     34 H          -2.6237   -5.7943   -0.0662 H       1  UNL1        0.1498
     35 H          -2.7659   -7.7680    1.4714 H       1  UNL1        0.0625
     36 H          -2.3004  -10.1998    1.4075 H       1  UNL1        0.0632
     37 H          -5.2968  -10.7193   -1.6367 H       1  UNL1        0.0632
     38 H          -5.7749   -8.2882   -1.5790 H       1  UNL1        0.0625
     39 H          -3.4341    0.4515    0.0251 H       1  UNL1        0.0278
     40 H          -2.5979    1.6828   -0.9104 H       1  UNL1        0.0278
     41 H          -2.5752    1.7263    0.8720 H       1  UNL1        0.0278
     42 H          -0.0606    2.0914   -0.0133 H       1  UNL1        0.0623
@<TRIPOS>BOND
     1     1     2    1
     2     2     3   ar
     3     3     4   ar
     4     4     5   ar
     5     5     6    1
     6     6     7   am
     7     7     8    2
     8     7     9    1
     9     9    10    1
    10     9    11    1
    11    11    12   am
    12    12    13    2
    13    12    14    1
    14    14    15   ar
    15    15    16   ar
    16    16    17   ar
    17    17    18    1
    18    17    19   ar
    19    19    20   ar
    20    14    20   ar
    21     5    21   ar
    22    21    22    1
    23    21    23   ar
    24     2    23   ar
    25     1    24    1
    26     1    25    1
    27     1    26    1
    28     3    27    1
    29     4    28    1
    30     6    29    1
    31     9    30    1
    32    10    31    1
    33    10    32    1
    34    10    33    1
    35    11    34    1
    36    15    35    1
    37    16    36    1
    38    19    37    1
    39    20    38    1
    40    22    39    1
    41    22    40    1
    42    22    41    1
    43    23    42    1
