@<TRIPOS>MOLECULE
*****
 62 63 0 0 0
SMALL
GASTEIGER

@<TRIPOS>ATOM
      1 C           6.5330   -1.2044   -3.1335 C.3     1  UNL1       -0.0652
      2 C           6.1104   -0.1076   -2.2451 C.3     1  UNL1       -0.0538
      3 C           4.8882   -0.1882   -1.4854 C.3     1  UNL1       -0.0256
      4 C           4.5403    1.1418   -0.8107 C.3     1  UNL1        0.1073
      5 C           3.0964    0.7984   -0.4979 C.2     1  UNL1        0.2340
      6 O           2.4036   -0.1343   -1.0254 O.2     1  UNL1       -0.2738
      7 N           2.6443    1.6432    0.4563 N.am    1  UNL1       -0.3138
      8 C           1.2006    1.8098    0.6396 C.3     1  UNL1        0.0119
      9 C           0.2054    3.4434    1.1591 C.3     1  UNL1       -0.0350
     10 C          -1.3959    3.8603    0.9693 C.3     1  UNL1       -0.0453
     11 C          -2.1981    3.0914    1.9951 C.3     1  UNL1       -0.0626
     12 C          -1.7850    5.3513    1.1126 C.3     1  UNL1       -0.0626
     13 N           4.9310    2.5870   -1.4047 N.am    1  UNL1       -0.2551
     14 C           4.0620    3.6526   -1.9455 C.2     1  UNL1        0.2614
     15 O           4.5721    4.6745   -2.4243 O.2     1  UNL1       -0.2689
     16 C           2.5958    3.6032   -1.8778 C.ar    1  UNL1        0.1156
     17 S           1.5617    3.6322   -3.2392 S.2     1  UNL1        0.0190
     18 N           0.0811    3.2233   -2.5829 N.ar    1  UNL1       -0.2031
     19 C           0.2084    3.0401   -1.2723 C.ar    1  UNL1        0.1554
     20 C          -0.9327    1.8825   -0.5062 C.2     1  UNL1        0.2624
     21 N          -2.2296    1.6083   -0.8016 N.am    1  UNL1       -0.3240
     22 O          -0.8408    1.2797    0.5943 O.2     1  UNL1       -0.2687
     23 C           1.8024    3.7195   -0.7647 C.ar    1  UNL1        0.0765
     24 N           2.5305    3.9072    0.6146 N.pl3   1  UNL1       -0.3551
     25 C           6.4057    2.9359   -1.3196 C.ar    1  UNL1        0.0377
     26 C           7.4292    2.1290   -1.8390 C.ar    1  UNL1       -0.0402
     27 C           8.8078    2.2298   -1.7629 C.ar    1  UNL1       -0.0598
     28 C           9.2723    3.4329   -1.3827 C.ar    1  UNL1       -0.0587
     29 C           8.3371    4.3932   -0.9636 C.ar    1  UNL1       -0.0487
     30 C           8.8873    5.7300   -0.6167 C.3     1  UNL1       -0.0397
     31 C           6.9228    4.1427   -0.8837 C.ar    1  UNL1       -0.0373
     32 H           7.4439   -0.8656   -3.6392 H       1  UNL1        0.0230
     33 H           5.7493   -1.3778   -3.8689 H       1  UNL1        0.0230
     34 H           6.7374   -2.0777   -2.5231 H       1  UNL1        0.0230
     35 H           5.8471    0.7066   -2.9347 H       1  UNL1        0.0263
     36 H           6.8871    0.0059   -1.4812 H       1  UNL1        0.0263
     37 H           4.9655   -0.9653   -0.7125 H       1  UNL1        0.0288
     38 H           4.1374   -0.4783   -2.2221 H       1  UNL1        0.0288
     39 H           5.0040    1.1696    0.1963 H       1  UNL1        0.0600
     40 H           3.0917    2.4528    0.0713 H       1  UNL1        0.1487
     41 H           0.9769    0.9086    1.1899 H       1  UNL1        0.0462
     42 H           1.0030    1.4661   -0.4136 H       1  UNL1        0.0462
     43 H           0.4922    4.3827    0.6111 H       1  UNL1        0.0283
     44 H           0.5310    3.7468    2.1520 H       1  UNL1        0.0283
     45 H          -1.7607    3.7890   -0.0686 H       1  UNL1        0.0296
     46 H          -1.8161    3.4020    2.9644 H       1  UNL1        0.0232
     47 H          -2.1042    2.0100    2.0309 H       1  UNL1        0.0232
     48 H          -3.2636    3.2533    1.8357 H       1  UNL1        0.0232
     49 H          -1.4892    5.7196    2.0887 H       1  UNL1        0.0232
     50 H          -2.8825    5.4344    1.0101 H       1  UNL1        0.0232
     51 H          -1.3796    5.9999    0.3221 H       1  UNL1        0.0232
     52 H          -2.7636    2.3675   -1.1525 H       1  UNL1        0.1453
     53 H          -2.6035    1.2255    0.0925 H       1  UNL1        0.1453
     54 H           2.1282    3.4082    1.4339 H       1  UNL1        0.1424
     55 H           3.4890    3.6107    0.9078 H       1  UNL1        0.1424
     56 H           7.2862    1.4791   -2.6696 H       1  UNL1        0.0636
     57 H           9.4236    1.4486   -2.2034 H       1  UNL1        0.0618
     58 H          10.3308    3.6326   -1.5127 H       1  UNL1        0.0620
     59 H           9.9687    5.7463   -0.7951 H       1  UNL1        0.0278
     60 H           8.7034    5.9075    0.4415 H       1  UNL1        0.0278
     61 H           8.4245    6.4900   -1.2478 H       1  UNL1        0.0278
     62 H           6.2676    4.9364   -0.5352 H       1  UNL1        0.0639
@<TRIPOS>BOND
     1     1     2    1
     2     2     3    1
     3     5     6    2
     4     5     7   am
     5     7     8    1
     6     8     9    1
     7     9    10    1
     8    10    11    1
     9    10    12    1
    10     4    13    1
    11    13    14   am
    12    14    15    2
    13    14    16    1
    14    16    17   ar
    15    17    18   ar
    16    18    19   ar
    17    19    20    1
    18    20    21   am
    19    20    22    2
    20    19    23   ar
    21    16    23   ar
    22    23    24    1
    23    13    25    1
    24    25    26   ar
    25    26    27   ar
    26    27    28   ar
    27    28    29   ar
    28    29    30    1
    29    29    31   ar
    30    25    31   ar
    31     4     5    1
    32     4     3    1
    33     1    32    1
    34     1    33    1
    35     1    34    1
    36     2    35    1
    37     2    36    1
    38     3    37    1
    39     3    38    1
    40     4    39    1
    41     7    40    1
    42     8    41    1
    43     8    42    1
    44     9    43    1
    45     9    44    1
    46    10    45    1
    47    11    46    1
    48    11    47    1
    49    11    48    1
    50    12    49    1
    51    12    50    1
    52    12    51    1
    53    21    52    1
    54    21    53    1
    55    24    54    1
    56    24    55    1
    57    26    56    1
    58    27    57    1
    59    28    58    1
    60    30    59    1
    61    30    60    1
    62    30    61    1
    63    31    62    1
