@<TRIPOS>MOLECULE
*****
 52 54 0 0 0
SMALL
GASTEIGER

@<TRIPOS>ATOM
      1 C          -3.1694   -1.9215    0.0067 C.3     1  UNL1       -0.0362
      2 C          -2.3407   -0.6757   -0.0046 C.ar    1  UNL1       -0.0077
      3 C          -0.9426   -0.8619   -0.0119 C.ar    1  UNL1       -0.0414
      4 C          -0.0654    0.2171   -0.0038 C.ar    1  UNL1        0.0184
      5 BR          1.7971   -0.1064   -0.0012 Br      1  UNL1       -0.0503
      6 C          -0.5628    1.5113    0.0046 C.ar    1  UNL1       -0.0443
      7 C          -1.9537    1.7125   -0.0006 C.ar    1  UNL1       -0.0186
      8 C          -2.8625    0.6278   -0.0038 C.ar    1  UNL1        0.1242
      9 O          -4.1872    0.9950   -0.0045 O.3     1  UNL1       -0.4825
     10 C          -5.2418    0.0147   -0.0093 C.3     1  UNL1        0.1655
     11 C          -6.6369    0.6511   -0.0151 C.2     1  UNL1        0.2561
     12 O          -6.7051    1.8785   -0.0179 O.2     1  UNL1       -0.2717
     13 N          -7.7662   -0.2140   -0.0158 N.am    1  UNL1       -0.2639
     14 C          -9.1107    0.2167   -0.0212 C.2     1  UNL1        0.1531
     15 S          -9.5991    1.8370   -0.0287 S.2     1  UNL1       -0.0170
     16 N         -10.0990   -0.7850   -0.0167 N.am    1  UNL1       -0.2453
     17 N         -11.4940   -0.3592   -0.0369 N.am    1  UNL1       -0.2311
     18 C         -12.5564   -1.2497    0.0400 C.2     1  UNL1        0.2601
     19 O         -12.4043   -2.4653    0.1063 O.2     1  UNL1       -0.2687
     20 C         -13.9478   -0.6601    0.0038 C.ar    1  UNL1        0.0383
     21 C         -15.0099   -1.2130    0.7448 C.ar    1  UNL1       -0.0478
     22 C         -16.3486   -0.7560    0.5780 C.ar    1  UNL1       -0.0398
     23 C         -16.6357    0.3103   -0.2872 C.ar    1  UNL1        0.0334
     24 N         -17.9523    0.8641   -0.3835 N.am    1  UNL1       -0.2853
     25 C         -18.2880    1.9825   -1.1466 C.2     1  UNL1        0.2203
     26 O         -17.5331    2.6161   -1.8838 O.2     1  UNL1       -0.2752
     27 C         -19.7130    2.4359   -1.0999 C.3     1  UNL1        0.0359
     28 C         -20.1583    3.6771   -1.8711 C.3     1  UNL1       -0.0412
     29 C         -20.5182    2.3154   -2.3804 C.3     1  UNL1       -0.0412
     30 C         -15.5668    0.8250   -1.0269 C.ar    1  UNL1       -0.0398
     31 C         -14.2488    0.3655   -0.8855 C.ar    1  UNL1       -0.0478
     32 H          -2.5689   -2.8321    0.0130 H       1  UNL1        0.0279
     33 H          -3.7801   -1.9713   -0.8968 H       1  UNL1        0.0279
     34 H          -3.7739   -1.9567    0.9156 H       1  UNL1        0.0279
     35 H          -0.5410   -1.8729   -0.0218 H       1  UNL1        0.0632
     36 H           0.1173    2.3608    0.0141 H       1  UNL1        0.0630
     37 H          -2.3234    2.7383   -0.0011 H       1  UNL1        0.0654
     38 H          -5.1874   -0.5706    0.9101 H       1  UNL1        0.0795
     39 H          -5.1795   -0.5718   -0.9275 H       1  UNL1        0.0795
     40 H          -7.5930   -1.2125   -0.0136 H       1  UNL1        0.1566
     41 H          -9.9628   -1.7948   -0.0195 H       1  UNL1        0.1718
     42 H         -11.6284    0.6532   -0.0164 H       1  UNL1        0.1731
     43 H         -14.8034   -2.0058    1.4630 H       1  UNL1        0.0626
     44 H         -17.1406   -1.2649    1.1269 H       1  UNL1        0.0636
     45 H         -18.6764    0.4517    0.1946 H       1  UNL1        0.1548
     46 H         -20.2018    2.3287   -0.1373 H       1  UNL1        0.0394
     47 H         -19.4241    4.2477   -2.4353 H       1  UNL1        0.0273
     48 H         -20.9531    4.2990   -1.4739 H       1  UNL1        0.0273
     49 H         -20.0053    1.9921   -3.2832 H       1  UNL1        0.0273
     50 H         -21.5454    1.9825   -2.3213 H       1  UNL1        0.0273
     51 H         -15.7147    1.5977   -1.7706 H       1  UNL1        0.0636
     52 H         -13.4931    0.8130   -1.5233 H       1  UNL1        0.0626
@<TRIPOS>BOND
     1     1     2    1
     2     2     3   ar
     3     3     4   ar
     4     4     5    1
     5     4     6   ar
     6     6     7   ar
     7     7     8   ar
     8     2     8   ar
     9     8     9    1
    10     9    10    1
    11    10    11    1
    12    11    12    2
    13    11    13   am
    14    13    14    1
    15    14    15    2
    16    14    16    1
    17    16    17    1
    18    17    18   am
    19    18    19    2
    20    18    20    1
    21    20    21   ar
    22    21    22   ar
    23    22    23   ar
    24    23    24    1
    25    24    25   am
    26    25    26    2
    27    25    27    1
    28    27    28    1
    29    28    29    1
    30    27    29    1
    31    23    30   ar
    32    30    31   ar
    33    20    31   ar
    34     1    32    1
    35     1    33    1
    36     1    34    1
    37     3    35    1
    38     6    36    1
    39     7    37    1
    40    10    38    1
    41    10    39    1
    42    13    40    1
    43    16    41    1
    44    17    42    1
    45    21    43    1
    46    22    44    1
    47    24    45    1
    48    27    46    1
    49    28    47    1
    50    28    48    1
    51    29    49    1
    52    29    50    1
    53    30    51    1
    54    31    52    1
