@<TRIPOS>MOLECULE
*****
 40 41 0 0 0
SMALL
GASTEIGER

@<TRIPOS>ATOM
      1 C           0.9307   -0.1247    0.0462 C.2     1  UNL1       -0.1010
      2 C           2.2686   -0.1902    0.0364 C.2     1  UNL1       -0.0714
      3 C           3.0867    0.5181    1.0587 C.3     1  UNL1        0.0488
      4 N           4.5083    0.4519    0.8325 N.ar    1  UNL1       -0.2631
      5 C           5.3239    1.6765    0.7340 C.ar    1  UNL1        0.1779
      6 S           4.6706    3.3449    0.8621 S.3     1  UNL1       -0.0781
      7 C           2.8418    3.5089    1.1010 C.3     1  UNL1        0.0780
      8 C           2.2929    4.9226    1.2138 C.2     1  UNL1        0.2307
      9 O           3.0618    5.8759    1.1186 O.2     1  UNL1       -0.2744
     10 N           0.9005    5.0261    1.4025 N.am    1  UNL1       -0.2395
     11 C           0.2962    6.2606    1.4793 C.2     1  UNL1        0.3057
     12 O           0.9195    7.3179    1.3914 O.2     1  UNL1       -0.2524
     13 N          -1.0688    6.2825    1.6674 N.am    1  UNL1       -0.3022
     14 C          -1.7462    7.5760    1.7671 C.3     1  UNL1        0.0015
     15 N           6.6153    1.5934    0.5607 N.ar    1  UNL1       -0.1856
     16 C           7.1328    0.3371    0.4802 C.ar    1  UNL1        0.2688
     17 O           8.4552    0.0232    0.2934 O.2     1  UNL1       -0.3339
     18 N           8.6234   -1.3600    0.2653 N.ar    1  UNL1       -0.0801
     19 C           7.4090   -1.8986    0.4364 C.ar    1  UNL1        0.0979
     20 C           7.2686   -3.3884    0.4506 C.3     1  UNL1       -0.0181
     21 C           6.4682   -0.8536    0.5754 C.ar    1  UNL1        0.1530
     22 C           5.0620   -0.7696    0.7934 C.ar    1  UNL1        0.2937
     23 N           4.3926   -1.8976    0.9357 N.2     1  UNL1       -0.2386
     24 H           0.3466   -0.6244   -0.7207 H       1  UNL1        0.0532
     25 H           0.3791    0.4486    0.7896 H       1  UNL1        0.0532
     26 H           2.7603   -0.6969   -0.7892 H       1  UNL1        0.0584
     27 H           2.8560    0.2797    2.1005 H       1  UNL1        0.0538
     28 H           2.7654    1.4955    0.8756 H       1  UNL1        0.0538
     29 H           2.5638    3.0006    2.0329 H       1  UNL1        0.0475
     30 H           2.3356    3.1141    0.2112 H       1  UNL1        0.0475
     31 H           0.3046    4.2136    1.4617 H       1  UNL1        0.1591
     32 H          -1.6464    5.4588    1.7434 H       1  UNL1        0.1499
     33 H          -1.0509    8.4168    1.6735 H       1  UNL1        0.0426
     34 H          -2.2446    7.6501    2.7376 H       1  UNL1        0.0426
     35 H          -2.4925    7.6578    0.9721 H       1  UNL1        0.0426
     36 H           8.2267   -3.9064    0.3137 H       1  UNL1        0.0294
     37 H           6.6061   -3.7308   -0.3528 H       1  UNL1        0.0294
     38 H           6.8528   -3.7386    1.4023 H       1  UNL1        0.0294
     39 H           4.8302   -2.8024    0.8506 H       1  UNL1        0.4450
     40 H           3.3992   -1.9184    1.1193 H       1  UNL1        0.4450
@<TRIPOS>UNITY_ATOM_ATTR
23 1
charge 1
@<TRIPOS>BOND
     1     1     2    2
     2     2     3    1
     3     3     4    1
     4     4     5   ar
     5     5     6    1
     6     6     7    1
     7     7     8    1
     8     8     9    2
     9     8    10   am
    10    10    11   am
    11    11    12    2
    12    11    13   am
    13    13    14    1
    14     5    15   ar
    15    15    16   ar
    16    16    17   ar
    17    17    18   ar
    18    18    19   ar
    19    19    20    1
    20    19    21   ar
    21    16    21   ar
    22    21    22   ar
    23     4    22   ar
    24    22    23    2
    25     1    24    1
    26     1    25    1
    27     2    26    1
    28     3    27    1
    29     3    28    1
    30     7    29    1
    31     7    30    1
    32    10    31    1
    33    13    32    1
    34    14    33    1
    35    14    34    1
    36    14    35    1
    37    20    36    1
    38    20    37    1
    39    20    38    1
    40    23    39    1
    41    23    40    1
