@<TRIPOS>MOLECULE
*****
 66 69 0 0 0
SMALL
GASTEIGER

@<TRIPOS>ATOM
      1 C           4.4565   -0.6190   -7.6674 C.3     1  UNL1       -0.0653
      2 C           3.7460   -0.2710   -6.3619 C.3     1  UNL1       -0.0559
      3 C           4.6550   -0.6784   -5.2468 C.3     1  UNL1       -0.0531
      4 C           4.1549   -0.5958   -3.8218 C.3     1  UNL1       -0.0502
      5 C           5.1597   -1.1993   -2.8041 C.3     1  UNL1       -0.0410
      6 C           5.0846   -2.7288   -2.6898 C.3     1  UNL1       -0.0495
      7 C           5.6293   -3.4845   -3.9235 C.3     1  UNL1       -0.0415
      8 C           7.0712   -3.0625   -4.3676 C.3     1  UNL1        0.0357
      9 C           7.4991   -3.6127   -5.7815 C.ar    1  UNL1        0.2022
     10 N           8.5671   -4.3295   -6.1377 N.ar    1  UNL1       -0.2004
     11 C           8.4549   -4.4554   -7.5274 C.ar    1  UNL1        0.2007
     12 C           9.3894   -5.1102   -8.4075 C.1     1  UNL1        0.1244
     13 N          10.0446   -5.6011   -9.2261 N.1     1  UNL1       -0.1891
     14 C           7.3339   -3.8017   -7.9899 C.ar    1  UNL1        0.2271
     15 N           6.7797   -3.6451   -9.2291 N.pl3   1  UNL1       -0.2990
     16 C           6.4299   -4.7729  -10.0931 C.3     1  UNL1        0.0156
     17 C           7.2105   -4.7250  -11.4144 C.3     1  UNL1       -0.0260
     18 C           7.0311   -3.3837  -12.1374 C.3     1  UNL1        0.0387
     19 C           5.6049   -3.1843  -12.6778 C.2     1  UNL1        0.2205
     20 O           4.9035   -2.2699  -12.2485 O.2     1  UNL1       -0.2752
     21 N           5.1306   -4.1294  -13.5756 N.am    1  UNL1       -0.2811
     22 C           3.8355   -4.0686  -14.0716 C.ar    1  UNL1        0.0968
     23 C           3.0336   -5.1460  -14.1765 C.ar    1  UNL1        0.0269
     24 N           1.7398   -5.0942  -14.6445 N.ar    1  UNL1       -0.3653
     25 C           1.1873   -3.9225  -15.0841 C.ar    1  UNL1        0.0053
     26 C           1.8551   -2.7650  -15.0782 C.ar    1  UNL1        0.0029
     27 C           3.2514   -2.7525  -14.5628 C.ar    1  UNL1        0.2028
     28 O           3.8999   -1.7141  -14.6588 O.2     1  UNL1       -0.2858
     29 C           7.3845   -2.2386  -11.1538 C.3     1  UNL1       -0.0260
     30 C           6.5927   -2.3294   -9.8304 C.3     1  UNL1        0.0156
     31 O           6.7274   -3.2390   -6.8804 O.2     1  UNL1       -0.4245
     32 C           7.2796   -1.5292   -4.2985 C.3     1  UNL1       -0.0415
     33 C           6.6197   -0.8060   -3.0915 C.3     1  UNL1       -0.0495
     34 H           3.8741   -0.2731   -8.5192 H       1  UNL1        0.0230
     35 H           4.5978   -1.7035   -7.7595 H       1  UNL1        0.0230
     36 H           5.4544   -0.1622   -7.7132 H       1  UNL1        0.0230
     37 H           2.7961   -0.8028   -6.2874 H       1  UNL1        0.0263
     38 H           3.5868    0.8058   -6.2893 H       1  UNL1        0.0263
     39 H           5.5060    0.0009   -5.3267 H       1  UNL1        0.0265
     40 H           4.9571   -1.6903   -5.4861 H       1  UNL1        0.0265
     41 H           3.1722   -1.0678   -3.7154 H       1  UNL1        0.0268
     42 H           4.0243    0.4694   -3.5914 H       1  UNL1        0.0268
     43 H           4.8698   -0.7846   -1.8228 H       1  UNL1        0.0301
     44 H           4.0449   -3.0229   -2.4871 H       1  UNL1        0.0268
     45 H           5.6546   -3.0395   -1.8024 H       1  UNL1        0.0268
     46 H           4.8964   -3.3826   -4.7276 H       1  UNL1        0.0273
     47 H           5.6063   -4.5577   -3.7059 H       1  UNL1        0.0273
     48 H           7.7507   -3.4791   -3.6100 H       1  UNL1        0.0395
     49 H           5.3578   -4.7098  -10.3204 H       1  UNL1        0.0465
     50 H           6.5858   -5.7381   -9.6001 H       1  UNL1        0.0465
     51 H           6.9022   -5.5587  -12.0544 H       1  UNL1        0.0288
     52 H           8.2786   -4.8692  -11.2147 H       1  UNL1        0.0288
     53 H           7.7179   -3.3350  -12.9949 H       1  UNL1        0.0395
     54 H           5.6509   -4.9832  -13.7256 H       1  UNL1        0.1550
     55 H           3.3289   -6.1348  -13.8408 H       1  UNL1        0.0827
     56 H           1.1547   -5.9250  -14.6041 H       1  UNL1        0.1648
     57 H           0.1702   -3.9893  -15.4604 H       1  UNL1        0.0808
     58 H           1.4576   -1.8339  -15.4549 H       1  UNL1        0.0671
     59 H           7.1936   -1.2667  -11.6257 H       1  UNL1        0.0288
     60 H           8.4596   -2.2745  -10.9322 H       1  UNL1        0.0288
     61 H           5.5236   -2.1916  -10.0128 H       1  UNL1        0.0465
     62 H           6.9070   -1.5225   -9.1619 H       1  UNL1        0.0465
     63 H           6.9493   -1.1315   -5.2544 H       1  UNL1        0.0273
     64 H           8.3388   -1.2550   -4.3215 H       1  UNL1        0.0273
     65 H           6.6697    0.2848   -3.2188 H       1  UNL1        0.0268
     66 H           7.2137   -1.0241   -2.1943 H       1  UNL1        0.0268
@<TRIPOS>BOND
     1     1     2    1
     2     2     3    1
     3     3     4    1
     4     5     6    1
     5     6     7    1
     6     7     8    1
     7     8     9    1
     8     9    10   ar
     9    10    11   ar
    10    11    12    1
    11    12    13    3
    12    11    14   ar
    13    14    15    1
    14    15    16    1
    15    16    17    1
    16    17    18    1
    17    18    19    1
    18    19    20    2
    19    19    21   am
    20    21    22    1
    21    22    23   ar
    22    23    24   ar
    23    24    25   ar
    24    25    26   ar
    25    26    27   ar
    26    22    27   ar
    27    27    28    2
    28    18    29    1
    29    29    30    1
    30    15    30    1
    31    14    31   ar
    32     9    31   ar
    33     8    32    1
    34    32    33    1
    35     5    33    1
    36     5     4    1
    37     1    34    1
    38     1    35    1
    39     1    36    1
    40     2    37    1
    41     2    38    1
    42     3    39    1
    43     3    40    1
    44     4    41    1
    45     4    42    1
    46     5    43    1
    47     6    44    1
    48     6    45    1
    49     7    46    1
    50     7    47    1
    51     8    48    1
    52    16    49    1
    53    16    50    1
    54    17    51    1
    55    17    52    1
    56    18    53    1
    57    21    54    1
    58    23    55    1
    59    24    56    1
    60    25    57    1
    61    26    58    1
    62    29    59    1
    63    29    60    1
    64    30    61    1
    65    30    62    1
    66    32    63    1
    67    32    64    1
    68    33    65    1
    69    33    66    1
