@<TRIPOS>MOLECULE
*****
 39 40 0 0 0
SMALL
GASTEIGER

@<TRIPOS>ATOM
      1 N           0.9824   -0.0364    0.0041 N.am    1  UNL1       -0.3291
      2 C           2.3362    0.0081    0.1171 C.2     1  UNL1        0.2148
      3 O           2.8155    0.7744    0.9571 O.2     1  UNL1       -0.2757
      4 C           3.1393   -0.8874   -0.8339 C.3     1  UNL1        0.0489
      5 C           4.6388   -0.7112   -0.6819 C.ar    1  UNL1       -0.0384
      6 C           5.5060   -1.7945   -0.5080 C.ar    1  UNL1       -0.0547
      7 C           6.8543   -1.5673   -0.1769 C.ar    1  UNL1       -0.0197
      8 C           7.3761   -0.2669   -0.1013 C.ar    1  UNL1        0.1212
      9 O           8.7126   -0.1569    0.1852 O.3     1  UNL1       -0.4827
     10 C           9.3080    1.1483    0.1410 C.3     1  UNL1        0.1666
     11 C          10.8386    1.0783    0.3509 C.2     1  UNL1        0.2666
     12 O          11.4608    0.0153    0.4118 O.2     1  UNL1       -0.2705
     13 N          11.4874    2.3184    0.4810 N.am    1  UNL1       -0.2337
     14 N          12.8868    2.2866    0.2621 N.pl3   1  UNL1       -0.2644
     15 C          13.6559    3.4418    0.5310 C.ar    1  UNL1        0.0446
     16 C          14.9349    3.5191   -0.0565 C.ar    1  UNL1       -0.0367
     17 C          15.7656    4.6309    0.1305 C.ar    1  UNL1       -0.0247
     18 C          15.3049    5.7035    0.8763 C.ar    1  UNL1        0.1235
     19 F          16.0676    6.7978    1.0053 F       1  UNL1       -0.2055
     20 C          14.0531    5.6568    1.4780 C.ar    1  UNL1       -0.0247
     21 C          13.2341    4.5257    1.3128 C.ar    1  UNL1       -0.0367
     22 C           6.5208    0.8044   -0.3247 C.ar    1  UNL1       -0.0197
     23 C           5.1793    0.5818   -0.6399 C.ar    1  UNL1       -0.0547
     24 H           0.4678    0.5593    0.6423 H       1  UNL1        0.1449
     25 H           0.4751   -0.6631   -0.6019 H       1  UNL1        0.1449
     26 H           2.8535   -0.6631   -1.8693 H       1  UNL1        0.0407
     27 H           2.8554   -1.9272   -0.6268 H       1  UNL1        0.0407
     28 H           5.1451   -2.8180   -0.5968 H       1  UNL1        0.0622
     29 H           7.4947   -2.4185    0.0472 H       1  UNL1        0.0654
     30 H           8.8852    1.7676    0.9397 H       1  UNL1        0.0795
     31 H           9.1264    1.6127   -0.8379 H       1  UNL1        0.0795
     32 H          11.0362    3.1705    0.1620 H       1  UNL1        0.1728
     33 H          13.3213    1.4124    0.5874 H       1  UNL1        0.1700
     34 H          15.2778    2.7179   -0.7082 H       1  UNL1        0.0637
     35 H          16.7575    4.6679   -0.3096 H       1  UNL1        0.0647
     36 H          13.7257    6.5012    2.0776 H       1  UNL1        0.0647
     37 H          12.2749    4.5070    1.8201 H       1  UNL1        0.0637
     38 H           6.8429    1.8330   -0.2246 H       1  UNL1        0.0654
     39 H           4.5318    1.4457   -0.7788 H       1  UNL1        0.0622
@<TRIPOS>BOND
     1     1     2   am
     2     2     3    2
     3     2     4    1
     4     4     5    1
     5     5     6   ar
     6     6     7   ar
     7     7     8   ar
     8     8     9    1
     9     9    10    1
    10    10    11    1
    11    11    12    2
    12    11    13   am
    13    13    14    1
    14    14    15    1
    15    15    16   ar
    16    16    17   ar
    17    17    18   ar
    18    18    19    1
    19    18    20   ar
    20    20    21   ar
    21    15    21   ar
    22     8    22   ar
    23    22    23   ar
    24     5    23   ar
    25     1    24    1
    26     1    25    1
    27     4    26    1
    28     4    27    1
    29     6    28    1
    30     7    29    1
    31    10    30    1
    32    10    31    1
    33    13    32    1
    34    14    33    1
    35    16    34    1
    36    17    35    1
    37    20    36    1
    38    21    37    1
    39    22    38    1
    40    23    39    1
