REMARK  7 active torsions:
REMARK  status: ('A' for Active; 'I' for Inactive)
REMARK    1  A    between atoms: O_2  and  C_3 
REMARK       I    between atoms: C_3  and  N_5 
REMARK    2  A    between atoms: N_5  and  C_6 
REMARK    3  A    between atoms: C_6  and  C_7 
REMARK    4  A    between atoms: C_6  and  C_14 
REMARK    5  A    between atoms: C_7  and  C_8 
REMARK       I    between atoms: C_14  and  N_16 
REMARK    6  A    between atoms: N_16  and  C_17 
REMARK    7  A    between atoms: C_21  and  N_22 
ROOT
ATOM      1  C   UNL d   1       6.810   0.260  -2.170  0.00  0.00     0.245 C 
ATOM      2  O   UNL d   1       7.187   0.143  -0.999  0.00  0.00    -0.271 OA
ATOM      3  N   UNL d   1       7.709   0.371  -3.242  0.00  0.00    -0.325 N 
ATOM      4  H   UNL d   1       7.381   0.610  -4.172  0.00  0.00     0.169 HD
ENDROOT
BRANCH   1   5
ATOM      5  C   UNL d   1       5.269   0.284  -2.471  0.00  0.00     0.183 C 
BRANCH   5   6
ATOM      6  N   UNL d   1       4.499   0.222  -1.156  0.00  0.00    -0.323 N 
ATOM      7  C   UNL d   1       3.148  -0.013  -1.019  0.00  0.00     0.360 C 
ATOM      8  O   UNL d   1       2.429  -0.391  -1.932  0.00  0.00    -0.239 OA
ATOM      9  H   UNL d   1       5.058   0.184  -0.309  0.00  0.00     0.165 HD
BRANCH   7  10
ATOM     10  O   UNL d   1       2.594   0.161   0.218  0.00  0.00    -0.309 OA
ATOM     11  C   UNL d   1       1.141   0.096   0.119  0.00  0.00     0.215 C 
ENDBRANCH   7  10
ENDBRANCH   5   6
BRANCH   5  12
ATOM     12  C   UNL d   1       4.913   1.547  -3.318  0.00  0.00     0.073 C 
BRANCH  12  13
ATOM     13  C   UNL d   1       3.482   1.627  -3.819  0.00  0.00    -0.056 C 
ATOM     14  C   UNL d   1       2.778   2.834  -3.749  0.00  0.00     0.007 C 
ATOM     15  C   UNL d   1       1.378   2.833  -3.791  0.00  0.00     0.001 C 
ATOM     16  C   UNL d   1       0.674   1.646  -3.971  0.00  0.00     0.000 C 
ATOM     17  C   UNL d   1       1.375   0.468  -4.181  0.00  0.00     0.001 C 
ATOM     18  C   UNL d   1       2.777   0.471  -4.184  0.00  0.00     0.007 C 
ENDBRANCH  12  13
ENDBRANCH   5  12
ENDBRANCH   1   5
BRANCH   3  19
ATOM     19  C   UNL d   1       9.126   0.305  -3.071  0.00  0.00     0.038 A 
ATOM     20  C   UNL d   1       9.992   1.102  -3.829  0.00  0.00     0.056 A 
ATOM     21  C   UNL d   1      11.392   0.965  -3.688  0.00  0.00     0.064 A 
ATOM     22 CL   UNL d   1      12.418   1.865  -4.760  0.00  0.00    -0.082 Cl
ATOM     23  C   UNL d   1      11.963   0.101  -2.734  0.00  0.00     0.070 A 
ATOM     24  C   UNL d   1      11.075  -0.733  -2.037  0.00  0.00     0.064 A 
ATOM     25 CL   UNL d   1      11.670  -1.966  -0.976  0.00  0.00    -0.082 Cl
ATOM     26  C   UNL d   1       9.686  -0.621  -2.189  0.00  0.00     0.056 A 
BRANCH  23  27
ATOM     27  N   UNL d   1      13.359  -0.087  -2.645  0.00  0.00    -0.396 N 
ATOM     28  H   UNL d   1      13.927   0.698  -2.955  0.00  0.00     0.156 HD
ATOM     29  H   UNL d   1      13.680  -0.525  -1.783  0.00  0.00     0.156 HD
ENDBRANCH  23  27
ENDBRANCH   3  19
TORSDOF 7
