@<TRIPOS>MOLECULE
*****
 57 59 0 0 0
SMALL
GASTEIGER

@<TRIPOS>ATOM
      1 C           2.8232    2.2498    1.1412 C.3     1  UNL1       -0.0647
      2 C           2.5503    2.2630   -0.3744 C.3     1  UNL1       -0.0493
      3 C           3.1217    0.9578   -0.9903 C.3     1  UNL1       -0.0189
      4 C           2.5842   -0.2421   -0.1559 C.3     1  UNL1       -0.0584
      5 C           4.6697    1.0424   -1.0595 C.ar    1  UNL1       -0.0426
      6 C           5.3772    1.8940   -0.1782 C.ar    1  UNL1       -0.0548
      7 C           6.7163    1.7981    0.0219 C.ar    1  UNL1       -0.0181
      8 C           7.3987    0.8892   -0.7286 C.ar    1  UNL1        0.1380
      9 O           8.5661    0.5827   -0.0963 O.3     1  UNL1       -0.5049
     10 C           6.8644    0.2371   -1.8547 C.ar    1  UNL1        0.0749
     11 N           7.6888   -0.4480   -2.8447 N.am    1  UNL1       -0.2937
     12 C           9.0999   -0.3272   -3.0040 C.2     1  UNL1        0.1411
     13 S          10.1119    0.7858   -2.2225 S.2     1  UNL1       -0.0182
     14 N           9.6658   -1.1967   -3.9572 N.am    1  UNL1       -0.2636
     15 C          11.0622   -1.3451   -4.0865 C.2     1  UNL1        0.2497
     16 O          11.9445   -0.8674   -3.3896 O.2     1  UNL1       -0.2698
     17 C          11.6436   -2.1642   -5.1349 C.ar    1  UNL1        0.0436
     18 C          12.7494   -2.9370   -4.7715 C.ar    1  UNL1       -0.0474
     19 C          13.5292   -3.5356   -5.7505 C.ar    1  UNL1       -0.0333
     20 C          13.2180   -3.4222   -7.1227 C.ar    1  UNL1        0.1079
     21 N          14.0250   -4.1404   -7.9684 N.pl3   1  UNL1       -0.3247
     22 C          14.6926   -3.6117   -9.1423 C.3     1  UNL1        0.0124
     23 C          14.4514   -4.7037  -10.1763 C.3     1  UNL1       -0.0358
     24 C          14.6159   -5.9763   -9.3559 C.3     1  UNL1       -0.0358
     25 C          14.0935   -5.6086   -7.9551 C.3     1  UNL1        0.0124
     26 C          12.1277   -2.5625   -7.4577 C.ar    1  UNL1        0.2946
     27 N          11.6669   -2.2872   -8.8334 N.pl3   1  UNL1        0.0815
     28 O          12.0803   -2.9435   -9.7758 O.2     1  UNL1        0.0415
     29 O          10.8021   -1.3909   -8.9668 O.co2   1  UNL1       -0.5760
     30 C          11.3579   -1.9280   -6.4605 C.ar    1  UNL1        0.0296
     31 C           5.4448    0.2718   -1.9668 C.ar    1  UNL1       -0.0335
     32 H           3.0844    3.2344    1.5329 H       1  UNL1        0.0230
     33 H           3.6656    1.5942    1.3830 H       1  UNL1        0.0230
     34 H           2.0288    1.7705    1.7074 H       1  UNL1        0.0230
     35 H           3.0128    3.1269   -0.8793 H       1  UNL1        0.0268
     36 H           1.4715    2.3760   -0.5433 H       1  UNL1        0.0268
     37 H           2.7297    0.8527   -2.0113 H       1  UNL1        0.0346
     38 H           2.9589   -0.2608    0.8754 H       1  UNL1        0.0236
     39 H           2.8567   -1.2086   -0.5808 H       1  UNL1        0.0236
     40 H           1.4873   -0.1932   -0.0760 H       1  UNL1        0.0236
     41 H           4.9604    2.6074    0.5156 H       1  UNL1        0.0622
     42 H           7.1933    2.3100    0.8521 H       1  UNL1        0.0655
     43 H           9.1090    1.3945   -0.1937 H       1  UNL1        0.2922
     44 H           7.1527   -0.9166   -3.5676 H       1  UNL1        0.1539
     45 H           9.0628   -1.6795   -4.6066 H       1  UNL1        0.1568
     46 H          13.0473   -2.9999   -3.7230 H       1  UNL1        0.0626
     47 H          14.4362   -4.0500   -5.4303 H       1  UNL1        0.0638
     48 H          15.7620   -3.5412   -8.9132 H       1  UNL1        0.0464
     49 H          14.3729   -2.6144   -9.4487 H       1  UNL1        0.0464
     50 H          15.1425   -4.6340  -11.0182 H       1  UNL1        0.0281
     51 H          13.4333   -4.6787  -10.5790 H       1  UNL1        0.0281
     52 H          15.6767   -6.2451   -9.3087 H       1  UNL1        0.0281
     53 H          14.0770   -6.8229   -9.7943 H       1  UNL1        0.0281
     54 H          14.7988   -5.9637   -7.1939 H       1  UNL1        0.0464
     55 H          13.1180   -6.0743   -7.7709 H       1  UNL1        0.0464
     56 H          10.5846   -1.2024   -6.7085 H       1  UNL1        0.0693
     57 H           4.9129   -0.3008   -2.7251 H       1  UNL1        0.0640
@<TRIPOS>UNITY_ATOM_ATTR
27 1
charge 1
29 1
charge -1
@<TRIPOS>BOND
     1     1     2    1
     2     3     5    1
     3     5     6   ar
     4     6     7   ar
     5     7     8   ar
     6     8     9    1
     7     8    10   ar
     8    10    11    1
     9    11    12    1
    10    12    13    2
    11    12    14    1
    12    14    15   am
    13    15    16    2
    14    15    17    1
    15    17    18   ar
    16    18    19   ar
    17    19    20   ar
    18    20    21    1
    19    21    22    1
    20    22    23    1
    21    23    24    1
    22    24    25    1
    23    21    25    1
    24    20    26   ar
    25    26    27    1
    26    27    28    2
    27    27    29    1
    28    26    30   ar
    29    17    30   ar
    30    10    31   ar
    31     5    31   ar
    32     3     4    1
    33     3     2    1
    34     1    32    1
    35     1    33    1
    36     1    34    1
    37     2    35    1
    38     2    36    1
    39     3    37    1
    40     4    38    1
    41     4    39    1
    42     4    40    1
    43     6    41    1
    44     7    42    1
    45     9    43    1
    46    11    44    1
    47    14    45    1
    48    18    46    1
    49    19    47    1
    50    22    48    1
    51    22    49    1
    52    23    50    1
    53    23    51    1
    54    24    52    1
    55    24    53    1
    56    25    54    1
    57    25    55    1
    58    30    56    1
    59    31    57    1
