@<TRIPOS>MOLECULE
*****
 54 57 0 0 0
SMALL
GASTEIGER

@<TRIPOS>ATOM
      1 C           1.0396   -0.0337   -0.0546 C.3     1  UNL1        0.0788
      2 O           2.4672   -0.0001   -0.0411 O.3     1  UNL1       -0.4950
      3 C           3.0437   -0.8536   -0.9471 C.ar    1  UNL1        0.1222
      4 C           2.6111   -1.0001   -2.2689 C.ar    1  UNL1       -0.0178
      5 C           3.2397   -1.9057   -3.1557 C.ar    1  UNL1       -0.0308
      6 C           4.1925   -2.8056   -2.6314 C.ar    1  UNL1        0.0902
      7 N           4.8567   -3.9245   -3.1668 N.ar    1  UNL1       -0.2220
      8 C           5.5013   -4.5004   -2.1501 C.ar    1  UNL1        0.1677
      9 S           6.6000   -5.9817   -2.1516 S.3     1  UNL1       -0.0785
     10 C           8.3219   -5.6708   -1.1093 C.3     1  UNL1        0.0779
     11 C           9.5393   -6.4984   -1.6296 C.2     1  UNL1        0.2275
     12 O           9.5440   -7.1171   -2.7002 O.2     1  UNL1       -0.2746
     13 N          10.7191   -6.3223   -0.8662 N.am    1  UNL1       -0.2841
     14 C          11.9453   -6.9845   -1.1942 C.ar    1  UNL1        0.0456
     15 C          12.4569   -7.8884   -0.2307 C.ar    1  UNL1       -0.0397
     16 C          13.6335   -8.6167   -0.4578 C.ar    1  UNL1       -0.0600
     17 C          14.3077   -8.4707   -1.6619 C.ar    1  UNL1       -0.0609
     18 C          13.8358   -7.5547   -2.6079 C.ar    1  UNL1       -0.0478
     19 C          12.6637   -6.7843   -2.3964 C.ar    1  UNL1        0.0579
     20 C          12.3362   -5.7820   -3.4745 C.2     1  UNL1        0.2461
     21 O          12.9321   -5.8533   -4.5745 O.2     1  UNL1       -0.2701
     22 N          11.4306   -4.7762   -3.2400 N.am    1  UNL1       -0.3072
     23 C          10.8681   -3.9758   -4.3408 C.3     1  UNL1        0.0371
     24 C           9.6966   -3.1375   -3.9122 C.ar    1  UNL1       -0.0303
     25 C           9.6078   -1.7367   -3.8288 C.ar    1  UNL1       -0.0571
     26 C           8.5417   -1.0754   -3.1759 C.ar    1  UNL1       -0.0615
     27 C           7.6176   -1.8047   -2.5180 C.ar    1  UNL1       -0.0617
     28 C           7.8354   -3.1424   -2.5673 C.ar    1  UNL1       -0.0615
     29 C           8.6401   -3.8349   -3.4436 C.ar    1  UNL1       -0.0571
     30 N           5.4078   -3.6815   -1.0461 N.ar    1  UNL1       -0.3328
     31 C           4.5598   -2.6337   -1.3035 C.ar    1  UNL1        0.0703
     32 C           4.1242   -1.5949   -0.4751 C.ar    1  UNL1        0.0055
     33 H           0.6751    0.7131    0.6569 H       1  UNL1        0.0660
     34 H           0.6722   -1.0174    0.2597 H       1  UNL1        0.0660
     35 H           0.6271    0.2343   -1.0301 H       1  UNL1        0.0660
     36 H           1.7632   -0.4292   -2.6367 H       1  UNL1        0.0655
     37 H           2.9044   -1.9644   -4.1872 H       1  UNL1        0.0641
     38 H           8.0809   -5.8696   -0.0714 H       1  UNL1        0.0475
     39 H           8.7775   -4.6699   -1.0954 H       1  UNL1        0.0475
     40 H          10.6382   -6.0224    0.1014 H       1  UNL1        0.1548
     41 H          11.9043   -8.1058    0.6818 H       1  UNL1        0.0636
     42 H          14.0125   -9.3137    0.2893 H       1  UNL1        0.0618
     43 H          15.1942   -9.0683   -1.8718 H       1  UNL1        0.0618
     44 H          14.4043   -7.4372   -3.5317 H       1  UNL1        0.0626
     45 H          10.9705   -4.7674   -2.3409 H       1  UNL1        0.1493
     46 H          10.5386   -4.6793   -5.1189 H       1  UNL1        0.0512
     47 H          11.6532   -3.3323   -4.7235 H       1  UNL1        0.0512
     48 H          10.3726   -1.1270   -4.2766 H       1  UNL1        0.0621
     49 H           8.4509   -0.0061   -3.0668 H       1  UNL1        0.0618
     50 H           6.8061   -1.3956   -1.9303 H       1  UNL1        0.0618
     51 H           7.4448   -3.6494   -1.7285 H       1  UNL1        0.0618
     52 H           8.6214   -4.9162   -3.5614 H       1  UNL1        0.0621
     53 H           6.0802   -3.6484   -0.3040 H       1  UNL1        0.1679
     54 H           4.5072   -1.4662    0.5321 H       1  UNL1        0.0675
@<TRIPOS>BOND
     1     1     2    1
     2     2     3    1
     3     3     4   ar
     4     4     5   ar
     5     5     6   ar
     6     6     7   ar
     7     7     8   ar
     8     8     9    1
     9     9    10    1
    10    10    11    1
    11    11    12    2
    12    11    13   am
    13    13    14    1
    14    14    15   ar
    15    15    16   ar
    16    16    17   ar
    17    17    18   ar
    18    18    19   ar
    19    14    19   ar
    20    19    20    1
    21    20    21    2
    22    20    22   am
    23    22    23    1
    24    23    24    1
    25    24    25   ar
    26    25    26   ar
    27    26    27   ar
    28    27    28   ar
    29    28    29   ar
    30    24    29   ar
    31     8    30   ar
    32    30    31   ar
    33     6    31   ar
    34    31    32   ar
    35     3    32   ar
    36     1    33    1
    37     1    34    1
    38     1    35    1
    39     4    36    1
    40     5    37    1
    41    10    38    1
    42    10    39    1
    43    13    40    1
    44    15    41    1
    45    16    42    1
    46    17    43    1
    47    18    44    1
    48    22    45    1
    49    23    46    1
    50    23    47    1
    51    25    48    1
    52    26    49    1
    53    27    50    1
    54    28    51    1
    55    29    52    1
    56    30    53    1
    57    32    54    1
