REMARK  4 active torsions:
REMARK  status: ('A' for Active; 'I' for Inactive)
REMARK       I    between atoms: C_2  and  N_3 
REMARK    1  A    between atoms: C_2  and  C_13 
REMARK    2  A    between atoms: N_3  and  N_4 
REMARK       I    between atoms: N_4  and  C_5 
REMARK    3  A    between atoms: C_5  and  C_7 
REMARK    4  A    between atoms: C_19  and  O_20 
ROOT
ATOM      1  O   UNL d   1       1.058   0.110   0.009  0.00  0.00    -0.266 OA
ATOM      2  C   UNL d   1       2.289   0.104   0.000  0.00  0.00     0.273 C 
ATOM      3  N   UNL d   1       3.025   0.926  -0.850  0.00  0.00    -0.263 N 
ATOM      4  H   UNL d   1       4.041   0.915  -0.925  0.00  0.00     0.190 HD
ENDROOT
BRANCH   3   5
ATOM      5  N   UNL d   1       2.343   1.763  -1.766  0.00  0.00    -0.267 N 
ATOM      6  C   UNL d   1       3.068   2.538  -2.653  0.00  0.00     0.240 C 
ATOM      7  O   UNL d   1       4.303   2.525  -2.649  0.00  0.00    -0.271 OA
ATOM      8  H   UNL d   1       1.328   1.702  -1.740  0.00  0.00     0.190 HD
BRANCH   6   9
ATOM      9  C   UNL d   1       2.289   3.455  -3.624  0.00  0.00     0.079 C 
ATOM     10  C   UNL d   1       0.774   3.219  -3.681  0.00  0.00     0.014 C 
ATOM     11  C   UNL d   1       0.054   4.201  -4.605  0.00  0.00     0.001 C 
ATOM     12  C   UNL d   1       0.355   5.647  -4.229  0.00  0.00     0.000 C 
ATOM     13  C   UNL d   1       1.857   5.900  -4.235  0.00  0.00     0.001 C 
ATOM     14  C   UNL d   1       2.593   4.931  -3.306  0.00  0.00     0.014 C 
ENDBRANCH   6   9
ENDBRANCH   3   5
BRANCH   2  15
ATOM     15  C   UNL d   1       3.084  -0.771   0.926  0.00  0.00     0.068 A 
ATOM     16  C   UNL d   1       4.228  -0.241   1.543  0.00  0.00     0.044 A 
ATOM     17  C   UNL d   1       5.017  -1.043   2.372  0.00  0.00     0.035 A 
ATOM     18 CL   UNL d   1       6.440  -0.389   3.085  0.00  0.00    -0.084 Cl
ATOM     19  C   UNL d   1       4.674  -2.370   2.620  0.00  0.00     0.026 A 
ATOM     20  C   UNL d   1       3.516  -2.898   2.051  0.00  0.00     0.039 A 
ATOM     21  C   UNL d   1       2.722  -2.102   1.211  0.00  0.00     0.081 A 
BRANCH  21  22
ATOM     22  O   UNL d   1       1.611  -2.663   0.646  0.00  0.00    -0.360 OA
ATOM     23  H   UNL d   1       1.489  -3.569   0.976  0.00  0.00     0.217 HD
ENDBRANCH  21  22
ENDBRANCH   2  15
TORSDOF 4
