@<TRIPOS>MOLECULE
*****
 59 61 0 0 0
SMALL
GASTEIGER

@<TRIPOS>ATOM
      1 C           0.2815   -1.1693    3.6029 C.3     1  UNL1       -0.0470
      2 C          -0.3098   -2.4689    3.8825 C.3     1  UNL1        0.0240
      3 N           0.6396   -3.4106    3.4668 N.ar    1  UNL1       -0.3047
      4 C           1.2530   -4.2694    4.3246 C.ar    1  UNL1        0.1921
      5 S           0.8200   -4.6119    6.0046 S.3     1  UNL1       -0.0767
      6 C          -0.6191   -3.6106    6.6424 C.3     1  UNL1        0.0776
      7 C          -0.9943   -3.9187    8.0878 C.2     1  UNL1        0.2235
      8 O          -0.3093   -4.6815    8.7821 O.2     1  UNL1       -0.2749
      9 N          -2.1274   -3.2696    8.5982 N.am    1  UNL1       -0.3118
     10 C          -2.5818   -3.4825    9.9939 C.3     1  UNL1        0.0231
     11 C          -3.9073   -2.7468   10.3132 C.3     1  UNL1       -0.0345
     12 C          -4.4491   -3.0774   11.7150 C.3     1  UNL1       -0.0514
     13 C          -4.5912   -4.5801   11.9319 C.3     1  UNL1       -0.0529
     14 C          -3.2692   -5.2776   11.6743 C.3     1  UNL1       -0.0514
     15 C          -2.7577   -4.9836   10.2751 C.3     1  UNL1       -0.0345
     16 N           2.2636   -4.7938    3.6625 N.ar    1  UNL1       -0.1224
     17 N           2.2921   -4.2544    2.3672 N.ar    1  UNL1       -0.1315
     18 C           1.2939   -3.3873    2.2187 C.ar    1  UNL1        0.1568
     19 CA          0.9699   -2.5372    0.8160 C.3     1  UNL1        0.1063
     20 C           2.3265   -2.4917    0.0098 C.3     1  UNL1        0.0697
     21 O           2.4724   -1.3338   -0.8192 O.3     1  UNL1       -0.3927
     22 N           0.3313   -1.0711    0.8243 N.am    1  UNL1       -0.2993
     23 C          -1.0059   -0.7441    1.2429 C.2     1  UNL1        0.2461
     24 O          -1.8582   -1.5918    1.3051 O.2     1  UNL1       -0.2701
     25 C          -1.2737    0.6959    1.8945 C.ar    1  UNL1        0.0550
     26 C          -1.7409    0.9508    3.2704 C.ar    1  UNL1       -0.0482
     27 C          -1.9055    2.2123    3.8399 C.ar    1  UNL1       -0.0610
     28 C          -1.8020    3.2834    2.9947 C.ar    1  UNL1       -0.0603
     29 C          -1.3993    3.0848    1.6616 C.ar    1  UNL1       -0.0427
     30 C          -1.0862    1.8207    1.1243 C.ar    1  UNL1        0.0531
     31 CL         -0.5280    1.7377   -0.5008 Cl      1  UNL1       -0.0828
     32 H          -0.6093   -0.6616    3.5627 H       1  UNL1        0.0247
     33 H           0.6675   -1.2796    2.6501 H       1  UNL1        0.0247
     34 H           1.1017   -0.5801    3.9845 H       1  UNL1        0.0247
     35 H          -1.2531   -2.7260    3.3936 H       1  UNL1        0.0490
     36 H          -0.5238   -2.3696    4.9156 H       1  UNL1        0.0490
     37 H          -1.5061   -3.7786    6.0159 H       1  UNL1        0.0475
     38 H          -0.3432   -2.5491    6.6884 H       1  UNL1        0.0475
     39 H          -2.5705   -2.5224    8.0741 H       1  UNL1        0.1490
     40 H          -1.7988   -3.0753   10.6485 H       1  UNL1        0.0498
     41 H          -4.6692   -3.0232    9.5731 H       1  UNL1        0.0283
     42 H          -3.7762   -1.6606   10.2329 H       1  UNL1        0.0283
     43 H          -5.4245   -2.5996   11.8661 H       1  UNL1        0.0266
     44 H          -3.7746   -2.6668   12.4771 H       1  UNL1        0.0266
     45 H          -5.3585   -4.9826   11.2592 H       1  UNL1        0.0265
     46 H          -4.9207   -4.7881   12.9561 H       1  UNL1        0.0265
     47 H          -3.3837   -6.3602   11.7930 H       1  UNL1        0.0266
     48 H          -2.5255   -4.9489   12.4108 H       1  UNL1        0.0266
     49 H          -3.4379   -5.4084    9.5264 H       1  UNL1        0.0283
     50 H          -1.8117   -5.5171   10.1760 H       1  UNL1        0.0283
     51 HA          0.2451   -3.1524    0.2773 H       1  UNL1        0.0603
     52 H1          3.2061   -2.5187    0.6666 H       1  UNL1        0.0580
     53 H2          2.3969   -3.3695   -0.6426 H       1  UNL1        0.0580
     54 H           2.5568   -0.5610   -0.2403 H       1  UNL1        0.2095
     55 H           1.0052   -0.3216    0.9009 H       1  UNL1        0.1498
     56 H          -1.9314    0.1987    4.0459 H       1  UNL1        0.0625
     57 H          -2.1524    2.3273    4.8994 H       1  UNL1        0.0618
     58 H          -2.0598    4.2710    3.3636 H       1  UNL1        0.0618
     59 H          -1.3470    3.9516    1.0142 H       1  UNL1        0.0632
@<TRIPOS>BOND
     1     1     2    1
     2     2     3    1
     3     3     4   ar
     4     4     5    1
     5     5     6    1
     6     6     7    1
     7     7     8    2
     8     7     9   am
     9     9    10    1
    10    10    11    1
    11    11    12    1
    12    12    13    1
    13    13    14    1
    14    14    15    1
    15    10    15    1
    16     4    16   ar
    17    16    17   ar
    18    17    18   ar
    19     3    18   ar
    20    20    21    1
    21    19    22    1
    22    22    23   am
    23    23    24    2
    24    23    25    1
    25    25    26   ar
    26    26    27   ar
    27    27    28   ar
    28    28    29   ar
    29    29    30   ar
    30    25    30   ar
    31    30    31    1
    32    19    20    1
    33    19    18    1
    34     1    32    1
    35     1    33    1
    36     1    34    1
    37     2    35    1
    38     2    36    1
    39     6    37    1
    40     6    38    1
    41     9    39    1
    42    10    40    1
    43    11    41    1
    44    11    42    1
    45    12    43    1
    46    12    44    1
    47    13    45    1
    48    13    46    1
    49    14    47    1
    50    14    48    1
    51    15    49    1
    52    15    50    1
    53    19    51    1
    54    20    52    1
    55    20    53    1
    56    21    54    1
    57    22    55    1
    58    26    56    1
    59    27    57    1
    60    28    58    1
    61    29    59    1
