REMARK  13 active torsions:
REMARK  status: ('A' for Active; 'I' for Inactive)
REMARK    1  A    between atoms: C_2  and  C_3 
REMARK    2  A    between atoms: C_3  and  C_4 
REMARK    3  A    between atoms: C_4  and  N_5 
REMARK       I    between atoms: N_5  and  C_6 
REMARK    4  A    between atoms: C_8  and  C_6 
REMARK    5  A    between atoms: C_8  and  N_16 
REMARK    6  A    between atoms: C_8  and  C_9 
REMARK    7  A    between atoms: C_14  and  O_15 
REMARK    8  A    between atoms: N_16  and  C_17 
REMARK       I    between atoms: N_16  and  C_20 
REMARK    9  A    between atoms: C_17  and  C_18 
REMARK   10  A    between atoms: C_20  and  C_22 
REMARK   11  A    between atoms: C_22  and  O_23 
REMARK   12  A    between atoms: C_22  and  C_24 
REMARK   13  A    between atoms: C_22  and  C_30 
ROOT
ATOM      1  N   UNL d   1       8.454   3.328  -2.827  0.00  0.00    -0.331 N 
ATOM      2  C   UNL d   1       9.050   4.203  -3.794  0.00  0.00     0.265 C 
ATOM      3  O   UNL d   1       8.318   4.932  -4.481  0.00  0.00    -0.269 OA
ENDROOT
BRANCH   1   4
ATOM      4  C   UNL d   1       6.894   3.475  -2.753  0.00  0.00     0.215 C 
BRANCH   4   5
ATOM      5  C   UNL d   1       6.173   2.568  -1.754  0.00  0.00     0.007 C 
ATOM      6  C   UNL d   1       4.957   1.913  -1.987  0.00  0.00     0.012 C 
ATOM      7  C   UNL d   1       4.519   0.903  -1.113  0.00  0.00     0.001 C 
ATOM      8  C   UNL d   1       5.343   0.482  -0.083  0.00  0.00     0.003 C 
ATOM      9  C   UNL d   1       6.366   1.332   0.298  0.00  0.00     0.037 C 
ATOM     10  C   UNL d   1       6.635   2.489  -0.452  0.00  0.00     0.074 C 
BRANCH  10  11
ATOM     11  O   UNL d   1       7.563   3.420  -0.056  0.00  0.00    -0.360 OA
ATOM     12  H   UNL d   1       8.416   3.011   0.162  0.00  0.00     0.217 HD
ENDBRANCH  10  11
ENDBRANCH   4   5
BRANCH   4  13
ATOM     13  C   UNL d   1       6.234   4.889  -2.468  0.00  0.00     0.245 C 
ATOM     14  N   UNL d   1       7.057   5.964  -2.160  0.00  0.00    -0.359 N 
ATOM     15  H   UNL d   1       8.029   5.941  -2.418  0.00  0.00     0.162 HD
ATOM     16  O   UNL d   1       5.029   5.011  -2.444  0.00  0.00    -0.271 OA
BRANCH  14  17
ATOM     17  C   UNL d   1       6.403   7.208  -1.833  0.00  0.00     0.122 C 
BRANCH  17  18
ATOM     18  C   UNL d   1       7.364   8.370  -1.659  0.00  0.00     0.019 C 
BRANCH  18  19
ATOM     19  C   UNL d   1       6.598   9.629  -1.249  0.00  0.00    -0.003 C 
ATOM     20  C   UNL d   1       7.542  10.803  -1.066  0.00  0.00     0.005 C 
ENDBRANCH  18  19
ENDBRANCH  17  18
ENDBRANCH  14  17
ENDBRANCH   4  13
ENDBRANCH   1   4
BRANCH   1  21
ATOM     21  C   UNL d   1       9.302   2.319  -2.037  0.00  0.00     0.127 C 
BRANCH  21  22
ATOM     22  C   UNL d   1       8.758   1.012  -1.475  0.00  0.00     0.015 C 
ATOM     23  C   UNL d   1       9.571   0.065  -0.619  0.00  0.00     0.006 C 
ENDBRANCH  21  22
ENDBRANCH   1  21
BRANCH   2  24
ATOM     24  C   UNL d   1      10.648   4.269  -3.959  0.00  0.00     0.194 C 
BRANCH  24  25
ATOM     25  O   UNL d   1      11.246   4.674  -2.707  0.00  0.00    -0.371 OA
ATOM     26  H   UNL d   1      11.117   4.006  -2.027  0.00  0.00     0.212 HD
ENDBRANCH  24  25
BRANCH  24  27
ATOM     27  C   UNL d   1      11.203   2.901  -4.441  0.00  0.00    -0.010 C 
ATOM     28  C   UNL d   1      10.361   1.788  -4.640  0.00  0.00     0.011 C 
ATOM     29  C   UNL d   1      10.883   0.505  -4.595  0.00  0.00     0.001 C 
ATOM     30  C   UNL d   1      12.204   0.327  -4.938  0.00  0.00     0.000 C 
ATOM     31  C   UNL d   1      13.024   1.438  -5.077  0.00  0.00     0.001 C 
ATOM     32  C   UNL d   1      12.569   2.685  -4.655  0.00  0.00     0.011 C 
ENDBRANCH  24  27
BRANCH  24  33
ATOM     33  C   UNL d   1      11.064   5.457  -4.858  0.00  0.00    -0.010 C 
ATOM     34  C   UNL d   1      11.946   5.322  -5.944  0.00  0.00     0.011 C 
ATOM     35  C   UNL d   1      12.449   6.419  -6.627  0.00  0.00     0.001 C 
ATOM     36  C   UNL d   1      11.924   7.673  -6.369  0.00  0.00     0.000 C 
ATOM     37  C   UNL d   1      10.998   7.843  -5.344  0.00  0.00     0.001 C 
ATOM     38  C   UNL d   1      10.621   6.758  -4.554  0.00  0.00     0.011 C 
ENDBRANCH  24  33
ENDBRANCH   2  24
TORSDOF 13
