REMARK  5 active torsions:
REMARK  status: ('A' for Active; 'I' for Inactive)
REMARK       I    between atoms: C_2  and  N_3 
REMARK    1  A    between atoms: C_2  and  C_27 
REMARK    2  A    between atoms: N_3  and  N_4 
REMARK    3  A    between atoms: N_4  and  C_5 
REMARK    4  A    between atoms: N_8  and  S_9 
REMARK    5  A    between atoms: S_9  and  C_12 
ROOT
ATOM      1  C   UNL d   1       3.049   2.872   2.279  0.00  0.00     0.101 A 
ATOM      2  C   UNL d   1       4.092   3.557   1.808  0.00  0.00     0.068 A 
ATOM      3  C   UNL d   1       4.928   4.522   2.566  0.00  0.00     0.079 A 
ATOM      4  N   UNL d   1       5.939   5.173   2.072  0.00  0.00    -0.160 NA
ATOM      5  C   UNL d   1       4.521   4.701   4.000  0.00  0.00    -0.015 A 
ATOM      6  C   UNL d   1       3.462   4.030   4.503  0.00  0.00     0.007 A 
ATOM      7  C   UNL d   1       3.000   4.185   5.926  0.00  0.00     0.070 C 
ATOM      8  C   UNL d   1       3.558   5.401   6.603  0.00  0.00    -0.026 C 
ATOM      9  C   UNL d   1       4.607   6.079   6.115  0.00  0.00    -0.026 C 
ATOM     10  C   UNL d   1       5.315   5.675   4.845  0.00  0.00     0.068 C 
ATOM     11  C   UNL d   1       2.637   3.095   3.688  0.00  0.00     0.207 A 
ATOM     12  O   UNL d   1       1.664   2.510   4.167  0.00  0.00    -0.285 OA
ENDROOT
BRANCH   1  13
ATOM     13  N   UNL d   1       2.338   1.997   1.472  0.00  0.00    -0.294 N 
ATOM     14  H   UNL d   1       1.398   1.749   1.804  0.00  0.00     0.187 HD
BRANCH  13  15
ATOM     15  N   UNL d   1       3.001   0.959   0.780  0.00  0.00    -0.265 N 
ATOM     16  C   UNL d   1       2.251   0.039   0.073  0.00  0.00     0.269 C 
ATOM     17  O   UNL d   1       1.023   0.054   0.015  0.00  0.00    -0.266 OA
ATOM     18  H   UNL d   1       4.017   0.946   0.785  0.00  0.00     0.190 HD
BRANCH  16  19
ATOM     19  C   UNL d   1       3.068  -1.007  -0.622  0.00  0.00     0.032 C 
ATOM     20  C   UNL d   1       2.758  -1.382  -1.884  0.00  0.00     0.010 C 
ATOM     21  C   UNL d   1       3.500  -2.505  -2.566  0.00  0.00     0.147 C 
ATOM     22  N   UNL d   1       4.846  -2.552  -2.013  0.00  0.00    -0.395 N 
ATOM     23  C   UNL d   1       5.048  -2.381  -0.667  0.00  0.00     0.084 C 
ATOM     24  H   UNL d   1       5.605  -2.896  -2.591  0.00  0.00     0.159 HD
ATOM     25  C   UNL d   1       4.166  -1.683   0.065  0.00  0.00     0.033 C 
ENDBRANCH  16  19
ENDBRANCH  13  15
ENDBRANCH   1  13
BRANCH   4  26
ATOM     26  S   UNL d   1       6.335   4.942   0.506  0.00  0.00     0.283 S 
ATOM     27  O   UNL d   1       6.761   3.565   0.346  0.00  0.00    -0.198 OA
ATOM     28  O   UNL d   1       5.270   5.472  -0.327  0.00  0.00    -0.198 OA
BRANCH  26  29
ATOM     29  C   UNL d   1       7.748   5.962   0.197  0.00  0.00     0.081 A 
ATOM     30  C   UNL d   1       7.591   7.350   0.183  0.00  0.00     0.027 A 
ATOM     31  C   UNL d   1       8.691   8.159  -0.099  0.00  0.00     0.020 A 
ATOM     32  C   UNL d   1       9.929   7.575  -0.373  0.00  0.00     0.011 A 
ATOM     33 BR   UNL d   1      11.424   8.676  -0.727  0.00  0.00    -0.051 Br
ATOM     34  C   UNL d   1      10.077   6.187  -0.388  0.00  0.00     0.020 A 
ATOM     35  C   UNL d   1       8.980   5.373  -0.110  0.00  0.00     0.027 A 
ENDBRANCH  26  29
ENDBRANCH   4  26
TORSDOF 5
