@<TRIPOS>MOLECULE
*****
 44 47 0 0 0
SMALL
GASTEIGER

@<TRIPOS>ATOM
      1 O           3.6349   -1.1693   -2.0782 O.2     1  UNL1       -0.2751
      2 C           3.2096   -0.0214   -2.2704 C.2     1  UNL1        0.2229
      3 N           3.1137    0.5678   -3.5208 N.am    1  UNL1       -0.2644
      4 C           3.4671   -0.1580   -4.6340 C.ar    1  UNL1        0.1643
      5 N           3.1419   -1.3925   -4.9033 N.ar    1  UNL1       -0.2330
      6 C           3.6950   -1.7525   -6.1132 C.ar    1  UNL1        0.0368
      7 C           4.4881   -0.7992   -6.7183 C.ar    1  UNL1       -0.0030
      8 S           4.4077    0.6588   -5.8051 S.2     1  UNL1       -0.0605
      9 C           3.0016    0.8854   -1.0370 C.3     1  UNL1        0.0526
     10 C           4.3696    1.3133   -0.4788 C.3     1  UNL1       -0.0121
     11 C           4.9990    2.4443   -1.2892 C.3     1  UNL1        0.0838
     12 O           5.2476    2.0944   -2.6382 O.3     1  UNL1       -0.3891
     13 C           4.1178    3.6936   -1.1794 C.3     1  UNL1        0.1043
     14 O           4.3200    4.2378    0.1297 O.3     1  UNL1       -0.3871
     15 C           2.6048    3.4612   -1.4786 C.3     1  UNL1        0.0944
     16 N           1.7818    4.4920   -0.7728 N.2     1  UNL1       -0.2561
     17 C           0.9453    3.9971    0.0794 C.2     1  UNL1        0.1543
     18 N           0.1235    4.7590    0.8780 N.pl3   1  UNL1       -0.2943
     19 C          -0.8529    4.3166    1.7917 C.ar    1  UNL1        0.0328
     20 C          -0.5215    3.4577    2.8486 C.ar    1  UNL1       -0.0391
     21 C          -1.5092    2.8902    3.6602 C.ar    1  UNL1       -0.0416
     22 C          -2.8467    3.1967    3.4368 C.ar    1  UNL1        0.0411
     23 CL         -4.0666    2.4393    4.3849 Cl      1  UNL1       -0.0835
     24 C          -3.1964    4.1055    2.4410 C.ar    1  UNL1       -0.0416
     25 C          -2.2006    4.6759    1.6318 C.ar    1  UNL1       -0.0391
     26 S           0.8922    2.2504    0.1391 S.3     1  UNL1       -0.0843
     27 C           2.0258    2.0507   -1.2567 C.3     1  UNL1        0.0485
     28 H           2.8133    1.5134   -3.7119 H       1  UNL1        0.1567
     29 H           3.4969   -2.7430   -6.5013 H       1  UNL1        0.0835
     30 H           5.0571   -0.8886   -7.6345 H       1  UNL1        0.0709
     31 H           2.5622    0.1978   -0.2956 H       1  UNL1        0.0407
     32 H           5.0524    0.4560   -0.4349 H       1  UNL1        0.0298
     33 H           4.2486    1.6418    0.5637 H       1  UNL1        0.0298
     34 H           5.9912    2.6553   -0.8770 H       1  UNL1        0.0620
     35 H           4.4387    1.8018   -3.0644 H       1  UNL1        0.2099
     36 H           4.4847    4.4419   -1.8935 H       1  UNL1        0.0641
     37 H           3.8269    3.6925    0.7631 H       1  UNL1        0.2100
     38 H           2.4844    3.6492   -2.5556 H       1  UNL1        0.0583
     39 H           0.1815    5.7621    0.7490 H       1  UNL1        0.1540
     40 H           0.5191    3.2077    3.0393 H       1  UNL1        0.0636
     41 H          -1.2259    2.1952    4.4458 H       1  UNL1        0.0633
     42 H          -4.2426    4.3515    2.2736 H       1  UNL1        0.0633
     43 H          -2.5028    5.3614    0.8433 H       1  UNL1        0.0636
     44 H           1.3693    1.8107   -2.1002 H       1  UNL1        0.0445
@<TRIPOS>BOND
     1     1     2    2
     2     2     3   am
     3     3     4    1
     4     4     5   ar
     5     5     6   ar
     6     6     7   ar
     7     7     8   ar
     8     4     8   ar
     9     9    10    1
    10    10    11    1
    11    11    12    1
    12    11    13    1
    13    13    15    1
    14    15    16    1
    15    16    17    2
    16    17    18    1
    17    18    19    1
    18    19    20   ar
    19    20    21   ar
    20    21    22   ar
    21    22    23    1
    22    22    24   ar
    23    24    25   ar
    24    19    25   ar
    25    17    26    1
    26    26    27    1
    27    15    27    1
    28     9    27    1
    29    13    14    1
    30     9     2    1
    31     3    28    1
    32     6    29    1
    33     7    30    1
    34     9    31    1
    35    10    32    1
    36    10    33    1
    37    11    34    1
    38    12    35    1
    39    13    36    1
    40    14    37    1
    41    15    38    1
    42    18    39    1
    43    20    40    1
    44    21    41    1
    45    24    42    1
    46    25    43    1
    47    27    44    1
