@<TRIPOS>MOLECULE
*****
 66 67 0 0 0
SMALL
GASTEIGER

@<TRIPOS>ATOM
      1 C           0.8524   -0.0189    0.0158 C.3     1  UNL1       -0.0652
      2 C           2.3595   -0.0064   -0.0093 C.3     1  UNL1       -0.0545
      3 C           2.7866    1.0714   -0.9858 C.3     1  UNL1       -0.0376
      4 C           4.2630    1.0549   -1.1180 C.3     1  UNL1        0.0116
      5 N           4.7201    1.9166   -2.2201 N.am    1  UNL1       -0.3135
      6 C           6.0554    2.1892   -2.0178 C.2     1  UNL1        0.2384
      7 O           6.5009    1.5200   -1.1288 O.2     1  UNL1       -0.2734
      8 C           6.8033    3.3949   -2.7403 C.3     1  UNL1        0.1344
      9 C           6.1393    4.7349   -2.3202 C.ar    1  UNL1        0.0648
     10 C           6.3686    5.8706   -3.0536 C.ar    1  UNL1        0.1292
     11 O           6.6901    5.7315   -4.3834 O.3     1  UNL1       -0.5062
     12 C           6.3142    7.1723   -2.5102 C.ar    1  UNL1        0.0219
     13 C           5.4483    7.3870   -1.4839 C.ar    1  UNL1        0.1238
     14 O           5.1385    8.6302   -1.0403 O.3     1  UNL1       -0.5065
     15 C           4.7638    6.2963   -1.0049 C.ar    1  UNL1        0.0219
     16 C           5.1545    4.9922   -1.3729 C.ar    1  UNL1        0.1292
     17 O           4.3854    3.9836   -0.8908 O.3     1  UNL1       -0.5062
     18 N           8.4807    3.4699   -2.7364 N.am    1  UNL1       -0.2826
     19 C           9.3125    2.5075   -2.0785 C.2     1  UNL1        0.2167
     20 O          10.5402    2.4441   -2.1236 O.2     1  UNL1       -0.2756
     21 C           8.7040    1.4736   -1.2349 C.3     1  UNL1        0.0242
     22 C           9.5493    0.5255   -0.4488 C.3     1  UNL1       -0.0450
     23 C           8.6507   -0.4217    0.3540 C.3     1  UNL1       -0.0555
     24 C           9.5602   -1.3410    1.1321 C.3     1  UNL1       -0.0653
     25 C           9.2859    4.4987   -3.6064 C.3     1  UNL1        0.0271
     26 C           9.1511    5.9889   -3.1974 C.3     1  UNL1       -0.0343
     27 C           9.7818    7.0286   -4.0962 C.3     1  UNL1       -0.0514
     28 C          11.2426    6.8227   -3.9906 C.3     1  UNL1       -0.0529
     29 C          11.5430    5.4072   -4.4563 C.3     1  UNL1       -0.0514
     30 C          10.8256    4.3414   -3.6297 C.3     1  UNL1       -0.0343
     31 H           0.4877   -0.8017    0.6802 H       1  UNL1        0.0230
     32 H           0.4671   -0.1985   -0.9933 H       1  UNL1        0.0230
     33 H           0.4745    0.9499    0.3581 H       1  UNL1        0.0230
     34 H           2.7458   -0.9817   -0.3302 H       1  UNL1        0.0263
     35 H           2.7631    0.1831    0.9947 H       1  UNL1        0.0263
     36 H           2.4710    2.0593   -0.6280 H       1  UNL1        0.0280
     37 H           2.3612    0.9099   -1.9762 H       1  UNL1        0.0280
     38 H           4.6663    0.0485   -1.2944 H       1  UNL1        0.0462
     39 H           4.6702    1.3904   -0.1414 H       1  UNL1        0.0462
     40 H           4.1834    2.7680   -2.3336 H       1  UNL1        0.1487
     41 H           6.5692    3.2172   -3.8047 H       1  UNL1        0.0650
     42 H           7.2391    4.9352   -4.4511 H       1  UNL1        0.2922
     43 H           6.9278    7.9825   -2.9021 H       1  UNL1        0.0691
     44 H           5.6957    9.2848   -1.4970 H       1  UNL1        0.2921
     45 H           3.9050    6.4665   -0.3716 H       1  UNL1        0.0691
     46 H           3.6852    4.3458   -0.3252 H       1  UNL1        0.2922
     47 H           8.1672    0.8244   -1.9413 H       1  UNL1        0.0358
     48 H           8.2063    2.0643   -0.4559 H       1  UNL1        0.0358
     49 H          10.1844    1.1072    0.2244 H       1  UNL1        0.0270
     50 H          10.1806   -0.0403   -1.1381 H       1  UNL1        0.0270
     51 H           7.9914   -1.0050   -0.3042 H       1  UNL1        0.0263
     52 H           7.9924    0.1312    1.0392 H       1  UNL1        0.0263
     53 H          10.2008   -1.8944    0.4384 H       1  UNL1        0.0230
     54 H           8.9896   -2.0505    1.7324 H       1  UNL1        0.0230
     55 H          10.2006   -0.7485    1.7930 H       1  UNL1        0.0230
     56 H           8.9833    4.3006   -4.6460 H       1  UNL1        0.0501
     57 H           9.2801    6.1343   -2.1214 H       1  UNL1        0.0283
     58 H           8.2321    6.4222   -3.3926 H       1  UNL1        0.0283
     59 H           9.4820    8.0387   -3.7756 H       1  UNL1        0.0266
     60 H           9.4038    6.9247   -5.1271 H       1  UNL1        0.0266
     61 H          11.5137    6.9632   -2.9370 H       1  UNL1        0.0265
     62 H          11.7454    7.5744   -4.5966 H       1  UNL1        0.0265
     63 H          12.6164    5.2428   -4.3805 H       1  UNL1        0.0266
     64 H          11.2316    5.2873   -5.5000 H       1  UNL1        0.0266
     65 H          11.1950    4.4387   -2.5999 H       1  UNL1        0.0283
     66 H          11.1033    3.3638   -4.0407 H       1  UNL1        0.0283
@<TRIPOS>BOND
     1     1     2    1
     2     2     3    1
     3     3     4    1
     4     4     5    1
     5     5     6   am
     6     6     7    2
     7     6     8    1
     8     8     9    1
     9     9    10   ar
    10    10    11    1
    11    10    12   ar
    12    12    13   ar
    13    13    14    1
    14    13    15   ar
    15    15    16   ar
    16     9    16   ar
    17    16    17    1
    18     8    18    1
    19    18    19   am
    20    19    20    2
    21    19    21    1
    22    21    22    1
    23    22    23    1
    24    23    24    1
    25    18    25    1
    26    25    26    1
    27    26    27    1
    28    27    28    1
    29    28    29    1
    30    29    30    1
    31    25    30    1
    32     1    31    1
    33     1    32    1
    34     1    33    1
    35     2    34    1
    36     2    35    1
    37     3    36    1
    38     3    37    1
    39     4    38    1
    40     4    39    1
    41     5    40    1
    42     8    41    1
    43    11    42    1
    44    12    43    1
    45    14    44    1
    46    15    45    1
    47    17    46    1
    48    21    47    1
    49    21    48    1
    50    22    49    1
    51    22    50    1
    52    23    51    1
    53    23    52    1
    54    24    53    1
    55    24    54    1
    56    24    55    1
    57    25    56    1
    58    26    57    1
    59    26    58    1
    60    27    59    1
    61    27    60    1
    62    28    61    1
    63    28    62    1
    64    29    63    1
    65    29    64    1
    66    30    65    1
    67    30    66    1
