REMARK  5 active torsions:
REMARK  status: ('A' for Active; 'I' for Inactive)
REMARK       I    between atoms: C_2  and  N_3 
REMARK       I    between atoms: C_2  and  N_10 
REMARK    1  A    between atoms: N_3  and  C_4 
REMARK    2  A    between atoms: N_10  and  N_11 
REMARK       I    between atoms: N_11  and  C_12 
REMARK    3  A    between atoms: N_11  and  C_22 
REMARK       I    between atoms: C_12  and  N_14 
REMARK    4  A    between atoms: N_14  and  C_15 
REMARK    5  A    between atoms: C_24  and  C_25 
ROOT
ATOM      1  N   UNL d   1       4.556   0.875  -0.733  0.00  0.00    -0.176 N 
ATOM      2  C   UNL d   1       5.440   0.013  -0.024  0.00  0.00     0.348 C 
ATOM      3  O   UNL d   1       6.647   0.259   0.110  0.00  0.00    -0.245 OA
ATOM      4  N   UNL d   1       4.957  -1.142   0.540  0.00  0.00    -0.307 N 
ATOM      5  H   UNL d   1       4.081  -1.521   0.189  0.00  0.00     0.170 HD
ENDROOT
BRANCH   1   6
ATOM      6  N   UNL d   1       3.077   0.956  -0.623  0.00  0.00    -0.239 N 
ATOM      7  C   UNL d   1       2.134   0.150   0.018  0.00  0.00     0.335 C 
ATOM      8  O   UNL d   1       0.945   0.221  -0.222  0.00  0.00    -0.246 OA
ATOM      9  N   UNL d   1       2.641  -0.689   0.958  0.00  0.00    -0.337 N 
ATOM     10  H   UNL d   1       3.403  -0.209   1.424  0.00  0.00     0.164 HD
ATOM     11  H   UNL d   1       2.666   1.622  -1.278  0.00  0.00     0.192 HD
BRANCH   9  12
ATOM     12  C   UNL d   1       1.978  -1.744   1.771  0.00  0.00     0.086 C 
ATOM     13  C   UNL d   1       2.442  -3.155   1.386  0.00  0.00     0.025 C 
ATOM     14  C   UNL d   1       2.106  -4.326   2.305  0.00  0.00     0.002 C 
ATOM     15  C   UNL d   1       2.489  -4.010   3.752  0.00  0.00     0.000 C 
ATOM     16  C   UNL d   1       1.961  -2.634   4.147  0.00  0.00     0.002 C 
ATOM     17  C   UNL d   1       2.445  -1.524   3.225  0.00  0.00     0.025 C 
ENDBRANCH   9  12
ENDBRANCH   1   6
BRANCH   1  18
ATOM     18  C   UNL d   1       5.208   1.937  -1.466  0.00  0.00     0.197 C 
ATOM     19  N   UNL d   1       4.835   3.203  -1.642  0.00  0.00    -0.222 NA
ATOM     20  C   UNL d   1       5.825   3.918  -2.371  0.00  0.00     0.076 C 
ATOM     21  C   UNL d   1       6.856   3.139  -2.857  0.00  0.00     0.086 C 
ATOM     22  S   UNL d   1       6.606   1.509  -2.417  0.00  0.00    -0.060 SA
BRANCH  20  23
ATOM     23  C   UNL d   1       5.795   5.369  -2.622  0.00  0.00    -0.007 A 
ATOM     24  C   UNL d   1       5.833   6.286  -1.559  0.00  0.00     0.017 A 
ATOM     25  C   UNL d   1       5.783   7.670  -1.798  0.00  0.00     0.043 A 
ATOM     26  C   UNL d   1       5.717   8.147  -3.101  0.00  0.00     0.116 A 
ATOM     27  F   UNL d   1       5.645   9.467  -3.325  0.00  0.00    -0.206 F 
ATOM     28  C   UNL d   1       5.721   7.266  -4.173  0.00  0.00     0.043 A 
ATOM     29  C   UNL d   1       5.769   5.882  -3.936  0.00  0.00     0.017 A 
ENDBRANCH  20  23
ENDBRANCH   1  18
BRANCH   4  30
ATOM     30  C   UNL d   1       5.678  -1.958   1.449  0.00  0.00     0.036 C 
ATOM     31  C   UNL d   1       6.498  -1.411   2.426  0.00  0.00     0.031 C 
ATOM     32  C   UNL d   1       7.224  -2.273   3.249  0.00  0.00     0.026 C 
ATOM     33  C   UNL d   1       6.989  -3.652   3.222  0.00  0.00     0.034 C 
ATOM     34 CL   UNL d   1       7.989  -4.729   4.107  0.00  0.00    -0.084 Cl
ATOM     35  C   UNL d   1       6.029  -4.187   2.387  0.00  0.00     0.026 C 
ATOM     36  C   UNL d   1       5.490  -3.351   1.424  0.00  0.00     0.031 C 
ENDBRANCH   4  30
TORSDOF 5
