REMARK  4 active torsions:
REMARK  status: ('A' for Active; 'I' for Inactive)
REMARK       I    between atoms: N_1  and  C_2 
REMARK    1  A    between atoms: C_2  and  C_4 
REMARK    2  A    between atoms: C_10  and  N_11 
REMARK       I    between atoms: N_11  and  C_12 
REMARK    3  A    between atoms: C_12  and  C_14 
REMARK    4  A    between atoms: C_15  and  C_16 
ROOT
ATOM      1  N   UNL d   1       4.670   1.689   0.656  0.00  0.00    -0.323 N 
ATOM      2  C   UNL d   1       3.883   2.176  -0.371  0.00  0.00     0.245 C 
ATOM      3  O   UNL d   1       2.657   2.043  -0.440  0.00  0.00    -0.268 OA
ATOM      4  H   UNL d   1       5.542   2.168   0.850  0.00  0.00     0.169 HD
ENDROOT
BRANCH   1   5
ATOM      5  C   UNL d   1       4.272   0.643   1.560  0.00  0.00     0.050 A 
ATOM      6  C   UNL d   1       5.004   0.486   2.759  0.00  0.00     0.032 A 
ATOM      7  C   UNL d   1       4.655  -0.501   3.705  0.00  0.00     0.026 A 
ATOM      8  C   UNL d   1       3.572  -1.342   3.470  0.00  0.00     0.035 A 
ATOM      9  C   UNL d   1       2.852  -1.228   2.293  0.00  0.00     0.043 A 
ATOM     10 CL   UNL d   1       3.132  -2.551   4.610  0.00  0.00    -0.084 Cl
ATOM     11  C   UNL d   1       3.204  -0.262   1.338  0.00  0.00     0.060 A 
BRANCH  11  12
ATOM     12  C   UNL d   1       2.476  -0.406   0.059  0.00  0.00     0.251 C 
ATOM     13  N   UNL d   1       1.108  -0.283   0.124  0.00  0.00    -0.366 N 
ATOM     14  H   UNL d   1       0.682   0.015  -0.746  0.00  0.00     0.159 HD
ATOM     15  H   UNL d   1       0.645   0.025   0.968  0.00  0.00     0.159 HD
ATOM     16  O   UNL d   1       3.073  -0.642  -0.984  0.00  0.00    -0.268 OA
ENDBRANCH  11  12
ENDBRANCH   1   5
BRANCH   2  17
ATOM     17  C   UNL d   1       4.527   3.052  -1.380  0.00  0.00     0.075 C 
ATOM     18  C   UNL d   1       3.858   3.212  -2.541  0.00  0.00     0.020 C 
BRANCH  18  19
ATOM     19  C   UNL d   1       4.188   4.205  -3.567  0.00  0.00     0.003 A 
ATOM     20  C   UNL d   1       3.154   4.880  -4.242  0.00  0.00     0.014 A 
ATOM     21  C   UNL d   1       3.453   5.815  -5.239  0.00  0.00     0.001 A 
ATOM     22  C   UNL d   1       4.781   6.073  -5.578  0.00  0.00     0.003 A 
ATOM     23  C   UNL d   1       5.809   5.404  -4.918  0.00  0.00     0.043 A 
ATOM     24  C   UNL d   1       5.508   4.482  -3.923  0.00  0.00     0.126 A 
ATOM     25  F   UNL d   1       6.522   3.855  -3.308  0.00  0.00    -0.205 F 
ENDBRANCH  18  19
ENDBRANCH   2  17
TORSDOF 4
