@<TRIPOS>MOLECULE
*****
 61 64 0 0 0
SMALL
GASTEIGER

@<TRIPOS>ATOM
      1 C           0.9779   -0.0698    0.0011 C.3     1  UNL1       -0.0307
      2 C           2.4990   -0.0609    0.0120 C.3     1  UNL1        0.0868
      3 O           2.9598    1.2848   -0.1652 O.3     1  UNL1       -0.4922
      4 C           4.3124    1.4389   -0.3214 C.ar    1  UNL1        0.1206
      5 C           4.8840    2.6065    0.1896 C.ar    1  UNL1       -0.0182
      6 C           6.2497    2.9010   -0.0289 C.ar    1  UNL1       -0.0359
      7 C           7.0839    1.9925   -0.6988 C.ar    1  UNL1        0.0483
      8 N           8.5005    2.2697   -0.8415 N.pl3   1  UNL1       -0.2163
      9 S           9.5459    1.1273   -1.5504 S.O2    1  UNL1        0.0724
     10 O           9.4674   -0.0764   -0.7470 O.2     1  UNL1       -0.1500
     11 O           9.2637    1.1009   -2.9695 O.2     1  UNL1       -0.1500
     12 C          11.2420    1.7021   -1.3711 C.ar    1  UNL1        0.1092
     13 C          12.2834    0.7819   -1.2250 C.ar    1  UNL1       -0.0331
     14 C          13.6008    1.2304   -0.9995 C.ar    1  UNL1       -0.0358
     15 C          13.8778    2.6035   -0.9793 C.ar    1  UNL1        0.0500
     16 N          15.1891    3.1242   -1.0547 N.ar    1  UNL1       -0.3221
     17 C          15.2386    4.4267   -1.5863 C.ar    1  UNL1        0.2499
     18 O          15.7992    4.7988   -2.5685 O.2     1  UNL1       -0.2679
     19 C          14.5048    5.4534   -0.6713 C.ar    1  UNL1        0.0155
     20 C          13.2380    5.0132   -0.9097 C.ar    1  UNL1        0.0509
     21 C          12.1034    6.0251   -1.0373 C.2     1  UNL1        0.2449
     22 O          10.9415    5.6430   -1.1732 O.2     1  UNL1       -0.2702
     23 N          12.2717    7.3813   -1.0238 N.am    1  UNL1       -0.3113
     24 C          11.0690    8.2119   -1.2535 C.3     1  UNL1        0.0135
     25 C          11.4215    9.6718   -1.1510 C.3     1  UNL1       -0.0192
     26 C          10.2652   10.6566   -1.3001 C.3     1  UNL1        0.0296
     27 N          10.7380   12.0572   -1.1641 N.ar    1  UNL1       -0.2957
     28 C          12.0248   12.4779   -0.8214 C.ar    1  UNL1        0.0732
     29 C          12.0214   13.8395   -0.8222 C.ar    1  UNL1        0.1870
     30 N          10.7450   14.2156   -1.1541 N.ar    1  UNL1       -0.2011
     31 C           9.9699   13.1445   -1.3583 C.ar    1  UNL1        0.2463
     32 C          12.8442    3.5441   -1.0573 C.ar    1  UNL1        0.0125
     33 C          11.5367    3.0591   -1.3132 C.ar    1  UNL1       -0.0252
     34 C           6.4839    0.8468   -1.2269 C.ar    1  UNL1       -0.0359
     35 C           5.1204    0.5697   -1.0423 C.ar    1  UNL1       -0.0182
     36 H           0.5949   -1.0746    0.2077 H       1  UNL1        0.0262
     37 H           0.5959    0.2496   -0.9749 H       1  UNL1        0.0262
     38 H           0.5765    0.6226    0.7467 H       1  UNL1        0.0262
     39 H           2.8360   -0.7318   -0.7841 H       1  UNL1        0.0694
     40 H           2.8587   -0.4303    0.9783 H       1  UNL1        0.0694
     41 H           4.2635    3.2879    0.7700 H       1  UNL1        0.0655
     42 H           6.6290    3.8538    0.3303 H       1  UNL1        0.0638
     43 H           8.8949    3.0614   -0.3410 H       1  UNL1        0.1737
     44 H          12.0780   -0.2846   -1.3183 H       1  UNL1        0.0638
     45 H          14.3872    0.4939   -0.8566 H       1  UNL1        0.0639
     46 H          15.9490    2.4845   -1.2596 H       1  UNL1        0.1689
     47 H          15.4762    5.3237   -0.1419 H       1  UNL1        0.0679
     48 H          13.1958    7.7895   -0.9778 H       1  UNL1        0.1490
     49 H          10.3010    7.9487   -0.5110 H       1  UNL1        0.0463
     50 H          10.6390    7.9795   -2.2392 H       1  UNL1        0.0463
     51 H          12.1761    9.8933   -1.9142 H       1  UNL1        0.0297
     52 H          11.8862    9.8208   -0.1706 H       1  UNL1        0.0297
     53 H           9.5002   10.4919   -0.5315 H       1  UNL1        0.0494
     54 H           9.7860   10.5615   -2.2823 H       1  UNL1        0.0494
     55 H          12.8023   11.7610   -0.6205 H       1  UNL1        0.0871
     56 H          12.7730   14.5839   -0.6270 H       1  UNL1        0.1392
     57 H          10.4262   15.1782   -1.2369 H       1  UNL1        0.4538
     58 H           8.9205   13.1604   -1.6306 H       1  UNL1        0.1600
     59 H          10.7002    3.7067   -1.5235 H       1  UNL1        0.0644
     60 H           7.0498    0.1268   -1.8087 H       1  UNL1        0.0638
     61 H           4.7268   -0.3294   -1.5024 H       1  UNL1        0.0655
@<TRIPOS>UNITY_ATOM_ATTR
30 1
charge 1
@<TRIPOS>BOND
     1     1     2    1
     2     2     3    1
     3     3     4    1
     4     4     5   ar
     5     5     6   ar
     6     6     7   ar
     7     7     8    1
     8     8     9    1
     9     9    10    2
    10     9    11    2
    11     9    12    1
    12    12    13   ar
    13    13    14   ar
    14    14    15   ar
    15    15    16   ar
    16    16    17   ar
    17    17    18    2
    18    17    19   ar
    19    19    20   ar
    20    20    21    1
    21    21    22    2
    22    21    23   am
    23    23    24    1
    24    24    25    1
    25    25    26    1
    26    26    27    1
    27    27    28   ar
    28    28    29   ar
    29    29    30   ar
    30    30    31   ar
    31    27    31   ar
    32    20    32   ar
    33    15    32   ar
    34    32    33   ar
    35    12    33   ar
    36     7    34   ar
    37    34    35   ar
    38     4    35   ar
    39     1    36    1
    40     1    37    1
    41     1    38    1
    42     2    39    1
    43     2    40    1
    44     5    41    1
    45     6    42    1
    46     8    43    1
    47    13    44    1
    48    14    45    1
    49    16    46    1
    50    19    47    1
    51    23    48    1
    52    24    49    1
    53    24    50    1
    54    25    51    1
    55    25    52    1
    56    26    53    1
    57    26    54    1
    58    28    55    1
    59    29    56    1
    60    30    57    1
    61    31    58    1
    62    33    59    1
    63    34    60    1
    64    35    61    1
