@<TRIPOS>MOLECULE
*****
 35 35 0 0 0
SMALL
GASTEIGER

@<TRIPOS>ATOM
      1 C          12.6463   -4.2229   -3.6230 C.3     1  UNL1       -0.0627
      2 C          12.7450   -2.8771   -4.3529 C.3     1  UNL1       -0.0463
      3 C          12.4302   -3.0903   -5.8334 C.3     1  UNL1       -0.0627
      4 C          11.7935   -1.8409   -3.7135 C.3     1  UNL1       -0.0424
      5 C          11.8537   -0.4413   -4.3643 C.3     1  UNL1        0.0256
      6 C          10.8924    0.5632   -3.7193 C.2     1  UNL1        0.2291
      7 O          10.1539    0.2669   -2.7798 O.2     1  UNL1       -0.2743
      8 N          10.9003    1.8410   -4.2799 N.am    1  UNL1       -0.2344
      9 N          10.0230    2.8305   -3.7421 N.am    1  UNL1       -0.2342
     10 C           9.9528    4.1364   -4.2430 C.2     1  UNL1        0.2324
     11 O          10.6521    4.5509   -5.1662 O.2     1  UNL1       -0.2740
     12 C           8.9386    5.0057   -3.5375 C.3     1  UNL1        0.0398
     13 C           9.2011    6.4328   -3.0825 C.3     1  UNL1       -0.0383
     14 C           8.1152    6.1699   -4.0944 C.3     1  UNL1       -0.0320
     15 C           8.1392    6.8178   -5.4376 C.3     1  UNL1       -0.0617
     16 H          13.3341   -4.9561   -4.0606 H       1  UNL1        0.0232
     17 H          11.6335   -4.6358   -3.6901 H       1  UNL1        0.0232
     18 H          12.9007   -4.1196   -2.5633 H       1  UNL1        0.0232
     19 H          13.7779   -2.5177   -4.2600 H       1  UNL1        0.0296
     20 H          11.4025   -3.4465   -5.9629 H       1  UNL1        0.0232
     21 H          13.1063   -3.8278   -6.2775 H       1  UNL1        0.0232
     22 H          12.5458   -2.1660   -6.4049 H       1  UNL1        0.0232
     23 H          12.0354   -1.7535   -2.6457 H       1  UNL1        0.0272
     24 H          10.7657   -2.2237   -3.7627 H       1  UNL1        0.0272
     25 H          11.5855   -0.5128   -5.4228 H       1  UNL1        0.0359
     26 H          12.8781   -0.0585   -4.2932 H       1  UNL1        0.0359
     27 H          11.4833    2.1144   -5.0673 H       1  UNL1        0.1728
     28 H           9.4426    2.5062   -2.9693 H       1  UNL1        0.1728
     29 H           8.3827    4.4198   -2.8080 H       1  UNL1        0.0397
     30 H          10.0969    6.9634   -3.3844 H       1  UNL1        0.0275
     31 H           8.8681    6.7187   -2.0854 H       1  UNL1        0.0275
     32 H           7.0906    6.2176   -3.7308 H       1  UNL1        0.0306
     33 H           9.1280    6.9565   -5.8802 H       1  UNL1        0.0233
     34 H           7.6709    7.8122   -5.3647 H       1  UNL1        0.0233
     35 H           7.5120    6.2482   -6.1315 H       1  UNL1        0.0233
@<TRIPOS>BOND
     1     1     2    1
     2     2     3    1
     3     2     4    1
     4     4     5    1
     5     5     6    1
     6     6     7    2
     7     6     8   am
     8     8     9    1
     9     9    10   am
    10    10    11    2
    11    12    13    1
    12    13    14    1
    13    12    14    1
    14    14    15    1
    15    12    10    1
    16     1    16    1
    17     1    17    1
    18     1    18    1
    19     2    19    1
    20     3    20    1
    21     3    21    1
    22     3    22    1
    23     4    23    1
    24     4    24    1
    25     5    25    1
    26     5    26    1
    27     8    27    1
    28     9    28    1
    29    12    29    1
    30    13    30    1
    31    13    31    1
    32    14    32    1
    33    15    33    1
    34    15    34    1
    35    15    35    1
