REMARK  9 active torsions:
REMARK  status: ('A' for Active; 'I' for Inactive)
REMARK    1  A    between atoms: C_2  and  C_3 
REMARK       I    between atoms: C_2  and  N_30 
REMARK    2  A    between atoms: C_3  and  S_4 
REMARK    3  A    between atoms: C_5  and  S_4 
REMARK    4  A    between atoms: N_15  and  N_16 
REMARK       I    between atoms: N_16  and  C_17 
REMARK    5  A    between atoms: C_17  and  C_19 
REMARK    6  A    between atoms: C_19  and  C_20 
REMARK    7  A    between atoms: C_20  and  C_21 
REMARK    8  A    between atoms: N_30  and  C_31 
REMARK    9  A    between atoms: C_31  and  C_32 
ROOT
ATOM      1  C   UNL d   1       2.776  -1.585   3.886  0.00  0.00     0.274 C 
ATOM      2  N   UNL d   1       2.249  -0.771   4.977  0.00  0.00    -0.358 N 
ATOM      3  C   UNL d   1       2.422  -1.225   6.285  0.00  0.00     0.046 A 
ATOM      4  C   UNL d   1       2.387  -0.375   7.395  0.00  0.00     0.030 A 
ATOM      5  C   UNL d   1       2.463  -0.889   8.705  0.00  0.00     0.002 A 
ATOM      6  C   UNL d   1       2.539  -2.261   8.929  0.00  0.00     0.001 A 
ATOM      7  C   UNL d   1       2.598  -3.113   7.842  0.00  0.00     0.019 A 
ATOM      8  C   UNL d   1       2.572  -2.587   6.542  0.00  0.00     0.060 A 
ATOM      9  C   UNL d   1       2.677  -3.511   5.413  0.00  0.00     0.277 C 
ATOM     10  O   UNL d   1       2.982  -4.675   5.679  0.00  0.00    -0.266 OA
ATOM     11  N   UNL d   1       2.427  -2.980   4.149  0.00  0.00    -0.221 N 
ATOM     12  H   UNL d   1       2.183   0.228   4.830  0.00  0.00     0.162 HD
ENDROOT
BRANCH  11  13
ATOM     13  N   UNL d   1       2.195  -3.845   3.009  0.00  0.00    -0.262 N 
ATOM     14  C   UNL d   1       1.638  -5.107   3.207  0.00  0.00     0.236 C 
ATOM     15  O   UNL d   1       1.348  -5.637   4.273  0.00  0.00    -0.272 OA
ATOM     16  H   UNL d   1       1.998  -3.370   2.135  0.00  0.00     0.190 HD
BRANCH  14  17
ATOM     17  C   UNL d   1       1.310  -5.871   1.954  0.00  0.00     0.109 C 
BRANCH  17  18
ATOM     18  C   UNL d   1       0.984  -7.311   2.391  0.00  0.00     0.046 C 
BRANCH  18  19
ATOM     19  C   UNL d   1       0.644  -8.221   1.274  0.00  0.00    -0.050 A 
ATOM     20  C   UNL d   1       0.818  -9.543   1.277  0.00  0.00    -0.006 A 
ATOM     21  C   UNL d   1       1.281 -10.476   2.247  0.00  0.00     0.014 A 
ATOM     22  C   UNL d   1       0.438  -9.963  -0.081  0.00  0.00     0.038 A 
ATOM     23  C   UNL d   1       1.386 -11.764   1.887  0.00  0.00     0.001 A 
ATOM     24  C   UNL d   1       1.046 -12.207   0.542  0.00  0.00     0.002 A 
ATOM     25  C   UNL d   1       0.592 -11.385  -0.425  0.00  0.00     0.030 A 
ATOM     26  N   UNL d   1       0.039  -8.982  -0.798  0.00  0.00    -0.385 N 
ATOM     27  C   UNL d   1       0.086  -7.734  -0.022  0.00  0.00     0.155 A 
ATOM     28  H   UNL d   1      -0.239  -9.070  -1.772  0.00  0.00     0.160 HD
ENDBRANCH  18  19
ENDBRANCH  17  18
ENDBRANCH  14  17
ENDBRANCH  11  13
BRANCH   1  29
ATOM     29  S   UNL d   1       4.573  -1.278   3.718  0.00  0.00    -0.112 SA
BRANCH  29  30
ATOM     30  C   UNL d   1       5.040  -2.105   2.142  0.00  0.00     0.180 C 
BRANCH  30  31
ATOM     31  C   UNL d   1       6.559  -1.980   1.884  0.00  0.00     0.227 C 
ATOM     32  O   UNL d   1       7.346  -1.416   2.643  0.00  0.00    -0.273 OA
ATOM     33  N   UNL d   1       7.081  -2.531   0.744  0.00  0.00    -0.354 N 
ATOM     34  H   UNL d   1       8.084  -2.392   0.652  0.00  0.00     0.162 HD
BRANCH  33  35
ATOM     35  C   UNL d   1       6.384  -3.225  -0.315  0.00  0.00     0.187 C 
BRANCH  35  36
ATOM     36  C   UNL d   1       7.364  -3.771  -1.286  0.00  0.00     0.070 A 
ATOM     37  C   UNL d   1       8.240  -4.833  -1.207  0.00  0.00     0.036 A 
ATOM     38  C   UNL d   1       8.955  -4.862  -2.425  0.00  0.00     0.027 A 
ATOM     39  C   UNL d   1       8.454  -3.832  -3.187  0.00  0.00     0.142 A 
ATOM     40  O   UNL d   1       7.478  -3.167  -2.507  0.00  0.00    -0.325 OA
ENDBRANCH  35  36
ENDBRANCH  33  35
ENDBRANCH  30  31
ENDBRANCH  29  30
ENDBRANCH   1  29
TORSDOF 9
