@<TRIPOS>MOLECULE
*****
 69 72 0 0 0
SMALL
GASTEIGER

@<TRIPOS>ATOM
      1 O          15.2203   10.4614   -4.8289 O.2     1  UNL1       -0.2738
      2 C          14.8999    9.3875   -4.3133 C.2     1  UNL1        0.2343
      3 C          13.7602    9.2783   -3.2840 C.3     1  UNL1        0.0861
      4 N          13.0573   10.5322   -3.0253 N.pl3   1  UNL1       -0.3354
      5 C          12.0756   10.6135   -2.0536 C.ar    1  UNL1        0.0283
      6 C          12.1479    9.8601   -0.8829 C.ar    1  UNL1       -0.0394
      7 C          11.1713    9.9487    0.1068 C.ar    1  UNL1       -0.0409
      8 C          10.0554   10.7653   -0.0580 C.ar    1  UNL1        0.0532
      9 CL          8.9461   10.7546    1.2689 Cl      1  UNL1       -0.0828
     10 C           9.9120   11.5044   -1.2362 C.ar    1  UNL1        0.0567
     11 C           8.7705   12.4219   -1.5348 C.2     1  UNL1        0.2458
     12 O           8.7656   12.9549   -2.6451 O.2     1  UNL1       -0.2701
     13 N           7.8097   12.6533   -0.5651 N.am    1  UNL1       -0.3085
     14 C           6.6146   13.4989   -0.6957 C.3     1  UNL1        0.0234
     15 C           6.3200   14.2179    0.6398 C.3     1  UNL1       -0.0345
     16 C           5.1498   15.2008    0.5298 C.3     1  UNL1       -0.0514
     17 C           5.3516   16.1946   -0.6090 C.3     1  UNL1       -0.0529
     18 C           5.5657   15.4654   -1.9218 C.3     1  UNL1       -0.0514
     19 C           6.7388   14.5155   -1.8285 C.3     1  UNL1       -0.0345
     20 C          10.9335   11.4073   -2.2287 C.ar    1  UNL1       -0.0273
     21 N          15.6530    8.2523   -4.5772 N.am    1  UNL1       -0.2842
     22 C          15.3927    6.9251   -4.1842 C.ar    1  UNL1        0.0335
     23 C          16.4367    6.0597   -3.8550 C.ar    1  UNL1       -0.0398
     24 C          16.1558    4.7292   -3.4809 C.ar    1  UNL1       -0.0479
     25 C          14.8308    4.2657   -3.3757 C.ar    1  UNL1        0.0368
     26 C          14.5622    2.8874   -2.8489 C.2     1  UNL1        0.2442
     27 O          15.5088    2.1563   -2.5553 O.2     1  UNL1       -0.2702
     28 N          13.2445    2.4932   -2.6857 N.am    1  UNL1       -0.3089
     29 C          12.9152    1.1528   -2.2164 C.3     1  UNL1        0.0382
     30 C          11.4166    0.7813   -2.1104 C.3     1  UNL1        0.0742
     31 C          10.4916    1.4302   -3.1289 C.3     1  UNL1       -0.0231
     32 C          10.5202    0.4613   -4.2803 C.3     1  UNL1       -0.0271
     33 C          10.6187   -0.8745   -3.5823 C.3     1  UNL1        0.0482
     34 O          11.2815   -0.6449   -2.3290 O.3     1  UNL1       -0.3750
     35 C          13.8054    5.1246   -3.7624 C.ar    1  UNL1       -0.0479
     36 C          14.0952    6.4192   -4.1906 C.ar    1  UNL1       -0.0398
     37 H          14.2017    8.8654   -2.3713 H       1  UNL1        0.0557
     38 H          12.9920    8.6136   -3.6647 H       1  UNL1        0.0557
     39 H          13.3585   11.3535   -3.5435 H       1  UNL1        0.1466
     40 H          13.0036    9.2244   -0.6826 H       1  UNL1        0.0636
     41 H          11.3036    9.3828    1.0246 H       1  UNL1        0.0633
     42 H           7.8425   12.0838    0.2723 H       1  UNL1        0.1493
     43 H           5.7771   12.8192   -0.9041 H       1  UNL1        0.0498
     44 H           7.2144   14.7647    0.9668 H       1  UNL1        0.0283
     45 H           6.1026   13.4880    1.4305 H       1  UNL1        0.0283
     46 H           5.0294   15.7477    1.4719 H       1  UNL1        0.0266
     47 H           4.2201   14.6431    0.3625 H       1  UNL1        0.0266
     48 H           6.2193   16.8311   -0.3945 H       1  UNL1        0.0265
     49 H           4.4808   16.8516   -0.6987 H       1  UNL1        0.0265
     50 H           5.7559   16.1801   -2.7292 H       1  UNL1        0.0266
     51 H           4.6664   14.8987   -2.1898 H       1  UNL1        0.0266
     52 H           7.6647   15.0899   -1.6918 H       1  UNL1        0.0283
     53 H           6.7965   13.9949   -2.7882 H       1  UNL1        0.0283
     54 H          10.8222   11.9569   -3.1662 H       1  UNL1        0.0644
     55 H          16.5048    8.4356   -5.0985 H       1  UNL1        0.1549
     56 H          17.4689    6.4058   -3.8264 H       1  UNL1        0.0636
     57 H          16.9820    4.0529   -3.2593 H       1  UNL1        0.0626
     58 H          12.4962    3.1332   -2.8887 H       1  UNL1        0.1491
     59 H          13.3678    1.0423   -1.2225 H       1  UNL1        0.0487
     60 H          13.4359    0.4418   -2.8669 H       1  UNL1        0.0487
     61 H          11.0663    0.9899   -1.0923 H       1  UNL1        0.0611
     62 H          10.7609    2.4434   -3.4255 H       1  UNL1        0.0291
     63 H           9.4764    1.4835   -2.7158 H       1  UNL1        0.0291
     64 H          11.4167    0.6318   -4.8867 H       1  UNL1        0.0288
     65 H           9.6469    0.5400   -4.9332 H       1  UNL1        0.0288
     66 H          11.1795   -1.6072   -4.1713 H       1  UNL1        0.0560
     67 H           9.6274   -1.2904   -3.3717 H       1  UNL1        0.0560
     68 H          12.7643    4.8303   -3.7774 H       1  UNL1        0.0626
     69 H          13.2695    6.9936   -4.5918 H       1  UNL1        0.0636
@<TRIPOS>BOND
     1     1     2    2
     2     2     3    1
     3     3     4    1
     4     4     5    1
     5     5     6   ar
     6     6     7   ar
     7     7     8   ar
     8     8     9    1
     9     8    10   ar
    10    10    11    1
    11    11    12    2
    12    11    13   am
    13    13    14    1
    14    14    15    1
    15    15    16    1
    16    16    17    1
    17    17    18    1
    18    18    19    1
    19    14    19    1
    20    10    20   ar
    21     5    20   ar
    22     2    21   am
    23    21    22    1
    24    22    23   ar
    25    23    24   ar
    26    24    25   ar
    27    25    26    1
    28    26    27    2
    29    26    28   am
    30    28    29    1
    31    30    31    1
    32    31    32    1
    33    32    33    1
    34    33    34    1
    35    30    34    1
    36    25    35   ar
    37    35    36   ar
    38    22    36   ar
    39    30    29    1
    40     3    37    1
    41     3    38    1
    42     4    39    1
    43     6    40    1
    44     7    41    1
    45    13    42    1
    46    14    43    1
    47    15    44    1
    48    15    45    1
    49    16    46    1
    50    16    47    1
    51    17    48    1
    52    17    49    1
    53    18    50    1
    54    18    51    1
    55    19    52    1
    56    19    53    1
    57    20    54    1
    58    21    55    1
    59    23    56    1
    60    24    57    1
    61    28    58    1
    62    29    59    1
    63    29    60    1
    64    30    61    1
    65    31    62    1
    66    31    63    1
    67    32    64    1
    68    32    65    1
    69    33    66    1
    70    33    67    1
    71    35    68    1
    72    36    69    1
