REMARK  8 active torsions:
REMARK  status: ('A' for Active; 'I' for Inactive)
REMARK    1  A    between atoms: C_2  and  C_4 
REMARK    2  A    between atoms: C_4  and  N_5 
REMARK       I    between atoms: N_5  and  C_6 
REMARK       I    between atoms: C_6  and  N_8 
REMARK    3  A    between atoms: N_8  and  N_9 
REMARK       I    between atoms: N_9  and  C_10 
REMARK    4  A    between atoms: C_10  and  C_12 
REMARK    5  A    between atoms: C_12  and  C_13 
REMARK    6  A    between atoms: C_13  and  C_14 
REMARK    7  A    between atoms: C_14  and  O_15 
REMARK    8  A    between atoms: O_15  and  C_16 
ROOT
ATOM      1  N   UNL d   1       7.346   1.097   3.730  0.00  0.00    -0.266 N 
ATOM      2  C   UNL d   1       8.734   1.073   3.652  0.00  0.00     0.236 C 
ATOM      3  O   UNL d   1       9.315   0.747   2.615  0.00  0.00    -0.272 OA
ATOM      4  H   UNL d   1       6.817   1.356   4.561  0.00  0.00     0.190 HD
ENDROOT
BRANCH   2   5
ATOM      5  C   UNL d   1       9.495   1.474   4.933  0.00  0.00     0.106 C 
BRANCH   5   6
ATOM      6  C   UNL d   1      11.030   1.423   4.752  0.00  0.00     0.036 C 
BRANCH   6   7
ATOM      7  C   UNL d   1      11.824   1.812   6.011  0.00  0.00     0.176 C 
BRANCH   7   8
ATOM      8  O   UNL d   1      13.231   1.765   5.711  0.00  0.00    -0.351 OA
BRANCH   8   9
ATOM      9  C   UNL d   1      14.073   2.051   6.757  0.00  0.00     0.071 A 
ATOM     10  C   UNL d   1      13.902   1.557   8.054  0.00  0.00     0.037 A 
ATOM     11  C   UNL d   1      14.832   1.856   9.059  0.00  0.00     0.006 A 
ATOM     12  C   UNL d   1      15.942   2.646   8.770  0.00  0.00     0.042 A 
ATOM     13  C   UNL d   1      16.122   3.114   7.474  0.00  0.00     0.119 A 
ATOM     14  F   UNL d   1      17.196   3.865   7.195  0.00  0.00    -0.206 F 
ATOM     15  C   UNL d   1      15.207   2.814   6.465  0.00  0.00     0.079 A 
ENDBRANCH   8   9
ENDBRANCH   7   8
ENDBRANCH   6   7
ENDBRANCH   5   6
ENDBRANCH   2   5
BRANCH   1  16
ATOM     16  N   UNL d   1       6.563   0.730   2.582  0.00  0.00    -0.249 N 
ATOM     17  C   UNL d   1       5.178   0.753   2.657  0.00  0.00     0.334 C 
ATOM     18  N   UNL d   1       4.526   0.374   1.498  0.00  0.00    -0.341 N 
ATOM     19  O   UNL d   1       4.584   1.085   3.684  0.00  0.00    -0.246 OA
ATOM     20  H   UNL d   1       5.068   0.117   0.687  0.00  0.00     0.164 HD
ATOM     21  H   UNL d   1       7.086   0.477   1.748  0.00  0.00     0.192 HD
BRANCH  18  22
ATOM     22  C   UNL d   1       3.060   0.367   1.402  0.00  0.00     0.128 C 
BRANCH  22  23
ATOM     23  C   UNL d   1       2.501  -0.044   0.019  0.00  0.00    -0.005 C 
ATOM     24  C   UNL d   1       0.963  -0.071   0.022  0.00  0.00     0.011 C 
ATOM     25  C   UNL d   1       2.969   0.914  -1.076  0.00  0.00     0.011 C 
ENDBRANCH  22  23
ENDBRANCH  18  22
ENDBRANCH   1  16
TORSDOF 8
