@<TRIPOS>MOLECULE
*****
 63 65 0 0 0
SMALL
GASTEIGER

@<TRIPOS>ATOM
      1 C          12.8381   14.6120    5.6457 C.3     1  UNL1       -0.0653
      2 C          13.0290   13.7305    4.4191 C.3     1  UNL1       -0.0552
      3 C          12.1545   12.4786    4.5044 C.3     1  UNL1       -0.0438
      4 C          12.3097   11.5760    3.2758 C.3     1  UNL1        0.0011
      5 S          11.1456   10.1777    3.4530 S.3     1  UNL1       -0.0860
      6 C          11.4863    9.2662    1.9819 C.ar    1  UNL1        0.1896
      7 N          10.7559    9.4658    0.8767 N.ar    1  UNL1       -0.2295
      8 C          10.9955    8.6520   -0.1904 C.ar    1  UNL1        0.0455
      9 C          11.9541    7.6628   -0.2209 C.ar    1  UNL1        0.0916
     10 C          12.1421    6.8649   -1.4780 C.2     1  UNL1        0.2487
     11 O          11.4115    7.0501   -2.4522 O.2     1  UNL1       -0.2700
     12 N          13.1440    5.9239   -1.5111 N.am    1  UNL1       -0.3055
     13 C          13.3654    4.9367   -2.5860 C.3     1  UNL1        0.0592
     14 C          13.9309    3.5394   -2.1009 C.3     1  UNL1        0.0208
     15 C          13.3522    3.0824   -0.7724 C.ar    1  UNL1        0.0019
     16 C          13.8065    3.6951    0.3988 C.ar    1  UNL1       -0.0498
     17 C          13.5070    3.3019    1.6754 C.ar    1  UNL1       -0.0195
     18 C          12.6813    2.2277    1.8281 C.ar    1  UNL1        0.1201
     19 O          12.4177    1.9654    3.1330 O.3     1  UNL1       -0.4951
     20 C          11.4984    0.9179    3.3488 C.3     1  UNL1        0.0788
     21 C          12.2256    1.5406    0.6922 C.ar    1  UNL1       -0.0195
     22 C          12.5453    1.9677   -0.6096 C.ar    1  UNL1       -0.0498
     23 N          15.5210    3.5121   -2.0464 N.4     1  UNL1        0.2418
     24 C          16.1705    4.7997   -1.5567 C.3     1  UNL1       -0.0313
     25 C          17.6590    4.6721   -1.3479 C.3     1  UNL1       -0.0123
     26 C          17.9511    3.4887   -0.4419 C.3     1  UNL1       -0.0434
     27 C          17.5287    2.2283   -1.1762 C.3     1  UNL1       -0.0123
     28 C          16.0214    2.2208   -1.3468 C.3     1  UNL1       -0.0313
     29 C          12.6477    7.5978    0.9728 C.ar    1  UNL1        0.1456
     30 CL         14.0787    6.7146    1.2658 Cl      1  UNL1       -0.0611
     31 N          12.4270    8.3389    2.0734 N.ar    1  UNL1       -0.2095
     32 H          13.4640   15.5068    5.5755 H       1  UNL1        0.0230
     33 H          13.1125   14.0757    6.5600 H       1  UNL1        0.0230
     34 H          11.7953   14.9333    5.7384 H       1  UNL1        0.0230
     35 H          14.0847   13.4476    4.3391 H       1  UNL1        0.0263
     36 H          12.7737   14.3044    3.5210 H       1  UNL1        0.0263
     37 H          11.1068   12.7897    4.6068 H       1  UNL1        0.0273
     38 H          12.4190   11.9237    5.4144 H       1  UNL1        0.0273
     39 H          13.3461   11.2252    3.1965 H       1  UNL1        0.0381
     40 H          12.0635   12.1314    2.3654 H       1  UNL1        0.0381
     41 H          10.3708    8.8610   -1.0571 H       1  UNL1        0.0839
     42 H          13.7136    5.8802   -0.6839 H       1  UNL1        0.1492
     43 H          14.0526    5.3897   -3.3110 H       1  UNL1        0.0522
     44 H          12.4214    4.7830   -3.1244 H       1  UNL1        0.0522
     45 H          13.6959    2.7995   -2.8804 H       1  UNL1        0.0920
     46 H          14.5063    4.4900    0.3760 H       1  UNL1        0.0623
     47 H          13.9427    3.8309    2.5203 H       1  UNL1        0.0654
     48 H          11.3016    0.8686    4.4200 H       1  UNL1        0.0660
     49 H          11.9467   -0.0251    3.0266 H       1  UNL1        0.0660
     50 H          10.5547    1.1158    2.8307 H       1  UNL1        0.0660
     51 H          11.6281    0.6421    0.7977 H       1  UNL1        0.0654
     52 H          12.1863    1.3912   -1.4593 H       1  UNL1        0.0623
     53 H          15.8136    3.4122   -3.0268 H       1  UNL1        0.2040
     54 H          15.7863    5.0696   -0.5885 H       1  UNL1        0.0814
     55 H          15.9205    5.6097   -2.2434 H       1  UNL1        0.0814
     56 H          18.0253    5.5895   -0.8731 H       1  UNL1        0.0317
     57 H          18.1627    4.5692   -2.3123 H       1  UNL1        0.0317
     58 H          17.3940    3.5793    0.5038 H       1  UNL1        0.0269
     59 H          19.0121    3.4577   -0.1843 H       1  UNL1        0.0269
     60 H          17.8430    1.3494   -0.6019 H       1  UNL1        0.0317
     61 H          18.0170    2.1737   -2.1542 H       1  UNL1        0.0317
     62 H          15.5851    2.1518   -0.3489 H       1  UNL1        0.0814
     63 H          15.6789    1.3634   -1.9370 H       1  UNL1        0.0814
@<TRIPOS>UNITY_ATOM_ATTR
23 1
charge 1
@<TRIPOS>BOND
     1     1     2    1
     2     2     3    1
     3     3     4    1
     4     4     5    1
     5     5     6    1
     6     6     7   ar
     7     7     8   ar
     8     8     9   ar
     9     9    10    1
    10    10    11    2
    11    10    12   am
    12    12    13    1
    13    15    16   ar
    14    16    17   ar
    15    17    18   ar
    16    18    19    1
    17    19    20    1
    18    18    21   ar
    19    21    22   ar
    20    15    22   ar
    21    14    23    1
    22    23    24    1
    23    24    25    1
    24    25    26    1
    25    26    27    1
    26    27    28    1
    27    23    28    1
    28     9    29   ar
    29    29    30    1
    30    29    31   ar
    31     6    31   ar
    32    14    15    1
    33    14    13    1
    34     1    32    1
    35     1    33    1
    36     1    34    1
    37     2    35    1
    38     2    36    1
    39     3    37    1
    40     3    38    1
    41     4    39    1
    42     4    40    1
    43     8    41    1
    44    12    42    1
    45    13    43    1
    46    13    44    1
    47    14    45    1
    48    16    46    1
    49    17    47    1
    50    20    48    1
    51    20    49    1
    52    20    50    1
    53    21    51    1
    54    22    52    1
    55    23    53    1
    56    24    54    1
    57    24    55    1
    58    25    56    1
    59    25    57    1
    60    26    58    1
    61    26    59    1
    62    27    60    1
    63    27    61    1
    64    28    62    1
    65    28    63    1
