@<TRIPOS>MOLECULE
*****
 56 59 0 0 0
SMALL
GASTEIGER

@<TRIPOS>ATOM
      1 C         -13.1047   -9.7227   -2.5131 C.3     1  UNL1       -0.0397
      2 C         -12.9593   -8.2333   -2.4381 C.ar    1  UNL1       -0.0504
      3 C         -13.9464   -7.3435   -2.8877 C.ar    1  UNL1       -0.0580
      4 C         -13.7805   -5.9369   -2.8152 C.ar    1  UNL1       -0.0466
      5 C         -12.6232   -5.3826   -2.2856 C.ar    1  UNL1        0.0677
      6 C         -12.4352   -3.8659   -2.2153 C.2     1  UNL1        0.3449
      7 N         -13.1765   -3.1108   -1.4136 N.2     1  UNL1        0.0444
      8 N         -12.6041   -1.8447   -1.4551 N.pl3   1  UNL1       -0.1245
      9 C         -11.5569   -1.7524   -2.4467 C.3     1  UNL1        0.2379
     10 S         -10.0598   -0.8669   -1.7687 S.3     1  UNL1       -0.0828
     11 C          -8.9457   -2.1410   -1.1216 C.3     1  UNL1        0.0756
     12 C          -7.5789   -1.7639   -0.5363 C.2     1  UNL1        0.2251
     13 O          -7.1560   -0.6084   -0.4904 O.2     1  UNL1       -0.2748
     14 N          -6.7323   -2.7896   -0.1126 N.am    1  UNL1       -0.2855
     15 C          -6.9776   -4.2171    0.0758 C.3     1  UNL1        0.1565
     16 O          -5.7077   -4.8621    0.3841 O.3     1  UNL1       -0.3472
     17 C          -5.3942   -5.8453   -0.6544 C.3     1  UNL1        0.0818
     18 C          -5.4340   -7.2733   -0.1159 C.3     1  UNL1       -0.0346
     19 C          -6.4590   -5.7207   -1.6556 C.2     1  UNL1       -0.0111
     20 C          -7.3368   -4.8745   -1.1746 C.2     1  UNL1        0.0652
     21 C          -8.6710   -5.0692   -1.6452 C.2     1  UNL1        0.2578
     22 O          -9.5477   -4.6743   -0.9230 O.2     1  UNL1       -0.2691
     23 N          -8.8228   -5.6680   -2.8951 N.am    1  UNL1       -0.2465
     24 N          -7.8345   -6.2399   -3.6431 N.3     1  UNL1       -0.2334
     25 C          -6.6407   -6.5527   -2.8760 C.3     1  UNL1        0.0464
     26 C          -5.5085   -6.2297   -3.8149 C.3     1  UNL1       -0.0442
     27 N         -11.5234   -3.0986   -2.9575 N.pl3   1  UNL1       -0.1907
     28 C         -10.4929   -3.5335   -3.7948 C.3     1  UNL1        0.0724
     29 C         -11.7023   -6.3076   -1.7741 C.ar    1  UNL1       -0.0466
     30 C         -11.8183   -7.6980   -1.8778 C.ar    1  UNL1       -0.0580
     31 H         -14.0669  -10.0056   -2.9463 H       1  UNL1        0.0278
     32 H         -13.0380  -10.1669   -1.5126 H       1  UNL1        0.0278
     33 H         -12.3095  -10.1471   -3.1364 H       1  UNL1        0.0278
     34 H         -14.8688   -7.7420   -3.3009 H       1  UNL1        0.0620
     35 H         -14.5734   -5.2845   -3.1628 H       1  UNL1        0.0626
     36 H         -13.1603   -1.0245   -1.2580 H       1  UNL1        0.1999
     37 H         -11.8386   -1.1336   -3.3076 H       1  UNL1        0.1142
     38 H          -8.6632   -2.7036   -2.0049 H       1  UNL1        0.0473
     39 H          -9.4721   -2.6525   -0.3220 H       1  UNL1        0.0473
     40 H          -5.8786   -2.4556    0.3156 H       1  UNL1        0.1515
     41 H          -7.6651   -4.3698    0.9160 H       1  UNL1        0.0863
     42 H          -4.4269   -5.5958   -1.0921 H       1  UNL1        0.0642
     43 H          -6.3955   -7.5028    0.3640 H       1  UNL1        0.0258
     44 H          -4.6490   -7.4325    0.6223 H       1  UNL1        0.0258
     45 H          -5.2940   -8.0044   -0.9238 H       1  UNL1        0.0258
     46 H          -9.7627   -5.7633   -3.2668 H       1  UNL1        0.1693
     47 H          -7.6452   -5.7240   -4.5064 H       1  UNL1        0.1449
     48 H          -6.7272   -7.6091   -2.6083 H       1  UNL1        0.0521
     49 H          -5.4934   -5.1478   -4.0179 H       1  UNL1        0.0248
     50 H          -5.6437   -6.7472   -4.7681 H       1  UNL1        0.0248
     51 H          -4.5546   -6.5153   -3.3756 H       1  UNL1        0.0248
     52 H          -9.7647   -2.8075   -4.1607 H       1  UNL1        0.0690
     53 H         -10.7715   -4.2749   -4.5465 H       1  UNL1        0.0690
     54 H          -9.9496   -4.0008   -3.0353 H       1  UNL1        0.0690
     55 H         -10.8612   -6.0125   -1.1978 H       1  UNL1        0.0626
     56 H         -11.0262   -8.3360   -1.4826 H       1  UNL1        0.0620
@<TRIPOS>BOND
     1     1     2    1
     2     2     3   ar
     3     3     4   ar
     4     4     5   ar
     5     5     6    1
     6     6     7    2
     7     7     8    1
     8     8     9    1
     9    10    11    1
    10    11    12    1
    11    12    13    2
    12    12    14   am
    13    15    16    1
    14    16    17    1
    15    17    19    1
    16    19    20    2
    17    15    20    1
    18    20    21    1
    19    21    22    2
    20    21    23   am
    21    23    24    1
    22    24    25    1
    23    19    25    1
    24    25    26    1
    25     9    27    1
    26     6    27    1
    27    27    28    1
    28     5    29   ar
    29    29    30   ar
    30     2    30   ar
    31    15    14    1
    32     9    10    1
    33    17    18    1
    34     1    31    1
    35     1    32    1
    36     1    33    1
    37     3    34    1
    38     4    35    1
    39     8    36    1
    40     9    37    1
    41    11    38    1
    42    11    39    1
    43    14    40    1
    44    15    41    1
    45    17    42    1
    46    18    43    1
    47    18    44    1
    48    18    45    1
    49    23    46    1
    50    24    47    1
    51    25    48    1
    52    26    49    1
    53    26    50    1
    54    26    51    1
    55    28    52    1
    56    28    53    1
    57    28    54    1
    58    29    55    1
    59    30    56    1
