@<TRIPOS>MOLECULE
*****
 27 28 0 0 0
SMALL
GASTEIGER

@<TRIPOS>ATOM
      1 O           1.0542   -0.2843   -0.0710 O.2     1  UNL1       -0.2697
      2 C           2.2750   -0.1229   -0.1108 C.2     1  UNL1        0.2518
      3 N           2.9679    0.2687   -1.2555 N.am    1  UNL1       -0.2804
      4 C           2.2680    0.5999   -2.4496 C.ar    1  UNL1        0.0477
      5 C           2.7024    0.0503   -3.6703 C.ar    1  UNL1       -0.0394
      6 C           2.0110    0.3251   -4.8619 C.ar    1  UNL1       -0.0599
      7 C           0.9052    1.1718   -4.8528 C.ar    1  UNL1       -0.0606
      8 C           0.4860    1.7446   -3.6570 C.ar    1  UNL1       -0.0460
      9 C           1.1628    1.4755   -2.4637 C.ar    1  UNL1        0.0391
     10 BR          0.6177    2.5423   -0.9745 Br      1  UNL1       -0.0484
     11 C           3.0735   -0.4189    1.1080 C.ar    1  UNL1        0.0783
     12 C           4.1680    0.3797    1.4732 C.ar    1  UNL1       -0.0461
     13 C           4.8869    0.0857    2.6384 C.ar    1  UNL1       -0.0608
     14 C           4.5125   -0.9926    3.4432 C.ar    1  UNL1       -0.0583
     15 C           3.4035   -1.7683    3.1053 C.ar    1  UNL1       -0.0194
     16 C           2.6861   -1.4778    1.9457 C.ar    1  UNL1        0.1290
     17 O           1.6223   -2.2664    1.6051 O.3     1  UNL1       -0.5060
     18 H           3.9425    0.0037   -1.3272 H       1  UNL1        0.1552
     19 H           3.5436   -0.6380   -3.7164 H       1  UNL1        0.0636
     20 H           2.3230   -0.1268   -5.8020 H       1  UNL1        0.0618
     21 H           0.3739    1.4042   -5.7723 H       1  UNL1        0.0618
     22 H          -0.3590    2.4273   -3.6561 H       1  UNL1        0.0629
     23 H           4.4502    1.2469    0.8816 H       1  UNL1        0.0626
     24 H           5.7377    0.7000    2.9270 H       1  UNL1        0.0618
     25 H           5.0841   -1.2284    4.3384 H       1  UNL1        0.0619
     26 H           3.1201   -2.6009    3.7422 H       1  UNL1        0.0654
     27 H           1.3718   -2.8520    2.3340 H       1  UNL1        0.2922
@<TRIPOS>BOND
     1     1     2    2
     2     2     3   am
     3     3     4    1
     4     4     5   ar
     5     5     6   ar
     6     6     7   ar
     7     7     8   ar
     8     8     9   ar
     9     4     9   ar
    10     9    10    1
    11     2    11    1
    12    11    12   ar
    13    12    13   ar
    14    13    14   ar
    15    14    15   ar
    16    15    16   ar
    17    11    16   ar
    18    16    17    1
    19     3    18    1
    20     5    19    1
    21     6    20    1
    22     7    21    1
    23     8    22    1
    24    12    23    1
    25    13    24    1
    26    14    25    1
    27    15    26    1
    28    17    27    1
