REMARK  4 active torsions:
REMARK  status: ('A' for Active; 'I' for Inactive)
REMARK       I    between atoms: C_2  and  N_4 
REMARK    1  A    between atoms: N_4  and  C_5 
REMARK    2  A    between atoms: C_11  and  N_12 
REMARK    3  A    between atoms: N_12  and  C_13 
REMARK    4  A    between atoms: C_13  and  C_14 
ROOT
ATOM      1  C   UNL d   1       2.694  -0.777   4.968  0.00  0.00    -0.041 A 
ATOM      2  C   UNL d   1       2.686  -2.145   5.245  0.00  0.00     0.010 A 
ATOM      3  C   UNL d   1       2.327  -2.589   6.512  0.00  0.00     0.023 A 
ATOM      4  C   UNL d   1       1.974  -1.668   7.504  0.00  0.00     0.044 A 
ATOM      5  C   UNL d   1       1.738  -2.124   8.843  0.00  0.00     0.099 C 
ATOM      6  N   UNL d   1       1.585  -2.497   9.926  0.00  0.00    -0.191 NA
ATOM      7  C   UNL d   1       1.906  -0.305   7.206  0.00  0.00     0.023 A 
ATOM      8  C   UNL d   1       2.257   0.140   5.936  0.00  0.00     0.010 A 
ENDROOT
BRANCH   1   9
ATOM      9  C   UNL d   1       3.158  -0.290   3.635  0.00  0.00     0.158 C 
BRANCH   9  10
ATOM     10  N   UNL d   1       4.593  -0.179   3.537  0.00  0.00    -0.384 N 
ATOM     11  H   UNL d   1       5.146  -0.503   4.324  0.00  0.00     0.160 HD
BRANCH  10  12
ATOM     12  C   UNL d   1       5.242   0.217   2.369  0.00  0.00     0.055 A 
ATOM     13  C   UNL d   1       6.659   0.226   2.379  0.00  0.00     0.033 A 
ATOM     14  C   UNL d   1       7.405   0.597   1.251  0.00  0.00     0.026 A 
ATOM     15  C   UNL d   1       6.747   0.955   0.083  0.00  0.00     0.036 A 
ATOM     16  C   UNL d   1       5.361   0.947   0.034  0.00  0.00     0.055 A 
ATOM     17 CL   UNL d   1       7.636   1.424  -1.312  0.00  0.00    -0.084 Cl
ATOM     18  C   UNL d   1       4.599   0.585   1.152  0.00  0.00     0.062 A 
BRANCH  18  19
ATOM     19  N   UNL d   1       3.187   0.649   0.999  0.00  0.00    -0.325 N 
ATOM     20  C   UNL d   1       2.513   0.036  -0.042  0.00  0.00     0.218 C 
ATOM     21  C   UNL d   1       1.006   0.051   0.089  0.00  0.00     0.117 C 
ATOM     22  O   UNL d   1       3.052  -0.531  -0.988  0.00  0.00    -0.274 OA
ATOM     23  H   UNL d   1       2.642   0.983   1.772  0.00  0.00     0.169 HD
ENDBRANCH  18  19
ENDBRANCH  10  12
ENDBRANCH   9  10
ENDBRANCH   1   9
TORSDOF 4
