REMARK  8 active torsions:
REMARK  status: ('A' for Active; 'I' for Inactive)
REMARK    1  A    between atoms: C_3  and  C_2 
REMARK    2  A    between atoms: C_3  and  N_5 
REMARK       I    between atoms: N_5  and  C_6 
REMARK    3  A    between atoms: C_6  and  C_8 
REMARK    4  A    between atoms: C_8  and  C_9 
REMARK    5  A    between atoms: C_9  and  N_10 
REMARK       I    between atoms: N_10  and  C_11 
REMARK       I    between atoms: C_11  and  N_13 
REMARK    6  A    between atoms: N_13  and  O_14 
REMARK    7  A    between atoms: O_14  and  C_15 
REMARK    8  A    between atoms: C_15  and  C_16 
ROOT
ATOM      1  N   UNL d   1       8.816  -4.099  -0.065  0.00  0.00    -0.341 N 
ATOM      2  C   UNL d   1       9.467  -5.322  -0.096  0.00  0.00     0.339 C 
ATOM      3  O   UNL d   1       8.856  -6.391  -0.123  0.00  0.00    -0.245 OA
ATOM      4  N   UNL d   1      10.840  -5.216  -0.099  0.00  0.00    -0.216 N 
ATOM      5  H   UNL d   1       9.358  -3.251  -0.045  0.00  0.00     0.164 HD
ATOM      6  H   UNL d   1      11.350  -4.347  -0.070  0.00  0.00     0.199 HD
ENDROOT
BRANCH   1   7
ATOM      7  C   UNL d   1       7.352  -4.030  -0.060  0.00  0.00     0.134 C 
BRANCH   7   8
ATOM      8  C   UNL d   1       6.772  -2.603  -0.023  0.00  0.00     0.122 C 
BRANCH   8   9
ATOM      9  C   UNL d   1       5.246  -2.644  -0.005  0.00  0.00     0.219 C 
ATOM     10  N   UNL d   1       4.595  -1.420  -0.112  0.00  0.00    -0.357 N 
ATOM     11  H   UNL d   1       5.124  -0.565   0.003  0.00  0.00     0.162 HD
ATOM     12  O   UNL d   1       4.635  -3.706   0.089  0.00  0.00    -0.274 OA
BRANCH  10  13
ATOM     13  C   UNL d   1       3.122  -1.343  -0.092  0.00  0.00     0.080 C 
ATOM     14  C   UNL d   1       2.604   0.093   0.010  0.00  0.00     0.032 C 
BRANCH  13  15
ATOM     15  C   UNL d   1       2.471  -2.120  -1.261  0.00  0.00     0.020 C 
ATOM     16  C   UNL d   1       2.262  -1.431  -2.602  0.00  0.00     0.007 C 
ENDBRANCH  13  15
ENDBRANCH  10  13
ENDBRANCH   8   9
ENDBRANCH   7   8
ENDBRANCH   1   7
BRANCH   4  17
ATOM     17  O   UNL d   1      11.558  -6.441  -0.141  0.00  0.00    -0.272 OA
BRANCH  17  18
ATOM     18  C   UNL d   1      12.976  -6.225  -0.149  0.00  0.00     0.240 C 
BRANCH  18  19
ATOM     19  C   UNL d   1      13.752  -7.529  -0.148  0.00  0.00    -0.032 A 
ATOM     20  C   UNL d   1      13.120  -8.770  -0.310  0.00  0.00     0.009 A 
ATOM     21  C   UNL d   1      13.836  -9.961  -0.163  0.00  0.00     0.001 A 
ATOM     22  C   UNL d   1      15.212  -9.930   0.052  0.00  0.00     0.000 A 
ATOM     23  C   UNL d   1      15.868  -8.706   0.156  0.00  0.00     0.001 A 
ATOM     24  C   UNL d   1      15.143  -7.513   0.062  0.00  0.00     0.009 A 
ENDBRANCH  18  19
ENDBRANCH  17  18
ENDBRANCH   4  17
TORSDOF 8
