REMARK  4 active torsions:
REMARK  status: ('A' for Active; 'I' for Inactive)
REMARK       I    between atoms: C_2  and  N_3 
REMARK    1  A    between atoms: C_2  and  C_17 
REMARK    2  A    between atoms: N_3  and  N_4 
REMARK    3  A    between atoms: N_4  and  S_5 
REMARK    4  A    between atoms: S_5  and  C_8 
ROOT
ATOM      1  O   UNL d   1       0.987   0.060   0.136  0.00  0.00    -0.269 OA
ATOM      2  C   UNL d   1       2.213   0.093   0.038  0.00  0.00     0.268 C 
ATOM      3  N   UNL d   1       2.998   0.898   0.855  0.00  0.00    -0.258 N 
ATOM      4  H   UNL d   1       4.003   1.010   0.735  0.00  0.00     0.190 HD
ENDROOT
BRANCH   3   5
ATOM      5  N   UNL d   1       2.393   1.822   1.836  0.00  0.00    -0.220 N 
ATOM      6  H   UNL d   1       1.547   1.481   2.299  0.00  0.00     0.200 HD
BRANCH   5   7
ATOM      7  S   UNL d   1       3.514   2.783   2.687  0.00  0.00     0.278 S 
ATOM      8  O   UNL d   1       4.185   1.881   3.595  0.00  0.00    -0.199 OA
ATOM      9  O   UNL d   1       4.273   3.470   1.659  0.00  0.00    -0.199 OA
BRANCH   7  10
ATOM     10  C   UNL d   1       2.606   3.933   3.663  0.00  0.00     0.112 A 
ATOM     11  C   UNL d   1       1.723   3.498   4.685  0.00  0.00     0.028 A 
ATOM     12  C   UNL d   1       1.144   4.379   5.641  0.00  0.00     0.004 A 
ATOM     13  C   UNL d   1       1.394   5.761   5.669  0.00  0.00     0.035 A 
ATOM     14  C   UNL d   1       2.248   6.253   4.656  0.00  0.00     0.098 A 
ATOM     15  N   UNL d   1       2.594   7.540   4.499  0.00  0.00    -0.191 NA
ATOM     16  C   UNL d   1       2.874   5.326   3.632  0.00  0.00     0.119 A 
ATOM     17  S   UNL d   1       3.602   7.599   3.186  0.00  0.00     0.117 SA
ATOM     18  N   UNL d   1       3.667   5.997   2.783  0.00  0.00    -0.190 NA
ENDBRANCH   7  10
ENDBRANCH   5   7
ENDBRANCH   3   5
BRANCH   2  19
ATOM     19  C   UNL d   1       3.026  -0.801  -0.943  0.00  0.00     0.246 C 
ATOM     20  C   UNL d   1       4.054   0.021  -1.716  0.00  0.00     0.218 C 
ATOM     21  O   UNL d   1       3.410   0.958  -2.584  0.00  0.00    -0.345 OA
ATOM     22  C   UNL d   1       2.403   0.362  -3.297  0.00  0.00     0.102 A 
ATOM     23  C   UNL d   1       1.911   1.068  -4.392  0.00  0.00     0.039 A 
ATOM     24  C   UNL d   1       1.869  -0.886  -2.967  0.00  0.00     0.103 A 
ATOM     25  C   UNL d   1       0.920   0.502  -5.194  0.00  0.00     0.003 A 
ATOM     26  C   UNL d   1       0.422  -0.768  -4.899  0.00  0.00     0.003 A 
ATOM     27  C   UNL d   1       0.898  -1.464  -3.784  0.00  0.00     0.040 A 
ATOM     28  O   UNL d   1       2.248  -1.589  -1.851  0.00  0.00    -0.331 OA
ENDBRANCH   2  19
TORSDOF 4
