REMARK  6 active torsions:
REMARK  status: ('A' for Active; 'I' for Inactive)
REMARK    1  A    between atoms: C_2  and  C_16 
REMARK    2  A    between atoms: N_3  and  N_4 
REMARK       I    between atoms: N_4  and  C_5 
REMARK    3  A    between atoms: C_5  and  C_7 
REMARK    4  A    between atoms: C_7  and  O_8 
REMARK    5  A    between atoms: O_8  and  C_9 
REMARK    6  A    between atoms: C_20  and  O_21 
ROOT
ATOM      1  N   UNL d   1       4.593  -1.135   0.473  0.00  0.00    -0.245 N 
ATOM      2  C   UNL d   1       5.227  -2.298   0.912  0.00  0.00     0.261 C 
ATOM      3  O   UNL d   1       4.614  -3.302   1.286  0.00  0.00    -0.269 OA
ATOM      4  H   UNL d   1       5.142  -0.318   0.239  0.00  0.00     0.192 HD
ENDROOT
BRANCH   1   5
ATOM      5  N   UNL d   1       3.211  -1.075   0.398  0.00  0.00    -0.176 NA
ATOM      6  C   UNL d   1       2.601  -0.020  -0.075  0.00  0.00     0.061 C 
ATOM      7  C   UNL d   1       1.077  -0.008  -0.080  0.00  0.00     0.073 C 
BRANCH   6   8
ATOM      8  C   UNL d   1       3.272   1.176  -0.651  0.00  0.00    -0.008 A 
ATOM      9  C   UNL d   1       2.914   2.479  -0.290  0.00  0.00     0.013 A 
ATOM     10  C   UNL d   1       3.678   3.555  -0.761  0.00  0.00     0.004 A 
ATOM     11  C   UNL d   1       4.803   3.327  -1.563  0.00  0.00     0.036 A 
ATOM     12  C   UNL d   1       5.126   2.027  -1.930  0.00  0.00     0.066 A 
ATOM     13  C   UNL d   1       4.336   0.966  -1.529  0.00  0.00     0.050 A 
BRANCH  12  14
ATOM     14  O   UNL d   1       6.236   1.715  -2.653  0.00  0.00    -0.361 OA
ATOM     15  H   UNL d   1       6.713   2.527  -2.886  0.00  0.00     0.217 HD
ENDBRANCH  12  14
ENDBRANCH   6   8
ENDBRANCH   1   5
BRANCH   2  16
ATOM     16  C   UNL d   1       6.776  -2.237   0.890  0.00  0.00     0.280 C 
BRANCH  16  17
ATOM     17  O   UNL d   1       7.298  -3.467   1.413  0.00  0.00    -0.342 OA
BRANCH  17  18
ATOM     18  C   UNL d   1       8.655  -3.626   1.397  0.00  0.00     0.069 A 
ATOM     19  C   UNL d   1       9.554  -2.700   1.922  0.00  0.00     0.038 A 
ATOM     20  C   UNL d   1      10.930  -2.974   1.907  0.00  0.00     0.026 A 
ATOM     21  C   UNL d   1      11.398  -4.179   1.380  0.00  0.00     0.034 A 
ATOM     22 CL   UNL d   1      13.090  -4.489   1.318  0.00  0.00    -0.084 Cl
ATOM     23  C   UNL d   1      10.501  -5.130   0.904  0.00  0.00     0.026 A 
ATOM     24  C   UNL d   1       9.129  -4.856   0.927  0.00  0.00     0.038 A 
ENDBRANCH  17  18
ENDBRANCH  16  17
ENDBRANCH   2  16
TORSDOF 6
