@<TRIPOS>MOLECULE
*****
 57 61 0 0 0
SMALL
GASTEIGER

@<TRIPOS>ATOM
      1 C           0.8940    0.0585   -0.2889 C.3     1  UNL1       -0.0550
      2 C           2.4155    0.0512   -0.1006 C.3     1  UNL1        0.0054
      3 C           3.0193    0.5329   -1.4213 C.3     1  UNL1       -0.0550
      4 C           2.9306   -1.3728    0.1762 C.3     1  UNL1       -0.0382
      5 C           2.2885   -1.9365    1.4219 C.3     1  UNL1       -0.0118
      6 C           2.6903   -1.0765    2.5888 C.3     1  UNL1       -0.0315
      7 N           2.3078    0.4214    2.3958 N.4     1  UNL1        0.2391
      8 C           0.8694    0.7992    2.8086 C.3     1  UNL1        0.0012
      9 C           0.4157    0.4002    4.1923 C.ar    1  UNL1        0.0811
     10 C           1.2906   -0.0414    5.2022 C.ar    1  UNL1        0.1286
     11 O           2.6477   -0.1771    5.2059 O.3     1  UNL1       -0.5062
     12 C           0.8093   -0.4149    6.4381 C.ar    1  UNL1       -0.0188
     13 C          -0.4838   -0.0898    6.7985 C.ar    1  UNL1       -0.0439
     14 C          -1.4151    0.2686    5.8257 C.ar    1  UNL1        0.0655
     15 C          -2.8562    0.3662    6.2037 C.ar    1  UNL1        0.2041
     16 O          -3.1719    0.2946    7.3636 O.2     1  UNL1       -0.2863
     17 C          -3.8254    0.5186    5.0787 C.ar    1  UNL1        0.1114
     18 C          -5.2669    0.6618    5.2191 C.ar    1  UNL1        0.1180
     19 N          -5.9441    1.6560    4.6502 N.ar    1  UNL1       -0.2387
     20 C          -7.2238    1.5611    5.0999 C.ar    1  UNL1        0.0789
     21 C          -7.8691    2.2546    6.1358 C.ar    1  UNL1       -0.0352
     22 C          -9.1784    1.9030    6.4886 C.ar    1  UNL1       -0.0597
     23 C          -9.9006    1.0395    5.6758 C.ar    1  UNL1       -0.0606
     24 C          -9.2218    0.2548    4.7269 C.ar    1  UNL1       -0.0459
     25 C          -7.8014    0.3483    4.7250 C.ar    1  UNL1        0.0395
     26 S          -6.4382   -0.5717    5.8210 S.2     1  UNL1       -0.0669
     27 C          -3.3024    0.6874    3.8353 C.ar    1  UNL1        0.1977
     28 N          -4.1274    0.8156    2.7330 N.pl3   1  UNL1       -0.3286
     29 O          -1.9276    0.7201    3.5299 O.2     1  UNL1       -0.4402
     30 C          -0.9901    0.4641    4.5155 C.ar    1  UNL1        0.1526
     31 C           2.8277    0.9612    1.0652 C.3     1  UNL1       -0.0263
     32 H           0.5928   -0.5451   -1.1445 H       1  UNL1        0.0237
     33 H           0.5151    1.0803   -0.3898 H       1  UNL1        0.0237
     34 H           0.3627   -0.4050    0.5310 H       1  UNL1        0.0237
     35 H           2.6991   -0.1343   -2.2312 H       1  UNL1        0.0237
     36 H           4.1129    0.5319   -1.4015 H       1  UNL1        0.0237
     37 H           2.6729    1.5416   -1.6671 H       1  UNL1        0.0237
     38 H           4.0216   -1.3518    0.3284 H       1  UNL1        0.0274
     39 H           2.7422   -2.0365   -0.6702 H       1  UNL1        0.0274
     40 H           2.6087   -2.9718    1.5821 H       1  UNL1        0.0317
     41 H           1.1980   -1.9855    1.3623 H       1  UNL1        0.0317
     42 H           3.7764   -1.1024    2.7497 H       1  UNL1        0.0814
     43 H           2.1986   -1.5039    3.4596 H       1  UNL1        0.0814
     44 H           2.8335    1.0291    3.0301 H       1  UNL1        0.2037
     45 H           0.7934    1.8896    2.6943 H       1  UNL1        0.0869
     46 H           0.1780    0.3439    2.1169 H       1  UNL1        0.0869
     47 H           3.1605    0.1619    4.4765 H       1  UNL1        0.2922
     48 H           1.4837   -0.9047    7.1378 H       1  UNL1        0.0654
     49 H          -0.7439   -0.1348    7.8495 H       1  UNL1        0.0627
     50 H          -7.2693    2.9210    6.7371 H       1  UNL1        0.0639
     51 H          -9.6394    2.3489    7.3632 H       1  UNL1        0.0618
     52 H         -10.9916    1.0377    5.7346 H       1  UNL1        0.0618
     53 H          -9.7775    0.0635    3.7988 H       1  UNL1        0.0629
     54 H          -5.0843    1.1306    2.9524 H       1  UNL1        0.1451
     55 H          -3.7617    1.1522    1.8564 H       1  UNL1        0.1451
     56 H           3.9250    0.9891    1.1732 H       1  UNL1        0.0820
     57 H           2.4994    2.0025    0.9583 H       1  UNL1        0.0820
@<TRIPOS>UNITY_ATOM_ATTR
7 1
charge 1
@<TRIPOS>BOND
     1     1     2    1
     2     2     3    1
     3     2     4    1
     4     4     5    1
     5     5     6    1
     6     6     7    1
     7     8     9    1
     8     9    10   ar
     9    10    11    1
    10    10    12   ar
    11    12    13   ar
    12    13    14   ar
    13    14    15   ar
    14    15    16    2
    15    15    17   ar
    16    17    18    1
    17    18    19   ar
    18    19    20   ar
    19    20    21   ar
    20    21    22   ar
    21    22    23   ar
    22    23    24   ar
    23    24    25   ar
    24    20    25   ar
    25    25    26   ar
    26    18    26   ar
    27    17    27   ar
    28    27    28    1
    29    27    29   ar
    30    29    30   ar
    31     9    30   ar
    32    14    30   ar
    33     7    31    1
    34     2    31    1
    35     7     8    1
    36     1    32    1
    37     1    33    1
    38     1    34    1
    39     3    35    1
    40     3    36    1
    41     3    37    1
    42     4    38    1
    43     4    39    1
    44     5    40    1
    45     5    41    1
    46     6    42    1
    47     6    43    1
    48     7    44    1
    49     8    45    1
    50     8    46    1
    51    11    47    1
    52    12    48    1
    53    13    49    1
    54    21    50    1
    55    22    51    1
    56    23    52    1
    57    24    53    1
    58    28    54    1
    59    28    55    1
    60    31    56    1
    61    31    57    1
