REMARK  9 active torsions:
REMARK  status: ('A' for Active; 'I' for Inactive)
REMARK    1  A    between atoms: C_2  and  O_3 
REMARK    2  A    between atoms: O_3  and  C_4 
REMARK    3  A    between atoms: C_4  and  C_6 
REMARK    4  A    between atoms: C_7  and  C_8 
REMARK    5  A    between atoms: C_11  and  O_12 
REMARK    6  A    between atoms: C_13  and  O_14 
REMARK    7  A    between atoms: O_14  and  C_15 
REMARK    8  A    between atoms: C_22  and  C_24 
REMARK    9  A    between atoms: C_22  and  O_23 
ROOT
ATOM      1  C   UNL d   1       5.016  -2.719   0.853  0.00  0.00     0.177 C 
ATOM      2  C   UNL d   1       6.342  -2.533  -0.022  0.00  0.00     0.136 C 
ATOM      3  N   UNL d   1       5.914  -2.676  -1.404  0.00  0.00    -0.358 N 
ATOM      4  C   UNL d   1       5.239  -3.779  -1.825  0.00  0.00     0.170 C 
ATOM      5  S   UNL d   1       5.538  -4.479  -3.299  0.00  0.00    -0.041 SA
ATOM      6  N   UNL d   1       4.289  -4.241  -0.963  0.00  0.00    -0.328 N 
ATOM      7  C   UNL d   1       4.381  -4.099   0.495  0.00  0.00     0.249 C 
ATOM      8  H   UNL d   1       6.307  -2.043  -2.091  0.00  0.00     0.162 HD
ATOM      9  H   UNL d   1       3.616  -4.898  -1.344  0.00  0.00     0.165 HD
ENDROOT
BRANCH   2  10
ATOM     10  C   UNL d   1       7.661  -3.302   0.162  0.00  0.00    -0.032 C 
ATOM     11  C   UNL d   1       7.822  -4.608  -0.348  0.00  0.00     0.012 C 
ATOM     12  C   UNL d   1       8.717  -5.490   0.230  0.00  0.00     0.040 C 
ATOM     13  C   UNL d   1       9.697  -5.005   1.062  0.00  0.00     0.099 C 
ATOM     14  C   UNL d   1       9.750  -3.633   1.364  0.00  0.00     0.102 C 
ATOM     15  C   UNL d   1       8.693  -2.795   0.966  0.00  0.00     0.049 C 
BRANCH  13  16
ATOM     16  O   UNL d   1      10.568  -5.931   1.563  0.00  0.00    -0.358 OA
ATOM     17  H   UNL d   1      10.414  -6.782   1.122  0.00  0.00     0.217 HD
ENDBRANCH  13  16
BRANCH  14  18
ATOM     18  O   UNL d   1      10.749  -3.002   2.062  0.00  0.00    -0.349 OA
BRANCH  18  19
ATOM     19  C   UNL d   1      11.867  -3.843   2.334  0.00  0.00     0.171 C 
ATOM     20  C   UNL d   1      12.978  -3.036   2.942  0.00  0.00     0.034 C 
ENDBRANCH  18  19
ENDBRANCH  14  18
ENDBRANCH   2  10
BRANCH   1  21
ATOM     21  C   UNL d   1       4.303  -1.403   0.514  0.00  0.00     0.270 C 
ATOM     22  O   UNL d   1       4.959  -0.345   0.386  0.00  0.00    -0.265 OA
BRANCH  21  23
ATOM     23  O   UNL d   1       2.959  -1.380   0.384  0.00  0.00    -0.321 OA
BRANCH  23  24
ATOM     24  C   UNL d   1       2.525  -0.048  -0.018  0.00  0.00     0.174 C 
ATOM     25  C   UNL d   1       1.020   0.032  -0.043  0.00  0.00     0.034 C 
ENDBRANCH  23  24
ENDBRANCH  21  23
ENDBRANCH   1  21
BRANCH   7  26
ATOM     26  C   UNL d   1       5.236  -5.233   1.255  0.00  0.00     0.438 C 
ATOM     27  F   UNL d   1       5.236  -6.418   0.600  0.00  0.00    -0.166 F 
ATOM     28  F   UNL d   1       6.498  -4.879   1.473  0.00  0.00    -0.166 F 
ATOM     29  F   UNL d   1       4.806  -5.463   2.520  0.00  0.00    -0.166 F 
ENDBRANCH   7  26
BRANCH   7  30
ATOM     30  O   UNL d   1       3.047  -4.349   0.967  0.00  0.00    -0.363 OA
ATOM     31  H   UNL d   1       2.452  -3.624   0.740  0.00  0.00     0.213 HD
ENDBRANCH   7  30
TORSDOF 9
