REMARK  6 active torsions:
REMARK  status: ('A' for Active; 'I' for Inactive)
REMARK    1  A    between atoms: C_2  and  N_3 
REMARK    2  A    between atoms: C_2  and  C_13 
REMARK       I    between atoms: N_3  and  C_4 
REMARK    3  A    between atoms: C_4  and  C_6 
REMARK       I    between atoms: C_13  and  N_15 
REMARK    4  A    between atoms: N_15  and  N_16 
REMARK       I    between atoms: N_16  and  C_17 
REMARK    5  A    between atoms: C_17  and  C_19 
REMARK    6  A    between atoms: C_19  and  C_20 
ROOT
ATOM      1  C   UNL d   1       3.056   0.488  -1.480  0.00  0.00     0.258 C 
ATOM      2  O   UNL d   1       2.288   0.821  -2.386  0.00  0.00    -0.269 OA
ATOM      3  N   UNL d   1       4.419   0.537  -1.677  0.00  0.00    -0.266 N 
ATOM      4  H   UNL d   1       5.117   0.401  -0.944  0.00  0.00     0.190 HD
ENDROOT
BRANCH   1   5
ATOM      5  C   UNL d   1       2.568   0.054  -0.057  0.00  0.00     0.174 C 
ATOM      6  C   UNL d   1       1.034   0.097  -0.048  0.00  0.00     0.042 C 
BRANCH   5   7
ATOM      7  N   UNL d   1       3.077  -1.270   0.358  0.00  0.00    -0.344 N 
ATOM      8  C   UNL d   1       2.715  -1.860   1.562  0.00  0.00     0.252 C 
ATOM      9  O   UNL d   1       2.006  -1.327   2.412  0.00  0.00    -0.268 OA
ATOM     10  H   UNL d   1       3.566  -1.829  -0.331  0.00  0.00     0.163 HD
BRANCH   8  11
ATOM     11  C   UNL d   1       3.211  -3.239   1.813  0.00  0.00     0.032 A 
ATOM     12  C   UNL d   1       4.552  -3.549   1.571  0.00  0.00     0.018 A 
ATOM     13  C   UNL d   1       5.031  -4.837   1.829  0.00  0.00     0.025 A 
ATOM     14  C   UNL d   1       4.173  -5.815   2.331  0.00  0.00     0.034 A 
ATOM     15 CL   UNL d   1       4.767  -7.406   2.608  0.00  0.00    -0.084 Cl
ATOM     16  C   UNL d   1       2.841  -5.508   2.608  0.00  0.00     0.025 A 
ATOM     17  C   UNL d   1       2.360  -4.215   2.359  0.00  0.00     0.018 A 
ENDBRANCH   8  11
ENDBRANCH   5   7
ENDBRANCH   1   5
BRANCH   3  18
ATOM     18  N   UNL d   1       4.926   0.926  -2.952  0.00  0.00    -0.267 N 
ATOM     19  C   UNL d   1       6.288   1.099  -3.046  0.00  0.00     0.236 C 
ATOM     20  O   UNL d   1       6.971   0.968  -2.029  0.00  0.00    -0.272 OA
ATOM     21  H   UNL d   1       4.251   1.183  -3.671  0.00  0.00     0.190 HD
BRANCH  19  22
ATOM     22  C   UNL d   1       6.855   1.435  -4.435  0.00  0.00     0.109 C 
BRANCH  22  23
ATOM     23  C   UNL d   1       8.407   1.450  -4.495  0.00  0.00    -0.006 C 
ATOM     24  C   UNL d   1       8.957   2.728  -3.839  0.00  0.00     0.005 C 
ATOM     25  C   UNL d   1      10.479   2.729  -3.729  0.00  0.00     0.000 C 
ATOM     26  C   UNL d   1      10.985   1.473  -3.033  0.00  0.00     0.000 C 
ATOM     27  C   UNL d   1      10.538   0.221  -3.780  0.00  0.00     0.000 C 
ATOM     28  C   UNL d   1       9.024   0.169  -3.901  0.00  0.00     0.005 C 
ENDBRANCH  22  23
ENDBRANCH  19  22
ENDBRANCH   3  18
TORSDOF 6
