@<TRIPOS>MOLECULE
*****
 47 48 0 0 0
SMALL
GASTEIGER

@<TRIPOS>ATOM
      1 C           2.5149   -0.0342   -0.0102 C.3     1  UNL1       -0.0397
      2 C           1.0201   -0.0278    0.0070 C.ar    1  UNL1       -0.0503
      3 C           0.2540   -1.1990    0.0034 C.ar    1  UNL1       -0.0571
      4 C          -1.1486   -1.1271   -0.0273 C.ar    1  UNL1       -0.0402
      5 C          -1.7865    0.1235   -0.0608 C.ar    1  UNL1        0.0334
      6 N          -3.1942    0.2008   -0.1444 N.am    1  UNL1       -0.2853
      7 C          -3.9569    1.3587   -0.1003 C.2     1  UNL1        0.2208
      8 O          -3.4972    2.5035   -0.1278 O.2     1  UNL1       -0.2751
      9 C          -5.4834    1.2032   -0.0684 C.3     1  UNL1        0.0420
     10 C          -6.0979    2.4905    0.5544 C.3     1  UNL1       -0.0404
     11 C          -7.3709    2.0959    1.3001 C.3     1  UNL1       -0.0381
     12 C          -7.5661    0.5870    1.0508 C.3     1  UNL1        0.0512
     13 C          -8.1807   -0.0926    2.2885 C.3     1  UNL1       -0.0507
     14 C          -8.5405    0.4257   -0.1566 C.2     1  UNL1        0.2327
     15 O          -8.1988    0.0242   -1.2745 O.2     1  UNL1       -0.2739
     16 N          -9.8577    0.8134    0.0451 N.am    1  UNL1       -0.2531
     17 N         -10.8024    0.5372   -0.9745 N.3     1  UNL1       -0.2544
     18 C          -6.0915    0.0586    0.7755 C.3     1  UNL1       -0.0101
     19 C          -6.0843   -1.3081    0.0568 C.3     1  UNL1       -0.0582
     20 C          -5.2900   -0.1112    2.0962 C.3     1  UNL1       -0.0582
     21 C          -1.0061    1.2713   -0.0120 C.ar    1  UNL1       -0.0402
     22 C           0.3757    1.2041    0.0115 C.ar    1  UNL1       -0.0571
     23 H           2.9158   -1.0498    0.0015 H       1  UNL1        0.0278
     24 H           2.8962    0.5019    0.8652 H       1  UNL1        0.0278
     25 H           2.8707    0.4690   -0.9162 H       1  UNL1        0.0278
     26 H           0.7461   -2.1699    0.0116 H       1  UNL1        0.0621
     27 H          -1.7105   -2.0594   -0.0291 H       1  UNL1        0.0636
     28 H          -3.6539   -0.6914   -0.1609 H       1  UNL1        0.1548
     29 H          -5.8144    1.1447   -1.1134 H       1  UNL1        0.0400
     30 H          -6.3077    3.2417   -0.2166 H       1  UNL1        0.0273
     31 H          -5.4154    2.9721    1.2689 H       1  UNL1        0.0273
     32 H          -8.2122    2.7085    0.9565 H       1  UNL1        0.0275
     33 H          -7.2451    2.3189    2.3677 H       1  UNL1        0.0275
     34 H          -9.1824    0.2750    2.5214 H       1  UNL1        0.0240
     35 H          -7.5874    0.0859    3.1924 H       1  UNL1        0.0240
     36 H          -8.2480   -1.1745    2.1368 H       1  UNL1        0.0240
     37 H         -10.1882    1.1688    0.9384 H       1  UNL1        0.1687
     38 H         -10.2745    0.0813   -1.7378 H       1  UNL1        0.1405
     39 H         -11.1030    1.4229   -1.3867 H       1  UNL1        0.1405
     40 H          -6.5317   -1.2855   -0.9362 H       1  UNL1        0.0235
     41 H          -6.6070   -2.0590    0.6541 H       1  UNL1        0.0235
     42 H          -5.0890   -1.7093   -0.1183 H       1  UNL1        0.0235
     43 H          -5.2466    0.8174    2.6749 H       1  UNL1        0.0235
     44 H          -4.2594   -0.4279    1.9258 H       1  UNL1        0.0235
     45 H          -5.7183   -0.8970    2.7237 H       1  UNL1        0.0235
     46 H          -1.4340    2.2627   -0.0065 H       1  UNL1        0.0636
     47 H           0.9316    2.1368    0.0180 H       1  UNL1        0.0621
@<TRIPOS>BOND
     1     1     2    1
     2     2     3   ar
     3     3     4   ar
     4     4     5   ar
     5     5     6    1
     6     6     7   am
     7     7     8    2
     8     7     9    1
     9     9    10    1
    10    10    11    1
    11    11    12    1
    12    12    13    1
    13    12    14    1
    14    14    15    2
    15    14    16   am
    16    16    17    1
    17    12    18    1
    18     9    18    1
    19    18    19    1
    20    18    20    1
    21     5    21   ar
    22    21    22   ar
    23     2    22   ar
    24     1    23    1
    25     1    24    1
    26     1    25    1
    27     3    26    1
    28     4    27    1
    29     6    28    1
    30     9    29    1
    31    10    30    1
    32    10    31    1
    33    11    32    1
    34    11    33    1
    35    13    34    1
    36    13    35    1
    37    13    36    1
    38    16    37    1
    39    17    38    1
    40    17    39    1
    41    19    40    1
    42    19    41    1
    43    19    42    1
    44    20    43    1
    45    20    44    1
    46    20    45    1
    47    21    46    1
    48    22    47    1
