@<TRIPOS>MOLECULE
*****
 51 54 0 0 0
SMALL
GASTEIGER

@<TRIPOS>ATOM
      1 O           1.1518   -0.0549   -0.0536 O.2     1  UNL1       -0.2697
      2 C           2.3852   -0.0822    0.0176 C.2     1  UNL1        0.2537
      3 C           3.1644    0.9948   -0.6469 C.ar    1  UNL1        0.1194
      4 C           2.7961    2.3413   -0.5482 C.ar    1  UNL1        0.1325
      5 O           1.6808    2.7731    0.1175 O.3     1  UNL1       -0.5059
      6 C           3.5827    3.3305   -1.1464 C.ar    1  UNL1       -0.0192
      7 C           4.7301    2.9825   -1.8630 C.ar    1  UNL1       -0.0548
      8 C           5.0735    1.6430   -2.0174 C.ar    1  UNL1       -0.0192
      9 C           4.2768    0.6587   -1.4371 C.ar    1  UNL1        0.1325
     10 O           4.5688   -0.6516   -1.7000 O.3     1  UNL1       -0.5059
     11 N           3.1044   -1.0866    0.6480 N.am    1  UNL1       -0.2973
     12 C           4.2248   -0.7911    1.5380 C.3     1  UNL1        0.0156
     13 C           5.4743   -1.5940    1.1708 C.3     1  UNL1       -0.0288
     14 C           5.1892   -3.1019    0.9976 C.3     1  UNL1        0.0036
     15 C           4.9921   -3.7259    2.3441 C.ar    1  UNL1        0.0395
     16 C           4.0191   -3.4614    3.2643 C.ar    1  UNL1       -0.0174
     17 C           4.2815   -4.2211    4.4030 C.ar    1  UNL1        0.0673
     18 C           3.4700   -4.2370    5.6649 C.3     1  UNL1        0.0166
     19 C           2.2405   -3.3416    5.4927 C.ar    1  UNL1       -0.0415
     20 C           2.0316   -2.2358    6.3306 C.ar    1  UNL1       -0.0582
     21 C           0.8589   -1.4774    6.2281 C.ar    1  UNL1       -0.0615
     22 C          -0.0679   -1.7414    5.2204 C.ar    1  UNL1       -0.0617
     23 C           0.1463   -2.7998    4.3454 C.ar    1  UNL1       -0.0615
     24 C           1.2646   -3.6183    4.5105 C.ar    1  UNL1       -0.0582
     25 N           5.3921   -4.9550    4.2174 N.ar    1  UNL1       -0.1783
     26 N           5.8012   -4.6388    2.9617 N.ar    1  UNL1       -0.2811
     27 C           3.9581   -3.3251    0.0842 C.3     1  UNL1       -0.0288
     28 C           2.7282   -2.4864    0.4833 C.3     1  UNL1        0.0156
     29 H           1.1285    1.9915    0.3289 H       1  UNL1        0.2922
     30 H           3.3006    4.3772   -1.0600 H       1  UNL1        0.0654
     31 H           5.3426    3.7540   -2.3230 H       1  UNL1        0.0620
     32 H           5.9456    1.3789   -2.6074 H       1  UNL1        0.0654
     33 H           5.4364   -0.7188   -2.1274 H       1  UNL1        0.2922
     34 H           3.8967   -1.0150    2.5556 H       1  UNL1        0.0465
     35 H           4.4355    0.2813    1.5683 H       1  UNL1        0.0465
     36 H           6.2501   -1.4305    1.9287 H       1  UNL1        0.0287
     37 H           5.8842   -1.2051    0.2353 H       1  UNL1        0.0287
     38 H           6.0634   -3.5654    0.5203 H       1  UNL1        0.0365
     39 H           3.2029   -2.7737    3.1539 H       1  UNL1        0.0654
     40 H           4.0861   -3.8835    6.4988 H       1  UNL1        0.0377
     41 H           3.1249   -5.2505    5.8877 H       1  UNL1        0.0377
     42 H           2.7714   -1.9580    7.0781 H       1  UNL1        0.0620
     43 H           0.6619   -0.6806    6.9412 H       1  UNL1        0.0618
     44 H          -0.9562   -1.1234    5.1167 H       1  UNL1        0.0618
     45 H          -0.5590   -2.9974    3.5417 H       1  UNL1        0.0618
     46 H           1.4090   -4.4439    3.8150 H       1  UNL1        0.0620
     47 H           6.6491   -5.0711    2.6082 H       1  UNL1        0.1885
     48 H           3.6924   -4.3886    0.0483 H       1  UNL1        0.0287
     49 H           4.2400   -3.0484   -0.9399 H       1  UNL1        0.0287
     50 H           2.2775   -2.8496    1.4072 H       1  UNL1        0.0465
     51 H           1.9439   -2.5845   -0.2753 H       1  UNL1        0.0465
@<TRIPOS>BOND
     1     1     2    2
     2     2     3    1
     3     3     4   ar
     4     4     5    1
     5     4     6   ar
     6     6     7   ar
     7     7     8   ar
     8     8     9   ar
     9     3     9   ar
    10     9    10    1
    11     2    11   am
    12    11    12    1
    13    12    13    1
    14    13    14    1
    15    14    15    1
    16    15    16   ar
    17    16    17   ar
    18    17    18    1
    19    18    19    1
    20    19    20   ar
    21    20    21   ar
    22    21    22   ar
    23    22    23   ar
    24    23    24   ar
    25    19    24   ar
    26    17    25   ar
    27    25    26   ar
    28    15    26   ar
    29    14    27    1
    30    27    28    1
    31    11    28    1
    32     5    29    1
    33     6    30    1
    34     7    31    1
    35     8    32    1
    36    10    33    1
    37    12    34    1
    38    12    35    1
    39    13    36    1
    40    13    37    1
    41    14    38    1
    42    16    39    1
    43    18    40    1
    44    18    41    1
    45    20    42    1
    46    21    43    1
    47    22    44    1
    48    23    45    1
    49    24    46    1
    50    26    47    1
    51    27    48    1
    52    27    49    1
    53    28    50    1
    54    28    51    1
