@<TRIPOS>MOLECULE
*****
 44 47 0 0 0
SMALL
GASTEIGER

@<TRIPOS>ATOM
      1 C           0.9904   -0.0074   -0.0764 C.3     1  UNL1        0.0789
      2 O           2.4224   -0.0341   -0.0226 O.3     1  UNL1       -0.4930
      3 C           3.0386   -0.2296   -1.2342 C.ar    1  UNL1        0.1440
      4 C           2.6681    0.5075   -2.3586 C.ar    1  UNL1       -0.0176
      5 C           3.3620    0.3608   -3.5615 C.ar    1  UNL1       -0.0553
      6 C           4.4497   -0.5086   -3.6582 C.ar    1  UNL1       -0.0483
      7 C           5.1765   -0.6931   -4.9570 C.3     1  UNL1       -0.0396
      8 C           4.8582   -1.2059   -2.5193 C.ar    1  UNL1       -0.0312
      9 C           4.1657   -1.0699   -1.3048 C.ar    1  UNL1        0.0944
     10 N           4.6276   -1.8092   -0.2059 N.ar    1  UNL1       -0.2438
     11 C           3.9566   -2.6879    0.5646 C.ar    1  UNL1        0.1428
     12 C           2.4865   -2.9584    0.3863 C.3     1  UNL1        0.0359
     13 C           2.0267   -4.0772    1.2335 C.2     1  UNL1        0.0150
     14 C           1.5888   -5.2522    0.7937 C.ar    1  UNL1        0.0513
     15 C           1.3771   -5.7822   -0.5067 C.ar    1  UNL1       -0.0481
     16 C           0.9980   -7.0619   -0.6084 C.ar    1  UNL1       -0.0608
     17 C           0.8154   -7.8924    0.5737 C.ar    1  UNL1       -0.0555
     18 C           0.9936   -7.4542    1.8373 C.ar    1  UNL1        0.0098
     19 C           1.3963   -6.0485    2.0141 C.ar    1  UNL1        0.2086
     20 N           1.6437   -5.3785    3.0767 N.2     1  UNL1       -0.2369
     21 C           2.0531   -4.0035    2.7312 C.3     1  UNL1        0.1664
     22 N           4.6941   -3.3213    1.4398 N.ar    1  UNL1       -0.1558
     23 N           5.9437   -2.8221    1.2349 N.ar    1  UNL1       -0.2263
     24 C           5.9361   -1.8853    0.2073 C.ar    1  UNL1        0.3488
     25 O           6.9166   -1.2685   -0.1881 O.2     1  UNL1       -0.2446
     26 H           0.6288    0.0433    0.9567 H       1  UNL1        0.0660
     27 H           0.5971   -0.9334   -0.5150 H       1  UNL1        0.0660
     28 H           0.6018    0.8581   -0.6130 H       1  UNL1        0.0660
     29 H           1.8705    1.2419   -2.3131 H       1  UNL1        0.0655
     30 H           3.0569    0.9519   -4.4221 H       1  UNL1        0.0621
     31 H           4.7592   -0.0488   -5.7373 H       1  UNL1        0.0278
     32 H           5.0849   -1.7308   -5.2943 H       1  UNL1        0.0278
     33 H           6.2356   -0.4419   -4.8428 H       1  UNL1        0.0278
     34 H           5.7101   -1.8825   -2.5898 H       1  UNL1        0.0642
     35 H           2.2866   -3.1379   -0.6768 H       1  UNL1        0.0392
     36 H           1.9115   -2.1046    0.7093 H       1  UNL1        0.0392
     37 H           1.5176   -5.1610   -1.3853 H       1  UNL1        0.0626
     38 H           0.8302   -7.4990   -1.5902 H       1  UNL1        0.0618
     39 H           0.5223   -8.9219    0.3787 H       1  UNL1        0.0620
     40 H           0.8567   -8.1104    2.6871 H       1  UNL1        0.0683
     41 H           1.6034   -5.7611    4.0183 H       1  UNL1        0.4459
     42 H           3.0399   -3.8189    3.1566 H       1  UNL1        0.1077
     43 H           1.3186   -3.2967    3.1299 H       1  UNL1        0.1077
     44 H           6.7601   -3.1042    1.7619 H       1  UNL1        0.1937
@<TRIPOS>UNITY_ATOM_ATTR
20 1
charge 1
@<TRIPOS>BOND
     1     1     2    1
     2     2     3    1
     3     3     4   ar
     4     4     5   ar
     5     5     6   ar
     6     6     7    1
     7     6     8   ar
     8     8     9   ar
     9     3     9   ar
    10     9    10    1
    11    10    11   ar
    12    11    12    1
    13    12    13    1
    14    13    14    2
    15    14    15   ar
    16    15    16   ar
    17    16    17   ar
    18    17    18   ar
    19    18    19   ar
    20    14    19   ar
    21    19    20    2
    22    20    21    1
    23    13    21    1
    24    11    22   ar
    25    22    23   ar
    26    23    24   ar
    27    10    24   ar
    28    24    25    2
    29     1    26    1
    30     1    27    1
    31     1    28    1
    32     4    29    1
    33     5    30    1
    34     7    31    1
    35     7    32    1
    36     7    33    1
    37     8    34    1
    38    12    35    1
    39    12    36    1
    40    15    37    1
    41    16    38    1
    42    17    39    1
    43    18    40    1
    44    20    41    1
    45    21    42    1
    46    21    43    1
    47    23    44    1
