@<TRIPOS>MOLECULE
*****
 68 69 0 0 0
SMALL
GASTEIGER

@<TRIPOS>ATOM
      1 C           6.8840    0.1313   -0.8025 C.3     1  UNL1       -0.0653
      2 C           7.1449    1.5530   -1.3261 C.3     1  UNL1       -0.0559
      3 C           8.4416    2.2346   -0.6969 C.3     1  UNL1       -0.0532
      4 C           8.6212    3.7814   -0.6458 C.3     1  UNL1       -0.0500
      5 C           9.8183    4.3189    0.1307 C.3     1  UNL1       -0.0186
      6 C           9.9005    5.8375   -0.0730 C.3     1  UNL1        0.0896
      7 O          10.8597    6.2846    0.8825 O.3     1  UNL1       -0.4912
      8 C          11.0494    7.6312    0.9573 C.ar    1  UNL1        0.1326
      9 C          12.3682    8.0634    0.7004 C.ar    1  UNL1       -0.0192
     10 C          12.7490    9.3965    0.8816 C.ar    1  UNL1       -0.0583
     11 C          11.7928   10.3331    1.2336 C.ar    1  UNL1       -0.0608
     12 C          10.4888    9.9076    1.4935 C.ar    1  UNL1       -0.0461
     13 C          10.0995    8.5431    1.4147 C.ar    1  UNL1        0.0786
     14 C           8.6804    8.2614    1.8078 C.2     1  UNL1        0.2530
     15 O           7.9871    9.2732    1.9102 O.2     1  UNL1       -0.2697
     16 N           8.1992    6.9575    2.0692 N.am    1  UNL1       -0.2635
     17 C           6.8571    6.5883    1.8266 C.2     1  UNL1        0.1401
     18 S           5.6060    7.7319    1.7403 S.2     1  UNL1       -0.0183
     19 N           6.6279    5.2151    1.5202 N.am    1  UNL1       -0.2988
     20 C           5.3690    4.8363    0.7301 C.3     1  UNL1        0.0301
     21 C           5.6151    3.6643   -0.1244 C.3     1  UNL1        0.0274
     22 N           6.0382    2.5900    0.8321 N.am    1  UNL1       -0.3123
     23 C           7.0775    2.7106    1.7170 C.2     1  UNL1        0.2341
     24 O           7.6402    1.7183    2.1887 O.2     1  UNL1       -0.2738
     25 C           7.1913    4.0882    2.3365 C.3     1  UNL1        0.1113
     26 C           6.4117    3.7350    3.5886 C.3     1  UNL1        0.0720
     27 C           5.0775    4.4388    3.7100 C.2     1  UNL1        0.3096
     28 O           4.6270    5.3402    3.0819 O.2     1  UNL1       -0.2508
     29 O           4.2387    3.9392    4.6026 O.3     1  UNL1       -0.4616
     30 C           4.7200    3.1421    5.6449 C.3     1  UNL1        0.1000
     31 C           4.0054    1.8496    5.3701 C.3     1  UNL1       -0.0277
     32 C           4.3210    3.9336    6.8620 C.3     1  UNL1       -0.0188
     33 C           5.0691    5.2738    6.9208 C.3     1  UNL1       -0.0619
     34 H           5.8720   -0.1995   -1.0895 H       1  UNL1        0.0230
     35 H           6.8739    0.0546    0.2966 H       1  UNL1        0.0230
     36 H           7.6359   -0.5505   -1.1728 H       1  UNL1        0.0230
     37 H           6.1465    1.9394   -1.1687 H       1  UNL1        0.0263
     38 H           7.1214    1.7212   -2.4021 H       1  UNL1        0.0263
     39 H           9.2938    1.8173   -1.2232 H       1  UNL1        0.0265
     40 H           8.6382    1.8671    0.3070 H       1  UNL1        0.0265
     41 H           7.8491    4.2637   -0.0806 H       1  UNL1        0.0266
     42 H           8.5387    4.2355   -1.6328 H       1  UNL1        0.0266
     43 H          10.7422    3.8312   -0.1665 H       1  UNL1        0.0298
     44 H           9.7378    4.1213    1.2127 H       1  UNL1        0.0298
     45 H           8.9183    6.2906    0.0706 H       1  UNL1        0.0696
     46 H          10.1655    6.0976   -1.0986 H       1  UNL1        0.0696
     47 H          13.1194    7.3517    0.3635 H       1  UNL1        0.0654
     48 H          13.7856    9.7029    0.7570 H       1  UNL1        0.0619
     49 H          12.0528   11.3862    1.3221 H       1  UNL1        0.0618
     50 H           9.7646   10.6682    1.7904 H       1  UNL1        0.0626
     51 H           8.9016    6.2321    2.0854 H       1  UNL1        0.1568
     52 H           4.9179    5.6539    0.1764 H       1  UNL1        0.0480
     53 H           4.5952    4.3696    1.3394 H       1  UNL1        0.0480
     54 H           6.3102    3.9452   -0.9278 H       1  UNL1        0.0477
     55 H           4.7322    3.3330   -0.6790 H       1  UNL1        0.0477
     56 H           5.8240    1.6224    0.6549 H       1  UNL1        0.1488
     57 H           8.2441    4.2667    2.5845 H       1  UNL1        0.0602
     58 H           6.1567    2.6520    3.6117 H       1  UNL1        0.0401
     59 H           7.0909    3.8612    4.4321 H       1  UNL1        0.0401
     60 H           5.8018    2.9824    5.6744 H       1  UNL1        0.0731
     61 H           2.9306    2.0363    5.2683 H       1  UNL1        0.0265
     62 H           4.2116    1.1276    6.1504 H       1  UNL1        0.0265
     63 H           4.3212    1.4448    4.3954 H       1  UNL1        0.0265
     64 H           4.5336    3.3369    7.7455 H       1  UNL1        0.0298
     65 H           3.2489    4.1533    6.8045 H       1  UNL1        0.0298
     66 H           6.1545    5.1249    6.9182 H       1  UNL1        0.0231
     67 H           4.7890    5.8073    7.8307 H       1  UNL1        0.0231
     68 H           4.8311    5.9317    6.0734 H       1  UNL1        0.0231
@<TRIPOS>BOND
     1     1     2    1
     2     2     3    1
     3     3     4    1
     4     4     5    1
     5     5     6    1
     6     6     7    1
     7     7     8    1
     8     8     9   ar
     9     9    10   ar
    10    10    11   ar
    11    11    12   ar
    12    12    13   ar
    13     8    13   ar
    14    13    14    1
    15    14    15    2
    16    14    16   am
    17    16    17    1
    18    17    18    2
    19    17    19    1
    20    19    20    1
    21    20    21    1
    22    21    22    1
    23    22    23   am
    24    23    24    2
    25    23    25    1
    26    19    25    1
    27    26    27    1
    28    27    28    2
    29    27    29    1
    30    30    32    1
    31    32    33    1
    32    25    26    1
    33    30    31    1
    34    30    29    1
    35     1    34    1
    36     1    35    1
    37     1    36    1
    38     2    37    1
    39     2    38    1
    40     3    39    1
    41     3    40    1
    42     4    41    1
    43     4    42    1
    44     5    43    1
    45     5    44    1
    46     6    45    1
    47     6    46    1
    48     9    47    1
    49    10    48    1
    50    11    49    1
    51    12    50    1
    52    16    51    1
    53    20    52    1
    54    20    53    1
    55    21    54    1
    56    21    55    1
    57    22    56    1
    58    25    57    1
    59    26    58    1
    60    26    59    1
    61    30    60    1
    62    31    61    1
    63    31    62    1
    64    31    63    1
    65    32    64    1
    66    32    65    1
    67    33    66    1
    68    33    67    1
    69    33    68    1
