@<TRIPOS>MOLECULE
*****
 43 44 0 0 0
SMALL
GASTEIGER

@<TRIPOS>ATOM
      1 C           2.7661   -2.0110    1.6668 C.3     1  UNL1        0.0125
      2 C           3.9559   -1.1192    1.3720 C.2     1  UNL1        0.2141
      3 O           3.7925    0.0234    1.7944 O.2     1  UNL1       -0.2758
      4 N           5.0049   -1.6387    0.5514 N.am    1  UNL1       -0.2855
      5 C           6.3208   -1.0238    0.2450 C.ar    1  UNL1        0.0370
      6 C           7.3493   -0.9236    1.1944 C.ar    1  UNL1       -0.0281
      7 C           8.5652   -0.2571    1.1849 C.ar    1  UNL1        0.0385
      8 C           9.3203   -0.0665    2.5016 C.2     1  UNL1        0.2453
      9 O          10.4364    0.4570    2.4688 O.2     1  UNL1       -0.2702
     10 N           8.8288   -0.4051    3.7729 N.am    1  UNL1       -0.2922
     11 C           7.5799   -1.0104    4.3092 C.3     1  UNL1        0.1363
     12 C           6.3992   -0.4501    3.6821 C.1     1  UNL1        0.0898
     13 N           5.7278    0.1898    3.0552 N.1     1  UNL1       -0.1942
     14 C           7.6772   -2.5129    4.5177 C.ar    1  UNL1       -0.0104
     15 C           8.3458   -2.8498    5.7083 C.ar    1  UNL1       -0.0556
     16 C           8.5285   -4.1738    6.0795 C.ar    1  UNL1       -0.0614
     17 C           8.0709   -5.1992    5.2649 C.ar    1  UNL1       -0.0615
     18 C           7.4143   -4.9066    4.0871 C.ar    1  UNL1       -0.0585
     19 C           7.1965   -3.5823    3.7055 C.ar    1  UNL1       -0.0445
     20 C           6.4612   -3.4872    2.4096 C.3     1  UNL1       -0.0394
     21 C           8.9663    0.1376   -0.0709 C.ar    1  UNL1       -0.0493
     22 C           8.1009   -0.1372   -1.1705 C.ar    1  UNL1       -0.0564
     23 C           6.7851   -0.7132   -1.0188 C.ar    1  UNL1       -0.0292
     24 C           5.8992   -0.9528   -2.1967 C.3     1  UNL1       -0.0380
     25 H           2.2440   -1.5981    2.5517 H       1  UNL1        0.0323
     26 H           3.0009   -3.0451    1.9126 H       1  UNL1        0.0323
     27 H           2.0730   -1.9113    0.8299 H       1  UNL1        0.0323
     28 H           4.6803   -2.3249   -0.1185 H       1  UNL1        0.1548
     29 H           7.3200   -1.5209    2.0560 H       1  UNL1        0.0644
     30 H           9.4873   -0.1741    4.5061 H       1  UNL1        0.1506
     31 H           7.4199   -0.5564    5.3000 H       1  UNL1        0.0709
     32 H           8.7177   -2.0623    6.3647 H       1  UNL1        0.0621
     33 H           9.0322   -4.4010    7.0109 H       1  UNL1        0.0618
     34 H           8.2183   -6.2357    5.5393 H       1  UNL1        0.0618
     35 H           7.0542   -5.7131    3.4496 H       1  UNL1        0.0620
     36 H           6.0566   -4.4136    1.9994 H       1  UNL1        0.0278
     37 H           7.1778   -3.2349    1.6293 H       1  UNL1        0.0278
     38 H           5.6138   -2.8197    2.5519 H       1  UNL1        0.0278
     39 H           9.9409    0.6013   -0.2141 H       1  UNL1        0.0625
     40 H           8.4585    0.1231   -2.1663 H       1  UNL1        0.0621
     41 H           6.3742   -0.6341   -3.1258 H       1  UNL1        0.0278
     42 H           4.9691   -0.3920   -2.0617 H       1  UNL1        0.0278
     43 H           5.6645   -2.0209   -2.2736 H       1  UNL1        0.0278
@<TRIPOS>BOND
     1     1     2    1
     2     2     3    2
     3     2     4   am
     4     4     5    1
     5     5     6   ar
     6     6     7   ar
     7     7     8    1
     8     8     9    2
     9     8    10   am
    10    12    13    3
    11    11    14    1
    12    14    15   ar
    13    15    16   ar
    14    16    17   ar
    15    17    18   ar
    16    18    19   ar
    17    14    19   ar
    18    19    20    1
    19     7    21   ar
    20    21    22   ar
    21    22    23   ar
    22     5    23   ar
    23    23    24    1
    24    11    12    1
    25    11    10    1
    26     1    25    1
    27     1    26    1
    28     1    27    1
    29     4    28    1
    30     6    29    1
    31    10    30    1
    32    11    31    1
    33    15    32    1
    34    16    33    1
    35    17    34    1
    36    18    35    1
    37    20    36    1
    38    20    37    1
    39    20    38    1
    40    21    39    1
    41    22    40    1
    42    24    41    1
    43    24    42    1
    44    24    43    1
