REMARK  10 active torsions:
REMARK  status: ('A' for Active; 'I' for Inactive)
REMARK    1  A    between atoms: C_2  and  C_3 
REMARK    2  A    between atoms: C_3  and  C_4 
REMARK    3  A    between atoms: C_4  and  C_5 
REMARK    4  A    between atoms: C_5  and  N_6 
REMARK       I    between atoms: N_6  and  C_7 
REMARK       I    between atoms: C_7  and  N_9 
REMARK    5  A    between atoms: N_9  and  N_10 
REMARK       I    between atoms: N_10  and  C_11 
REMARK    6  A    between atoms: C_11  and  C_13 
REMARK    7  A    between atoms: C_15  and  O_16 
REMARK    8  A    between atoms: O_16  and  C_17 
REMARK    9  A    between atoms: C_19  and  O_20 
REMARK   10  A    between atoms: C_23  and  N_24 
ROOT
ATOM      1  N   UNL d   1       9.450  -3.948   3.658  0.00  0.00    -0.262 N 
ATOM      2  C   UNL d   1      10.833  -4.076   3.517  0.00  0.00     0.272 C 
ATOM      3  O   UNL d   1      11.494  -3.316   2.812  0.00  0.00    -0.266 OA
ATOM      4  H   UNL d   1       8.899  -4.742   3.991  0.00  0.00     0.190 HD
ENDROOT
BRANCH   2   5
ATOM      5  C   UNL d   1      11.569  -5.182   4.266  0.00  0.00     0.069 A 
ATOM      6  C   UNL d   1      12.830  -4.842   4.850  0.00  0.00     0.059 A 
ATOM      7  C   UNL d   1      13.722  -5.818   5.382  0.00  0.00     0.103 A 
ATOM      8  C   UNL d   1      13.304  -7.154   5.448  0.00  0.00     0.103 A 
ATOM      9  C   UNL d   1      12.086  -7.503   4.878  0.00  0.00     0.076 A 
ATOM     10  C   UNL d   1      11.220  -6.544   4.291  0.00  0.00     0.121 A 
BRANCH   7  11
ATOM     11  O   UNL d   1      14.975  -5.356   5.760  0.00  0.00    -0.349 OA
BRANCH  11  12
ATOM     12  C   UNL d   1      15.969  -6.354   6.072  0.00  0.00     0.171 C 
ATOM     13  C   UNL d   1      17.337  -5.747   6.301  0.00  0.00     0.034 C 
ENDBRANCH  11  12
ENDBRANCH   7  11
BRANCH   8  14
ATOM     14  O   UNL d   1      14.101  -8.057   6.087  0.00  0.00    -0.353 OA
ATOM     15  C   UNL d   1      13.715  -9.413   6.215  0.00  0.00     0.210 C 
ENDBRANCH   8  14
BRANCH  10  16
ATOM     16  N   UNL d   1       9.985  -7.107   3.728  0.00  0.00    -0.115 N 
ATOM     17  O   UNL d   1       9.796  -8.321   3.850  0.00  0.00    -0.532 OA
ATOM     18  O   UNL d   1       9.175  -6.351   3.186  0.00  0.00    -0.532 OA
ENDBRANCH  10  16
ENDBRANCH   2   5
BRANCH   1  19
ATOM     19  N   UNL d   1       8.689  -3.124   2.750  0.00  0.00    -0.249 N 
ATOM     20  C   UNL d   1       7.304  -3.266   2.741  0.00  0.00     0.334 C 
ATOM     21  N   UNL d   1       6.635  -2.367   1.932  0.00  0.00    -0.342 N 
ATOM     22  O   UNL d   1       6.720  -4.093   3.439  0.00  0.00    -0.246 OA
ATOM     23  H   UNL d   1       7.160  -1.689   1.403  0.00  0.00     0.164 HD
ATOM     24  H   UNL d   1       9.212  -2.545   2.103  0.00  0.00     0.192 HD
BRANCH  21  25
ATOM     25  C   UNL d   1       5.170  -2.313   1.901  0.00  0.00     0.124 C 
BRANCH  25  26
ATOM     26  C   UNL d   1       4.614  -1.207   0.993  0.00  0.00     0.020 C 
BRANCH  26  27
ATOM     27  C   UNL d   1       3.077  -1.188   0.981  0.00  0.00     0.001 C 
BRANCH  27  28
ATOM     28  C   UNL d   1       2.533  -0.083   0.070  0.00  0.00    -0.004 C 
ATOM     29  C   UNL d   1       1.012  -0.073   0.062  0.00  0.00     0.005 C 
ENDBRANCH  27  28
ENDBRANCH  26  27
ENDBRANCH  25  26
ENDBRANCH  21  25
ENDBRANCH   1  19
TORSDOF 10
