@<TRIPOS>MOLECULE
*****
 67 69 0 0 0
SMALL
GASTEIGER

@<TRIPOS>ATOM
      1 C           0.9231   -0.0616   -0.0120 C.3     1  UNL1       -0.0652
      2 C           2.4459   -0.0834    0.0096 C.3     1  UNL1       -0.0528
      3 C           2.9619   -0.8423    1.2375 C.3     1  UNL1       -0.0189
      4 C           4.4926   -0.8981    1.3104 C.3     1  UNL1        0.0896
      5 O           4.8861   -1.7078    2.4411 O.3     1  UNL1       -0.4917
      6 C           6.2322   -1.8002    2.6894 C.ar    1  UNL1        0.1234
      7 C           7.0095   -0.6979    2.9310 C.ar    1  UNL1       -0.0190
      8 C           8.3944   -0.8028    3.1914 C.ar    1  UNL1       -0.0475
      9 C           9.0874   -1.9875    3.1259 C.ar    1  UNL1        0.0226
     10 C          10.6132   -2.0094    3.1572 C.2     1  UNL1        0.1950
     11 O          11.1329   -3.1088    3.3433 O.2     1  UNL1       -0.2868
     12 C          11.5471   -0.7838    3.1108 C.2     1  UNL1        0.0711
     13 C          12.7204   -0.9456    3.7577 C.2     1  UNL1        0.1883
     14 O          13.4087   -2.1074    3.9779 O.2     1  UNL1       -0.5020
     15 C          13.4587    0.3210    3.6762 C.2     1  UNL1        0.2825
     16 O          13.3807    1.2677    4.4339 O.2     1  UNL1       -0.2666
     17 N          13.5859    0.5475    2.2924 N.am    1  UNL1       -0.2786
     18 C          15.1917    1.3428    2.3937 C.3     1  UNL1        0.0560
     19 C          16.8659    0.7209    2.9505 C.3     1  UNL1       -0.0162
     20 N          18.1152    1.9395    2.9359 N.4     1  UNL1        0.2320
     21 C          17.8798    3.0671    3.9149 C.3     1  UNL1       -0.0433
     22 C          19.6091    1.5151    3.1585 C.3     1  UNL1       -0.0433
     23 C          11.7521    0.5552    2.2603 C.3     1  UNL1        0.0845
     24 C          10.2641    1.0462    1.4831 C.ar    1  UNL1       -0.0160
     25 C           9.5312    0.1924    0.5987 C.ar    1  UNL1       -0.0561
     26 C           8.1217    0.3835    0.2498 C.ar    1  UNL1       -0.0550
     27 C           7.3268    1.4284    0.7475 C.ar    1  UNL1        0.0156
     28 C           7.8845    2.2214    1.7513 C.ar    1  UNL1        0.2735
     29 N           6.8765    3.0316    2.5501 N.pl3   1  UNL1        0.0796
     30 O           5.6944    3.0165    2.2184 O.2     1  UNL1        0.0414
     31 O           7.3116    3.6499    3.5582 O.co2   1  UNL1       -0.5760
     32 C           9.3051    2.0219    2.1292 C.ar    1  UNL1        0.0209
     33 C           8.2580   -3.1270    3.1511 C.ar    1  UNL1       -0.0445
     34 C           6.8325   -3.0248    2.9726 C.ar    1  UNL1       -0.0081
     35 C           5.9187   -4.1921    3.1933 C.3     1  UNL1       -0.0362
     36 H           0.5545    0.4682   -0.8963 H       1  UNL1        0.0230
     37 H           0.5279    0.4434    0.8755 H       1  UNL1        0.0230
     38 H           0.5208   -1.0796   -0.0340 H       1  UNL1        0.0230
     39 H           2.8184    0.9482    0.0108 H       1  UNL1        0.0264
     40 H           2.8103   -0.5573   -0.9094 H       1  UNL1        0.0264
     41 H           2.5579   -1.8610    1.2438 H       1  UNL1        0.0298
     42 H           2.5836   -0.3581    2.1468 H       1  UNL1        0.0298
     43 H           4.8415    0.1310    1.4127 H       1  UNL1        0.0696
     44 H           4.8920   -1.3330    0.3853 H       1  UNL1        0.0696
     45 H           6.5288    0.2680    2.9275 H       1  UNL1        0.0654
     46 H           8.9464    0.0867    3.4225 H       1  UNL1        0.0626
     47 H          12.8238   -2.8380    3.6739 H       1  UNL1        0.2924
     48 H          15.0920    2.0398    3.2263 H       1  UNL1        0.0518
     49 H          15.4174    1.8319    1.4521 H       1  UNL1        0.0518
     50 H          17.3184   -0.0343    2.2900 H       1  UNL1        0.0830
     51 H          16.9350    0.3836    3.9986 H       1  UNL1        0.0830
     52 H          18.1145    2.3313    1.9869 H       1  UNL1        0.2028
     53 H          18.0328    2.6898    4.9313 H       1  UNL1        0.0777
     54 H          16.8761    3.4425    3.7547 H       1  UNL1        0.0777
     55 H          18.6129    3.8641    3.7149 H       1  UNL1        0.0777
     56 H          19.7595    1.1754    4.1899 H       1  UNL1        0.0777
     57 H          20.2481    2.4079    3.0049 H       1  UNL1        0.0777
     58 H          19.9033    0.7627    2.4267 H       1  UNL1        0.0777
     59 H          11.6186    1.3702    2.9743 H       1  UNL1        0.0603
     60 H           9.9128   -0.7920    0.3240 H       1  UNL1        0.0621
     61 H           7.5723   -0.4160   -0.2702 H       1  UNL1        0.0620
     62 H           6.2550    1.4609    0.5187 H       1  UNL1        0.0685
     63 H           9.5653    2.4736    3.0950 H       1  UNL1        0.0689
     64 H           8.6843   -4.1052    3.3753 H       1  UNL1        0.0628
     65 H           6.4728   -5.0728    3.5177 H       1  UNL1        0.0279
     66 H           5.3678   -4.4158    2.2759 H       1  UNL1        0.0279
     67 H           5.2021   -3.9349    3.9863 H       1  UNL1        0.0279
@<TRIPOS>UNITY_ATOM_ATTR
20 1
charge 1
29 1
charge 1
31 1
charge -1
@<TRIPOS>BOND
     1     1     2    1
     2     2     3    1
     3     3     4    1
     4     4     5    1
     5     5     6    1
     6     6     7   ar
     7     7     8   ar
     8     8     9   ar
     9     9    10    1
    10    10    11    2
    11    10    12    1
    12    12    13    2
    13    13    14    1
    14    13    15    1
    15    15    16    2
    16    15    17   am
    17    17    18    1
    18    18    19    1
    19    19    20    1
    20    20    21    1
    21    20    22    1
    22    17    23    1
    23    12    23    1
    24    24    25   ar
    25    25    26   ar
    26    26    27   ar
    27    27    28   ar
    28    28    29    1
    29    29    30    2
    30    29    31    1
    31    28    32   ar
    32    24    32   ar
    33     9    33   ar
    34    33    34   ar
    35     6    34   ar
    36    34    35    1
    37    23    24    1
    38     1    36    1
    39     1    37    1
    40     1    38    1
    41     2    39    1
    42     2    40    1
    43     3    41    1
    44     3    42    1
    45     4    43    1
    46     4    44    1
    47     7    45    1
    48     8    46    1
    49    14    47    1
    50    18    48    1
    51    18    49    1
    52    19    50    1
    53    19    51    1
    54    20    52    1
    55    21    53    1
    56    21    54    1
    57    21    55    1
    58    22    56    1
    59    22    57    1
    60    22    58    1
    61    23    59    1
    62    25    60    1
    63    26    61    1
    64    27    62    1
    65    32    63    1
    66    33    64    1
    67    35    65    1
    68    35    66    1
    69    35    67    1
