REMARK  6 active torsions:
REMARK  status: ('A' for Active; 'I' for Inactive)
REMARK    1  A    between atoms: C_12  and  N_13 
REMARK       I    between atoms: N_13  and  C_14 
REMARK    2  A    between atoms: C_14  and  C_16 
REMARK    3  A    between atoms: C_16  and  O_17 
REMARK    4  A    between atoms: O_17  and  C_18 
REMARK    5  A    between atoms: C_18  and  C_20 
REMARK    6  A    between atoms: C_25  and  C_26 
ROOT
ATOM      1  C   UNL d   1       3.726  -4.042  -5.693  0.00  0.00     0.281 C 
ENDROOT
BRANCH   1   2
ATOM      2  C   UNL d   1       4.222  -3.800  -4.261  0.00  0.00     0.244 C 
ATOM      3  N   UNL d   1       3.506  -2.901  -3.493  0.00  0.00    -0.329 N 
ATOM      4  H   UNL d   1       2.674  -2.443  -3.837  0.00  0.00     0.165 HD
ATOM      5  O   UNL d   1       5.225  -4.362  -3.822  0.00  0.00    -0.271 OA
BRANCH   3   6
ATOM      6  C   UNL d   1       3.973  -2.600  -2.165  0.00  0.00     0.264 A 
ATOM      7  O   UNL d   1       3.267  -3.462  -1.246  0.00  0.00    -0.353 OA
ATOM      8  C   UNL d   1       2.583  -2.657  -0.255  0.00  0.00     0.152 A 
ATOM      9  C   UNL d   1       2.856  -1.250  -0.647  0.00  0.00    -0.017 A 
ATOM     10  C   UNL d   1       1.115  -3.049  -0.305  0.00  0.00     0.044 C 
ATOM     11  C   UNL d   1       3.621  -1.242  -1.736  0.00  0.00     0.066 A 
ATOM     12  C   UNL d   1       2.395  -0.028   0.060  0.00  0.00     0.105 A 
ATOM     13  C   UNL d   1       4.088   0.000  -2.325  0.00  0.00     0.266 A 
ATOM     14  N   UNL d   1       3.678   1.153  -1.696  0.00  0.00    -0.287 N 
ATOM     15  O   UNL d   1       4.794   0.021  -3.332  0.00  0.00    -0.266 OA
ATOM     16  N   UNL d   1       2.886   1.232  -0.528  0.00  0.00    -0.229 NA
ATOM     17  H   UNL d   1       3.957   2.018  -2.153  0.00  0.00     0.184 HD
ATOM     18  H   UNL d   1       3.407   1.747   0.185  0.00  0.00     0.147 HD
ATOM     19  C   UNL d   1       0.874   0.077   0.050  0.00  0.00     0.033 C 
ENDBRANCH   3   6
ENDBRANCH   1   2
BRANCH   1  20
ATOM     20  O   UNL d   1       4.582  -5.017  -6.338  0.00  0.00    -0.307 OA
BRANCH  20  21
ATOM     21  C   UNL d   1       4.205  -5.352  -7.596  0.00  0.00     0.315 C 
ATOM     22  O   UNL d   1       3.216  -4.897  -8.155  0.00  0.00    -0.257 OA
BRANCH  21  23
ATOM     23  C   UNL d   1       5.177  -6.261  -8.283  0.00  0.00     0.163 A 
ATOM     24  N   UNL d   1       5.593  -7.394  -7.638  0.00  0.00    -0.251 NA
ATOM     25  C   UNL d   1       6.318  -8.263  -8.395  0.00  0.00     0.137 A 
ATOM     26  C   UNL d   1       6.633  -8.027  -9.724  0.00  0.00     0.136 A 
ATOM     27  N   UNL d   1       6.255  -6.897 -10.357  0.00  0.00    -0.254 NA
ATOM     28  C   UNL d   1       5.515  -6.013  -9.615  0.00  0.00     0.127 A 
BRANCH  28  29
ATOM     29  C   UNL d   1       5.067  -4.829 -10.341  0.00  0.00     0.130 A 
ATOM     30  N   UNL d   1       4.266  -4.856 -11.383  0.00  0.00    -0.238 NA
ATOM     31  C   UNL d   1       3.922  -3.569 -11.739  0.00  0.00     0.075 A 
ATOM     32  C   UNL d   1       3.049  -3.222 -12.786  0.00  0.00     0.033 A 
ATOM     33  C   UNL d   1       4.507  -2.554 -10.980  0.00  0.00     0.035 A 
ATOM     34  C   UNL d   1       2.786  -1.877 -13.050  0.00  0.00     0.002 A 
ATOM     35  C   UNL d   1       3.368  -0.879 -12.272  0.00  0.00     0.002 A 
ATOM     36  C   UNL d   1       4.231  -1.198 -11.219  0.00  0.00     0.021 A 
ATOM     37  S   UNL d   1       5.556  -3.262  -9.816  0.00  0.00    -0.066 SA
ENDBRANCH  28  29
ENDBRANCH  21  23
ENDBRANCH  20  21
ENDBRANCH   1  20
TORSDOF 6
