@<TRIPOS>MOLECULE
*****
 37 38 0 0 0
SMALL
GASTEIGER

@<TRIPOS>ATOM
      1 C           1.0622   -0.0777    0.0114 C.3     1  UNL1       -0.0203
      2 C           2.5764   -0.0024   -0.0411 C.2     1  UNL1        0.0634
      3 N           3.2596    0.9119   -0.6761 N.2     1  UNL1       -0.1845
      4 N           2.6262    1.9039   -1.4149 N.am    1  UNL1       -0.2039
      5 C           3.3857    2.8430   -2.1234 C.2     1  UNL1        0.2698
      6 O           4.6203    2.8398   -2.1372 O.2     1  UNL1       -0.2703
      7 C           2.5616    3.9100   -2.8978 C.3     1  UNL1        0.1668
      8 O           3.4566    4.8223   -3.5547 O.3     1  UNL1       -0.4827
      9 C           2.8910    5.7634   -4.3692 C.ar    1  UNL1        0.1214
     10 C           1.8918    6.6461   -3.9567 C.ar    1  UNL1       -0.0172
     11 C           1.4004    7.6093   -4.8484 C.ar    1  UNL1       -0.0230
     12 C           1.9269    7.6977   -6.1335 C.ar    1  UNL1        0.1236
     13 F           1.4380    8.6058   -6.9890 F       1  UNL1       -0.2055
     14 C           2.9577    6.8598   -6.5371 C.ar    1  UNL1       -0.0230
     15 C           3.4492    5.9009   -5.6462 C.ar    1  UNL1       -0.0172
     16 C           3.2935   -1.0866    0.7402 C.ar    1  UNL1       -0.0023
     17 C           2.8727   -2.4256    0.6388 C.ar    1  UNL1       -0.0494
     18 C           3.4767   -3.4401    1.4000 C.ar    1  UNL1       -0.0196
     19 C           4.5078   -3.1167    2.2719 C.ar    1  UNL1        0.1169
     20 O           5.1289   -4.0598    3.0376 O.3     1  UNL1       -0.5068
     21 C           4.9404   -1.7987    2.3860 C.ar    1  UNL1       -0.0196
     22 C           4.3436   -0.7831    1.6159 C.ar    1  UNL1       -0.0494
     23 H           0.5647    0.7134   -0.5443 H       1  UNL1        0.0293
     24 H           0.7402    0.0008    1.0546 H       1  UNL1        0.0293
     25 H           0.7112   -1.0254   -0.4031 H       1  UNL1        0.0293
     26 H           1.6184    1.9311   -1.4676 H       1  UNL1        0.1773
     27 H           1.9271    4.4467   -2.1840 H       1  UNL1        0.0795
     28 H           1.9378    3.4030   -3.6453 H       1  UNL1        0.0795
     29 H           1.5119    6.6270   -2.9409 H       1  UNL1        0.0655
     30 H           0.6169    8.2989   -4.5492 H       1  UNL1        0.0647
     31 H           3.3716    6.9577   -7.5360 H       1  UNL1        0.0647
     32 H           4.2707    5.2565   -5.9503 H       1  UNL1        0.0655
     33 H           2.0790   -2.7067   -0.0466 H       1  UNL1        0.0625
     34 H           3.1277   -4.4639    1.2974 H       1  UNL1        0.0654
     35 H           4.7693   -4.9390    2.8338 H       1  UNL1        0.2921
     36 H           5.7448   -1.5644    3.0800 H       1  UNL1        0.0654
     37 H           4.6977    0.2387    1.7263 H       1  UNL1        0.0625
@<TRIPOS>BOND
     1     1     2    1
     2     2     3    2
     3     3     4    1
     4     4     5   am
     5     5     6    2
     6     5     7    1
     7     7     8    1
     8     8     9    1
     9     9    10   ar
    10    10    11   ar
    11    11    12   ar
    12    12    13    1
    13    12    14   ar
    14    14    15   ar
    15     9    15   ar
    16     2    16    1
    17    16    17   ar
    18    17    18   ar
    19    18    19   ar
    20    19    20    1
    21    19    21   ar
    22    21    22   ar
    23    16    22   ar
    24     1    23    1
    25     1    24    1
    26     1    25    1
    27     4    26    1
    28     7    27    1
    29     7    28    1
    30    10    29    1
    31    11    30    1
    32    14    31    1
    33    15    32    1
    34    17    33    1
    35    18    34    1
    36    20    35    1
    37    21    36    1
    38    22    37    1
