REMARK  2 active torsions:
REMARK  status: ('A' for Active; 'I' for Inactive)
REMARK       I    between atoms: C_2  and  N_3 
REMARK       I    between atoms: C_2  and  N_10 
REMARK    1  A    between atoms: N_3  and  C_4 
REMARK    2  A    between atoms: N_17  and  C_18 
ROOT
ATOM      1  O   UNL d   1       1.071  -0.235  -0.071  0.00  0.00    -0.247 OA
ATOM      2  C   UNL d   1       2.292  -0.067  -0.055  0.00  0.00     0.325 C 
ATOM      3  N   UNL d   1       2.981   0.631  -1.037  0.00  0.00    -0.309 N 
ATOM      4  N   UNL d   1       3.092  -0.709   0.871  0.00  0.00    -0.299 N 
ATOM      5  C   UNL d   1       4.150  -0.072   1.624  0.00  0.00     0.157 C 
ATOM      6  C   UNL d   1       4.816  -1.251   2.289  0.00  0.00     0.191 C 
ATOM      7  O   UNL d   1       3.733  -2.172   2.545  0.00  0.00    -0.359 OA
ATOM      8  C   UNL d   1       2.737  -1.990   1.499  0.00  0.00     0.143 C 
ATOM      9  C   UNL d   1       1.339  -2.081   2.139  0.00  0.00     0.081 C 
ATOM     10  C   UNL d   1       1.044  -3.474   2.711  0.00  0.00     0.129 C 
ATOM     11  N   UNL d   1       1.269  -4.542   1.716  0.00  0.00    -0.367 N 
ATOM     12  C   UNL d   1       2.598  -4.516   1.098  0.00  0.00     0.129 C 
ATOM     13  C   UNL d   1       2.891  -3.139   0.485  0.00  0.00     0.081 C 
ATOM     14  H   UNL d   1       3.933   0.335  -1.194  0.00  0.00     0.170 HD
ENDROOT
BRANCH   3  15
ATOM     15  C   UNL d   1       2.305   1.214  -2.148  0.00  0.00     0.036 A 
ATOM     16  C   UNL d   1       2.755   1.013  -3.461  0.00  0.00     0.029 A 
ATOM     17  C   UNL d   1       2.119   1.656  -4.537  0.00  0.00     0.002 A 
ATOM     18  C   UNL d   1       1.017   2.481  -4.312  0.00  0.00     0.000 A 
ATOM     19  C   UNL d   1       0.569   2.686  -3.011  0.00  0.00     0.002 A 
ATOM     20  C   UNL d   1       1.206   2.052  -1.938  0.00  0.00     0.029 A 
ENDBRANCH   3  15
BRANCH  11  21
ATOM     21  C   UNL d   1       0.248  -5.359   1.285  0.00  0.00     0.105 A 
ATOM     22  C   UNL d   1      -0.951  -4.876   0.735  0.00  0.00     0.048 A 
ATOM     23  C   UNL d   1      -1.995  -5.749   0.404  0.00  0.00     0.008 A 
ATOM     24  C   UNL d   1      -1.888  -7.091   0.732  0.00  0.00     0.061 A 
ATOM     25  C   UNL d   1      -0.690  -7.537   1.263  0.00  0.00     0.189 A 
ATOM     26  F   UNL d   1      -0.568  -8.825   1.607  0.00  0.00    -0.186 F 
ATOM     27  N   UNL d   1       0.335  -6.692   1.454  0.00  0.00    -0.319 N 
ATOM     28  H   UNL d   1       1.200  -7.086   1.801  0.00  0.00     0.169 HD
ENDBRANCH  11  21
TORSDOF 2
