@<TRIPOS>MOLECULE
*****
 47 50 0 0 0
SMALL
GASTEIGER

@<TRIPOS>ATOM
      1 O           1.1725    0.0663    0.1102 O.2     1  UNL1       -0.2740
      2 C           2.4062    0.0668    0.0301 C.2     1  UNL1        0.2339
      3 C           3.1371   -0.2223   -1.2645 C.3     1  UNL1        0.0436
      4 C           2.1628   -0.4624   -2.4156 C.3     1  UNL1        0.0322
      5 N           2.8509   -0.7601   -3.6679 N.ar    1  UNL1       -0.3393
      6 C           3.0144   -2.0248   -4.1974 C.ar    1  UNL1        0.0501
      7 C           2.6016   -3.2805   -3.7234 C.ar    1  UNL1       -0.0376
      8 C           2.9119   -4.4098   -4.4831 C.ar    1  UNL1       -0.0598
      9 C           3.6152   -4.2954   -5.6769 C.ar    1  UNL1       -0.0611
     10 C           4.0265   -3.0412   -6.1424 C.ar    1  UNL1       -0.0520
     11 C           3.7220   -1.8822   -5.3938 C.ar    1  UNL1        0.0076
     12 C           3.9838   -0.4863   -5.5762 C.ar    1  UNL1        0.0076
     13 C           4.6480    0.2639   -6.5724 C.ar    1  UNL1       -0.0520
     14 C           4.7346    1.6555   -6.4499 C.ar    1  UNL1       -0.0611
     15 C           4.1710    2.3049   -5.3570 C.ar    1  UNL1       -0.0598
     16 C           3.5067    1.5868   -4.3607 C.ar    1  UNL1       -0.0376
     17 C           3.4261    0.1907   -4.4892 C.ar    1  UNL1        0.0501
     18 N           3.1785    0.3304    1.1435 N.am    1  UNL1       -0.2069
     19 N           4.5423    0.3855    1.0950 N.2     1  UNL1       -0.1876
     20 C           5.1612    0.5603    2.2256 C.2     1  UNL1        0.0563
     21 C           6.6451    0.5833    2.2715 C.ar    1  UNL1        0.0362
     22 C           7.3548    1.1582    1.2104 C.ar    1  UNL1       -0.0462
     23 C           8.7423    1.0042    1.1247 C.ar    1  UNL1       -0.0193
     24 C           9.4227    0.3563    2.1505 C.ar    1  UNL1        0.1204
     25 O          10.7688    0.1418    2.0838 O.3     1  UNL1       -0.5066
     26 C           8.7435   -0.1064    3.2760 C.ar    1  UNL1        0.0219
     27 C           7.3466   -0.0287    3.3164 C.ar    1  UNL1        0.1289
     28 O           6.6610   -0.5944    4.3562 O.3     1  UNL1       -0.5060
     29 H           3.7676   -1.1077   -1.1224 H       1  UNL1        0.0376
     30 H           3.7857    0.6296   -1.4944 H       1  UNL1        0.0376
     31 H           1.5202    0.4078   -2.5958 H       1  UNL1        0.0496
     32 H           1.4860   -1.2948   -2.1928 H       1  UNL1        0.0496
     33 H           2.0526   -3.3850   -2.7936 H       1  UNL1        0.0638
     34 H           2.5962   -5.3889   -4.1312 H       1  UNL1        0.0618
     35 H           3.8470   -5.1874   -6.2531 H       1  UNL1        0.0618
     36 H           4.5761   -2.9641   -7.0762 H       1  UNL1        0.0624
     37 H           5.0913   -0.2325   -7.4309 H       1  UNL1        0.0624
     38 H           5.2453    2.2333   -7.2161 H       1  UNL1        0.0618
     39 H           4.2451    3.3864   -5.2735 H       1  UNL1        0.0618
     40 H           3.0699    2.1035   -3.5124 H       1  UNL1        0.0638
     41 H           2.6847    0.4939    2.0155 H       1  UNL1        0.1772
     42 H           4.6280    0.6629    3.1890 H       1  UNL1        0.0852
     43 H           6.8262    1.7156    0.4413 H       1  UNL1        0.0626
     44 H           9.2662    1.3866    0.2537 H       1  UNL1        0.0654
     45 H          11.0865    0.3791    1.1951 H       1  UNL1        0.2921
     46 H           9.3171   -0.5423    4.0888 H       1  UNL1        0.0691
     47 H           7.2859   -1.0936    4.9116 H       1  UNL1        0.2922
@<TRIPOS>BOND
     1     1     2    2
     2     2     3    1
     3     3     4    1
     4     4     5    1
     5     5     6   ar
     6     6     7   ar
     7     7     8   ar
     8     8     9   ar
     9     9    10   ar
    10    10    11   ar
    11     6    11   ar
    12    11    12   ar
    13    12    13   ar
    14    13    14   ar
    15    14    15   ar
    16    15    16   ar
    17    16    17   ar
    18    12    17   ar
    19     5    17   ar
    20     2    18   am
    21    18    19    1
    22    19    20    2
    23    20    21    1
    24    21    22   ar
    25    22    23   ar
    26    23    24   ar
    27    24    25    1
    28    24    26   ar
    29    26    27   ar
    30    21    27   ar
    31    27    28    1
    32     3    29    1
    33     3    30    1
    34     4    31    1
    35     4    32    1
    36     7    33    1
    37     8    34    1
    38     9    35    1
    39    10    36    1
    40    13    37    1
    41    14    38    1
    42    15    39    1
    43    16    40    1
    44    18    41    1
    45    20    42    1
    46    22    43    1
    47    23    44    1
    48    25    45    1
    49    26    46    1
    50    28    47    1
