@<TRIPOS>MOLECULE
*****
 58 62 0 0 0
SMALL
GASTEIGER

@<TRIPOS>ATOM
      1 O           0.9961   -0.0491   -0.0785 O.3     1  UNL1       -0.3898
      2 C           2.4127   -0.0395   -0.0687 C.3     1  UNL1        0.0840
      3 C           2.9189   -1.0847   -1.0649 C.3     1  UNL1       -0.0099
      4 N           4.4201   -1.1192   -1.0941 N.4     1  UNL1        0.2297
      5 C           4.9634   -2.1425   -2.0600 C.3     1  UNL1       -0.0177
      6 C           6.5085   -2.1658   -2.0695 C.3     1  UNL1        0.0518
      7 N           7.0090   -3.1660   -2.9965 N.pl3   1  UNL1       -0.3083
      8 C           8.3777   -3.2539   -3.2042 C.ar    1  UNL1        0.2190
      9 N           9.1355   -3.2950   -2.0991 N.ar    1  UNL1       -0.1987
     10 C          10.4536   -3.6060   -2.1793 C.ar    1  UNL1        0.1389
     11 N          11.1815   -3.9004   -1.0068 N.pl3   1  UNL1       -0.2971
     12 C          10.6981   -3.8127    0.3372 C.ar    1  UNL1        0.0587
     13 C          11.1824   -2.6692    1.0684 C.ar    1  UNL1       -0.0384
     14 C          10.7515   -2.4192    2.3486 C.ar    1  UNL1       -0.0593
     15 C           9.7616   -3.2378    2.8719 C.ar    1  UNL1       -0.0524
     16 C           9.2193   -4.3160    2.1220 C.ar    1  UNL1        0.0022
     17 C           8.0835   -4.9346    2.6731 C.ar    1  UNL1       -0.0511
     18 C           7.4171   -5.9312    1.9820 C.ar    1  UNL1       -0.0430
     19 C           8.3008   -6.7195    1.3592 C.ar    1  UNL1        0.0283
     20 N           9.2786   -6.1175    0.6041 N.ar    1  UNL1       -0.2531
     21 C           9.7260   -4.7845    0.9346 C.ar    1  UNL1        0.0921
     22 C          11.0189   -3.6683   -3.4668 C.ar    1  UNL1        0.0790
     23 C          12.2902   -3.8909   -4.0306 C.ar    1  UNL1        0.0624
     24 N          12.2655   -3.9927   -5.3602 N.ar    1  UNL1       -0.1721
     25 N          10.9644   -3.7510   -5.6958 N.ar    1  UNL1       -0.2138
     26 C          10.5984   -3.7379   -7.0707 C.ar    1  UNL1        0.0677
     27 C          10.9309   -4.8304   -7.8900 C.ar    1  UNL1       -0.0362
     28 C          10.5386   -4.8442   -9.2352 C.ar    1  UNL1       -0.0598
     29 C           9.8785   -3.7453   -9.7828 C.ar    1  UNL1       -0.0616
     30 C           9.6124   -2.6297   -8.9867 C.ar    1  UNL1       -0.0598
     31 C           9.9564   -2.6266   -7.6269 C.ar    1  UNL1       -0.0362
     32 C          10.1643   -3.5511   -4.5587 C.ar    1  UNL1        0.1700
     33 N           8.8184   -3.3892   -4.4712 N.ar    1  UNL1       -0.1946
     34 H           0.6751    0.6181    0.5581 H       1  UNL1        0.2096
     35 H           2.7602   -0.2701    0.9432 H       1  UNL1        0.0610
     36 H           2.7606    0.9603   -0.3468 H       1  UNL1        0.0610
     37 H           2.5682   -0.8568   -2.0777 H       1  UNL1        0.0836
     38 H           2.5653   -2.0850   -0.7912 H       1  UNL1        0.0836
     39 H           4.7715   -1.3261   -0.1483 H       1  UNL1        0.2015
     40 H           4.7733   -0.1852   -1.3453 H       1  UNL1        0.2015
     41 H           4.5710   -1.8792   -3.0484 H       1  UNL1        0.0829
     42 H           4.5578   -3.1129   -1.7560 H       1  UNL1        0.0829
     43 H           6.8567   -2.3781   -1.0503 H       1  UNL1        0.0515
     44 H           6.8665   -1.1622   -2.3362 H       1  UNL1        0.0515
     45 H           6.4771   -3.4991   -3.7884 H       1  UNL1        0.1491
     46 H          12.1794   -3.7419   -1.0951 H       1  UNL1        0.1536
     47 H          11.9138   -1.9781    0.6389 H       1  UNL1        0.0637
     48 H          11.1257   -1.5814    2.9397 H       1  UNL1        0.0618
     49 H           9.3885   -3.0286    3.8620 H       1  UNL1        0.0624
     50 H           7.8662   -4.8095    3.7200 H       1  UNL1        0.0625
     51 H           6.8036   -5.6158    1.1017 H       1  UNL1        0.0633
     52 H           7.9656   -7.7591    1.2766 H       1  UNL1        0.0830
     53 H          13.2398   -4.0086   -3.5218 H       1  UNL1        0.0856
     54 H          11.4516   -5.6970   -7.4876 H       1  UNL1        0.0639
     55 H          10.7433   -5.7128   -9.8589 H       1  UNL1        0.0618
     56 H           9.5817   -3.7554  -10.8305 H       1  UNL1        0.0618
     57 H           9.1379   -1.7593   -9.4346 H       1  UNL1        0.0618
     58 H           9.7767   -1.7309   -7.0400 H       1  UNL1        0.0639
@<TRIPOS>UNITY_ATOM_ATTR
4 1
charge 1
@<TRIPOS>BOND
     1     1     2    1
     2     2     3    1
     3     3     4    1
     4     4     5    1
     5     5     6    1
     6     6     7    1
     7     7     8    1
     8     8     9   ar
     9     9    10   ar
    10    10    11    1
    11    11    12    1
    12    12    13   ar
    13    13    14   ar
    14    14    15   ar
    15    15    16   ar
    16    16    17   ar
    17    17    18   ar
    18    18    19   ar
    19    19    20   ar
    20    20    21   ar
    21    12    21   ar
    22    16    21   ar
    23    10    22   ar
    24    22    23   ar
    25    23    24   ar
    26    24    25   ar
    27    25    26    1
    28    26    27   ar
    29    27    28   ar
    30    28    29   ar
    31    29    30   ar
    32    30    31   ar
    33    26    31   ar
    34    25    32   ar
    35    22    32   ar
    36    32    33   ar
    37     8    33   ar
    38     1    34    1
    39     2    35    1
    40     2    36    1
    41     3    37    1
    42     3    38    1
    43     4    39    1
    44     4    40    1
    45     5    41    1
    46     5    42    1
    47     6    43    1
    48     6    44    1
    49     7    45    1
    50    11    46    1
    51    13    47    1
    52    14    48    1
    53    15    49    1
    54    17    50    1
    55    18    51    1
    56    19    52    1
    57    23    53    1
    58    27    54    1
    59    28    55    1
    60    29    56    1
    61    30    57    1
    62    31    58    1
