REMARK  4 active torsions:
REMARK  status: ('A' for Active; 'I' for Inactive)
REMARK       I    between atoms: C_2  and  N_4 
REMARK    1  A    between atoms: N_4  and  C_5 
REMARK    2  A    between atoms: C_7  and  N_8 
REMARK    3  A    between atoms: N_8  and  C_9 
REMARK    4  A    between atoms: C_9  and  C_10 
ROOT
ATOM      1  C   UNL d   1       4.700   0.555   1.209  0.00  0.00     0.075 A 
ATOM      2  C   UNL d   1       5.418   0.158   2.356  0.00  0.00     0.061 A 
ATOM      3  C   UNL d   1       6.835   0.124   2.355  0.00  0.00     0.030 A 
ATOM      4  C   UNL d   1       7.499   0.564   1.201  0.00  0.00     0.032 A 
ATOM      5  C   UNL d   1       6.800   1.011   0.085  0.00  0.00     0.047 A 
ATOM      6  C   UNL d   1       5.417   1.005   0.095  0.00  0.00     0.143 A 
ATOM      7  F   UNL d   1       4.785   1.538  -0.962  0.00  0.00    -0.204 F 
ENDROOT
BRANCH   3   8
ATOM      8  N   UNL d   1       7.539  -0.246   3.498  0.00  0.00    -0.385 N 
ATOM      9  H   UNL d   1       7.035  -0.730   4.231  0.00  0.00     0.160 HD
BRANCH   8  10
ATOM     10  C   UNL d   1       8.997  -0.368   3.498  0.00  0.00     0.162 C 
BRANCH  10  11
ATOM     11  C   UNL d   1       9.493  -0.915   4.814  0.00  0.00     0.003 A 
ATOM     12  C   UNL d   1       9.406  -2.292   5.097  0.00  0.00     0.043 A 
ATOM     13 CL   UNL d   1       8.809  -3.431   3.939  0.00  0.00    -0.084 Cl
ATOM     14  C   UNL d   1       9.794  -2.802   6.341  0.00  0.00     0.024 A 
ATOM     15  C   UNL d   1      10.287  -1.951   7.324  0.00  0.00     0.003 A 
ATOM     16  C   UNL d   1      10.413  -0.592   7.055  0.00  0.00     0.024 A 
ATOM     17  C   UNL d   1      10.025  -0.076   5.812  0.00  0.00     0.043 A 
ATOM     18 CL   UNL d   1      10.238   1.625   5.582  0.00  0.00    -0.084 Cl
ENDBRANCH  10  11
ENDBRANCH   8  10
ENDBRANCH   3   8
BRANCH   1  19
ATOM     19  N   UNL d   1       3.277   0.521   1.177  0.00  0.00    -0.325 N 
ATOM     20  C   UNL d   1       2.596   0.052   0.059  0.00  0.00     0.218 C 
ATOM     21  C   UNL d   1       1.093   0.101   0.146  0.00  0.00     0.117 C 
ATOM     22  O   UNL d   1       3.130  -0.448  -0.936  0.00  0.00    -0.274 OA
ATOM     23  H   UNL d   1       2.772   0.628   2.047  0.00  0.00     0.169 HD
ENDBRANCH   1  19
TORSDOF 4
