@<TRIPOS>MOLECULE
*****
 33 34 0 0 0
SMALL
GASTEIGER

@<TRIPOS>ATOM
      1 C           2.4522   -0.3525    0.4947 C.3     1  UNL1       -0.0380
      2 C           0.9871   -0.1143    0.2940 C.ar    1  UNL1       -0.0292
      3 C           0.2255   -1.2763    0.1487 C.ar    1  UNL1       -0.0564
      4 C          -1.1546   -1.2311    0.0373 C.ar    1  UNL1       -0.0493
      5 C          -1.8246   -0.0102    0.0527 C.ar    1  UNL1        0.0383
      6 C          -3.3222    0.0397   -0.0332 C.2     1  UNL1        0.2416
      7 N          -4.0059   -1.1577   -0.0659 N.am    1  UNL1       -0.3253
      8 O          -3.9293    1.0905   -0.0601 O.2     1  UNL1       -0.2704
      9 C          -1.0679    1.1815    0.1147 C.ar    1  UNL1       -0.0281
     10 C           0.3498    1.1398    0.1788 C.ar    1  UNL1        0.0373
     11 N           1.0532    2.3703    0.0330 N.am    1  UNL1       -0.2812
     12 C           2.4018    2.5808   -0.2137 C.2     1  UNL1        0.2497
     13 O           3.0234    3.3701    0.5001 O.2     1  UNL1       -0.2698
     14 C           3.1386    1.8495   -1.3236 C.ar    1  UNL1        0.0567
     15 C           4.5421    1.7083   -1.1299 C.ar    1  UNL1       -0.0481
     16 C           5.2892    0.7848   -1.8739 C.ar    1  UNL1       -0.0596
     17 C           4.6436   -0.0604   -2.7699 C.ar    1  UNL1       -0.0419
     18 C           3.2695    0.0699   -2.9856 C.ar    1  UNL1        0.0600
     19 CL          2.5144   -1.2000   -3.9014 Cl      1  UNL1       -0.0820
     20 C           2.5227    1.0881   -2.3510 C.ar    1  UNL1        0.0713
     21 CL          0.8595    1.2655   -2.8183 Cl      1  UNL1       -0.0813
     22 H           2.7080   -1.4002    0.6618 H       1  UNL1        0.0278
     23 H           2.8842    0.2751    1.2758 H       1  UNL1        0.0278
     24 H           2.9652   -0.1971   -0.4297 H       1  UNL1        0.0278
     25 H           0.7227   -2.2420    0.1011 H       1  UNL1        0.0621
     26 H          -1.6632   -2.1805   -0.0596 H       1  UNL1        0.0625
     27 H          -3.5935   -2.0747   -0.0421 H       1  UNL1        0.1453
     28 H          -5.0163   -1.1160   -0.0945 H       1  UNL1        0.1453
     29 H          -1.5956    2.1337    0.0409 H       1  UNL1        0.0644
     30 H           0.5358    3.2260    0.2126 H       1  UNL1        0.1551
     31 H           5.0516    2.2407   -0.3231 H       1  UNL1        0.0625
     32 H           6.3574    0.6645   -1.6997 H       1  UNL1        0.0618
     33 H           5.2027   -0.8430   -3.2793 H       1  UNL1        0.0633
@<TRIPOS>BOND
     1     1     2    1
     2     2     3   ar
     3     3     4   ar
     4     4     5   ar
     5     5     6    1
     6     6     7   am
     7     6     8    2
     8     5     9   ar
     9     9    10   ar
    10     2    10   ar
    11    10    11    1
    12    11    12   am
    13    12    13    2
    14    12    14    1
    15    14    15   ar
    16    15    16   ar
    17    16    17   ar
    18    17    18   ar
    19    18    19    1
    20    18    20   ar
    21    14    20   ar
    22    20    21    1
    23     1    22    1
    24     1    23    1
    25     1    24    1
    26     3    25    1
    27     4    26    1
    28     7    27    1
    29     7    28    1
    30     9    29    1
    31    11    30    1
    32    15    31    1
    33    16    32    1
    34    17    33    1
