@<TRIPOS>MOLECULE
*****
 44 46 0 0 0
SMALL
GASTEIGER

@<TRIPOS>ATOM
      1 N          -3.0718    0.4740    0.3150 N.1     1  UNL1       -0.1907
      2 C          -1.9241    0.2848    0.1811 C.1     1  UNL1        0.1028
      3 C          -0.5188    0.0827    0.0204 C.ar    1  UNL1        0.0939
      4 C           0.2498    1.2541   -0.0276 C.ar    1  UNL1       -0.0408
      5 C           1.6382    1.2015    0.0023 C.ar    1  UNL1       -0.0603
      6 C           2.2789   -0.0320    0.0479 C.ar    1  UNL1       -0.0582
      7 C           1.5252   -1.2142    0.0135 C.ar    1  UNL1       -0.0180
      8 C           0.1146   -1.1744   -0.0133 C.ar    1  UNL1        0.1457
      9 O          -0.5004   -2.4197    0.0078 O.3     1  UNL1       -0.4547
     10 C          -1.8499   -2.5289   -0.2456 C.ar    1  UNL1        0.1286
     11 C          -2.6692   -3.1504    0.6999 C.ar    1  UNL1       -0.0176
     12 C          -4.0660   -3.2481    0.4860 C.ar    1  UNL1       -0.0370
     13 C          -4.6672   -2.6127   -0.6144 C.ar    1  UNL1        0.0339
     14 N          -6.0895   -2.5695   -0.7702 N.am    1  UNL1       -0.2815
     15 C          -6.7490   -1.9191   -1.8318 C.2     1  UNL1        0.2483
     16 O          -6.2335   -1.2311   -2.7077 O.2     1  UNL1       -0.2699
     17 C          -8.2297   -1.9628   -1.9134 C.ar    1  UNL1        0.0388
     18 C          -8.9172   -1.9936   -3.1151 C.ar    1  UNL1       -0.0495
     19 C         -10.2989   -1.7520   -3.1226 C.ar    1  UNL1       -0.0593
     20 C         -11.0031   -1.5186   -1.9219 C.ar    1  UNL1       -0.0404
     21 C         -10.3018   -1.4680   -0.7110 C.ar    1  UNL1        0.0355
     22 N         -10.9321   -1.1339    0.5098 N.am    1  UNL1       -0.2696
     23 C         -10.4390   -0.9530    1.7755 C.2     1  UNL1        0.3013
     24 N          -9.1296   -1.1589    2.0633 N.am    1  UNL1       -0.3131
     25 O         -11.1933   -0.6509    2.6986 O.2     1  UNL1       -0.2527
     26 C          -8.9420   -1.7348   -0.7594 C.ar    1  UNL1       -0.0283
     27 C          -3.8167   -2.0129   -1.5430 C.ar    1  UNL1       -0.0370
     28 C          -2.4274   -2.0175   -1.4010 C.ar    1  UNL1       -0.0176
     29 H          -0.2518    2.2201   -0.0487 H       1  UNL1        0.0632
     30 H           2.2072    2.1275    0.0181 H       1  UNL1        0.0618
     31 H           3.3652   -0.0672    0.1164 H       1  UNL1        0.0619
     32 H           2.0536   -2.1674    0.0372 H       1  UNL1        0.0655
     33 H          -2.2303   -3.5161    1.6266 H       1  UNL1        0.0655
     34 H          -4.6518   -3.8178    1.2029 H       1  UNL1        0.0637
     35 H          -6.6297   -3.0430   -0.0541 H       1  UNL1        0.1551
     36 H          -8.3716   -2.2043   -4.0303 H       1  UNL1        0.0625
     37 H         -10.8181   -1.7158   -4.0784 H       1  UNL1        0.0618
     38 H         -12.0845   -1.3904   -1.9755 H       1  UNL1        0.0636
     39 H         -11.9345   -0.9660    0.4757 H       1  UNL1        0.1564
     40 H          -8.3766   -0.9122    1.4488 H       1  UNL1        0.1465
     41 H          -8.8485   -0.9455    3.0099 H       1  UNL1        0.1465
     42 H          -8.3346   -1.7963    0.1021 H       1  UNL1        0.0644
     43 H          -4.1942   -1.4560   -2.3889 H       1  UNL1        0.0637
     44 H          -1.8477   -1.4581   -2.1291 H       1  UNL1        0.0655
@<TRIPOS>BOND
     1     1     2    3
     2     2     3    1
     3     3     4   ar
     4     4     5   ar
     5     5     6   ar
     6     6     7   ar
     7     7     8   ar
     8     3     8   ar
     9     8     9    1
    10     9    10    1
    11    10    11   ar
    12    11    12   ar
    13    12    13   ar
    14    13    14    1
    15    14    15   am
    16    15    16    2
    17    15    17    1
    18    17    18   ar
    19    18    19   ar
    20    19    20   ar
    21    20    21   ar
    22    21    22    1
    23    22    23   am
    24    23    24   am
    25    23    25    2
    26    21    26   ar
    27    17    26   ar
    28    13    27   ar
    29    27    28   ar
    30    10    28   ar
    31     4    29    1
    32     5    30    1
    33     6    31    1
    34     7    32    1
    35    11    33    1
    36    12    34    1
    37    14    35    1
    38    18    36    1
    39    19    37    1
    40    20    38    1
    41    22    39    1
    42    24    40    1
    43    24    41    1
    44    26    42    1
    45    27    43    1
    46    28    44    1
