@<TRIPOS>MOLECULE
*****
 42 44 0 0 0
SMALL
GASTEIGER

@<TRIPOS>ATOM
      1 C           0.9715    0.0063   -0.0568 C.3     1  UNL1        0.0788
      2 O           2.3908    0.1089   -0.1127 O.3     1  UNL1       -0.4951
      3 C           3.0264    0.3785    1.0680 C.ar    1  UNL1        0.1201
      4 C           4.2161    1.1047    0.9689 C.ar    1  UNL1       -0.0193
      5 C           5.0162    1.3180    2.0987 C.ar    1  UNL1       -0.0490
      6 C           4.6057    0.8483    3.3516 C.ar    1  UNL1        0.0029
      7 C           5.4103    1.0971    4.5453 C.ar    1  UNL1        0.1011
      8 N           5.7321    2.3532    4.8982 N.ar    1  UNL1       -0.1732
      9 N           6.4351    2.2130    6.0314 N.ar    1  UNL1       -0.2835
     10 C           6.5977    0.9155    6.4103 C.ar    1  UNL1        0.0316
     11 C           5.9389    0.1422    5.4736 C.ar    1  UNL1        0.0396
     12 C           5.8376   -1.3077    5.4429 C.2     1  UNL1        0.0563
     13 N           6.3983   -2.0191    6.3690 N.2     1  UNL1       -0.1873
     14 N           6.2760   -3.3951    6.2862 N.am    1  UNL1       -0.2030
     15 C           6.8362   -4.1791    7.2927 C.2     1  UNL1        0.2635
     16 O           7.4455   -3.7341    8.2701 O.2     1  UNL1       -0.2684
     17 C           6.6865   -5.6623    7.1981 C.ar    1  UNL1        0.0452
     18 C           6.4938   -6.3963    8.3848 C.ar    1  UNL1       -0.0078
     19 C           6.5371   -7.7913    8.3564 C.ar    1  UNL1        0.1210
     20 O           6.4662   -8.5377    9.4977 O.3     1  UNL1       -0.5066
     21 C           6.6991   -8.4772    7.1588 C.ar    1  UNL1        0.0213
     22 C           6.8854   -7.7465    5.9890 C.ar    1  UNL1        0.1210
     23 O           7.1134   -8.3732    4.7973 O.3     1  UNL1       -0.5066
     24 C           6.8883   -6.3483    5.9954 C.ar    1  UNL1       -0.0078
     25 C           3.4031    0.1404    3.4495 C.ar    1  UNL1       -0.0490
     26 C           2.6242   -0.1032    2.3127 C.ar    1  UNL1       -0.0193
     27 H           0.6225   -0.3382   -1.0358 H       1  UNL1        0.0660
     28 H           0.5362    0.9917    0.1331 H       1  UNL1        0.0660
     29 H           0.6144   -0.7234    0.6752 H       1  UNL1        0.0660
     30 H           4.5245    1.5097    0.0075 H       1  UNL1        0.0654
     31 H           5.9660    1.8387    1.9931 H       1  UNL1        0.0625
     32 H           6.7818    3.0507    6.4907 H       1  UNL1        0.1882
     33 H           7.1617    0.6524    7.2947 H       1  UNL1        0.0830
     34 H           5.2732   -1.7599    4.6108 H       1  UNL1        0.0852
     35 H           5.7333   -3.8060    5.5339 H       1  UNL1        0.1776
     36 H           6.3299   -5.8678    9.3210 H       1  UNL1        0.0662
     37 H           6.5974   -7.9567   10.2670 H       1  UNL1        0.2921
     38 H           6.7015   -9.5635    7.1644 H       1  UNL1        0.0691
     39 H           7.1706   -9.3327    4.9507 H       1  UNL1        0.2921
     40 H           7.1080   -5.8200    5.0739 H       1  UNL1        0.0662
     41 H           3.0614   -0.2348    4.4108 H       1  UNL1        0.0625
     42 H           1.7236   -0.6936    2.4318 H       1  UNL1        0.0654
@<TRIPOS>BOND
     1     1     2    1
     2     2     3    1
     3     3     4   ar
     4     4     5   ar
     5     5     6   ar
     6     6     7    1
     7     7     8   ar
     8     8     9   ar
     9     9    10   ar
    10    10    11   ar
    11     7    11   ar
    12    11    12    1
    13    12    13    2
    14    13    14    1
    15    14    15   am
    16    15    16    2
    17    15    17    1
    18    17    18   ar
    19    18    19   ar
    20    19    20    1
    21    19    21   ar
    22    21    22   ar
    23    22    23    1
    24    22    24   ar
    25    17    24   ar
    26     6    25   ar
    27    25    26   ar
    28     3    26   ar
    29     1    27    1
    30     1    28    1
    31     1    29    1
    32     4    30    1
    33     5    31    1
    34     9    32    1
    35    10    33    1
    36    12    34    1
    37    14    35    1
    38    18    36    1
    39    20    37    1
    40    21    38    1
    41    23    39    1
    42    24    40    1
    43    25    41    1
    44    26    42    1
