REMARK  5 active torsions:
REMARK  status: ('A' for Active; 'I' for Inactive)
REMARK       I    between atoms: C_2  and  N_3 
REMARK       I    between atoms: C_2  and  N_16 
REMARK    1  A    between atoms: N_3  and  N_4 
REMARK    2  A    between atoms: N_4  and  C_5 
REMARK    3  A    between atoms: C_8  and  O_9 
REMARK    4  A    between atoms: O_9  and  C_10 
REMARK    5  A    between atoms: N_16  and  C_17 
ROOT
ATOM      1  C   UNL d   1       2.964  -2.094  -2.968  0.00  0.00     0.048 A 
ATOM      2  C   UNL d   1       2.631  -1.976  -4.320  0.00  0.00     0.034 A 
ATOM      3  C   UNL d   1       3.314  -2.701  -5.312  0.00  0.00     0.039 A 
ATOM      4  C   UNL d   1       4.419  -3.492  -4.990  0.00  0.00     0.078 A 
ATOM      5  C   UNL d   1       4.794  -3.583  -3.652  0.00  0.00     0.039 A 
ATOM      6  C   UNL d   1       4.088  -2.875  -2.658  0.00  0.00     0.034 A 
ENDROOT
BRANCH   1   7
ATOM      7  N   UNL d   1       2.204  -1.400  -2.014  0.00  0.00    -0.297 N 
ATOM      8  H   UNL d   1       1.194  -1.304  -2.086  0.00  0.00     0.187 HD
BRANCH   7   9
ATOM      9  N   UNL d   1       2.845  -0.855  -0.924  0.00  0.00    -0.251 N 
ATOM     10  C   UNL d   1       2.225  -0.022  -0.032  0.00  0.00     0.335 C 
ATOM     11  O   UNL d   1       0.999   0.112   0.051  0.00  0.00    -0.246 OA
ATOM     12  N   UNL d   1       3.048   0.661   0.835  0.00  0.00    -0.337 N 
ATOM     13  H   UNL d   1       2.513   1.189   1.522  0.00  0.00     0.164 HD
ATOM     14  H   UNL d   1       3.829  -0.789  -1.030  0.00  0.00     0.191 HD
BRANCH  12  15
ATOM     15  C   UNL d   1       4.479   0.733   0.949  0.00  0.00     0.086 A 
ATOM     16  C   UNL d   1       5.513   0.130   0.028  0.00  0.00     0.027 A 
ATOM     17  C   UNL d   1       5.274   1.609   0.018  0.00  0.00     0.027 A 
ENDBRANCH  12  15
ENDBRANCH   7   9
ENDBRANCH   1   7
BRANCH   4  18
ATOM     18  O   UNL d   1       5.041  -4.094  -6.049  0.00  0.00    -0.255 OA
BRANCH  18  19
ATOM     19  C   UNL d   1       6.237  -4.817  -5.787  0.00  0.00     0.530 C 
ATOM     20  F   UNL d   1       7.163  -4.040  -5.181  0.00  0.00    -0.144 F 
ATOM     21  F   UNL d   1       5.987  -5.898  -5.017  0.00  0.00    -0.144 F 
ATOM     22  F   UNL d   1       6.761  -5.249  -6.956  0.00  0.00    -0.144 F 
ENDBRANCH  18  19
ENDBRANCH   4  18
TORSDOF 5
