@<TRIPOS>MOLECULE
*****
 71 73 0 0 0
SMALL
GASTEIGER

@<TRIPOS>ATOM
      1 C           0.9740   -0.0402   -0.1083 C.3     1  UNL1       -0.0652
      2 C           2.4789    0.0097   -0.0829 C.3     1  UNL1       -0.0545
      3 C           2.8470    1.3233    0.5815 C.3     1  UNL1       -0.0376
      4 C           4.3110    1.4597    0.6248 C.3     1  UNL1        0.0116
      5 N           4.7294    2.7559    1.1743 N.am    1  UNL1       -0.3135
      6 C           6.0786    2.8393    1.2384 C.2     1  UNL1        0.2383
      7 O           6.5325    1.8912    0.5711 O.2     1  UNL1       -0.2734
      8 C           6.9426    3.9510    2.0027 C.3     1  UNL1        0.1342
      9 C           6.4271    4.0731    3.4411 C.ar    1  UNL1        0.0648
     10 C           6.1609    5.3076    4.0619 C.ar    1  UNL1        0.1292
     11 O           6.2477    6.5051    3.4056 O.3     1  UNL1       -0.5062
     12 C           5.7497    5.3878    5.3904 C.ar    1  UNL1        0.0219
     13 C           5.4922    4.2156    6.0842 C.ar    1  UNL1        0.1238
     14 O           5.0026    4.2288    7.3555 O.3     1  UNL1       -0.5065
     15 C           5.7055    2.9783    5.4965 C.ar    1  UNL1        0.0219
     16 C           6.2175    2.9164    4.2060 C.ar    1  UNL1        0.1292
     17 O           6.4969    1.6957    3.6623 O.3     1  UNL1       -0.5062
     18 N           8.4913    3.9357    2.0493 N.am    1  UNL1       -0.2827
     19 C           9.2885    2.9066    1.4200 C.3     1  UNL1        0.0156
     20 C           8.6866    1.7083    0.8308 C.3     1  UNL1       -0.0400
     21 C           9.3679    0.5426    0.2137 C.3     1  UNL1       -0.0639
     22 C           9.1869    5.1094    2.4324 C.2     1  UNL1        0.2574
     23 O           8.5306    6.1219    2.6836 O.2     1  UNL1       -0.2716
     24 C          10.8362    5.1611    2.5317 C.3     1  UNL1        0.1924
     25 O          11.3753    4.1431    3.3842 O.3     1  UNL1       -0.3711
     26 C          11.5203    5.0851    1.1243 C.ar    1  UNL1       -0.0027
     27 C          11.8830    3.8640    0.5218 C.ar    1  UNL1       -0.0550
     28 C          12.3111    3.7868   -0.8076 C.ar    1  UNL1       -0.0614
     29 C          12.5125    4.9428   -1.5449 C.ar    1  UNL1       -0.0617
     30 C          12.2821    6.1673   -0.9533 C.ar    1  UNL1       -0.0614
     31 C          11.7842    6.2249    0.3440 C.ar    1  UNL1       -0.0550
     32 C          11.1932    6.4820    3.2791 C.ar    1  UNL1       -0.0027
     33 C          11.8291    6.4949    4.5284 C.ar    1  UNL1       -0.0550
     34 C          12.0219    7.7003    5.2058 C.ar    1  UNL1       -0.0614
     35 C          11.7311    8.9169    4.5886 C.ar    1  UNL1       -0.0617
     36 C          11.1449    8.9341    3.3367 C.ar    1  UNL1       -0.0614
     37 C          10.7977    7.7294    2.7497 C.ar    1  UNL1       -0.0550
     38 H           0.6228   -0.9575   -0.5779 H       1  UNL1        0.0230
     39 H           0.5883    0.8211   -0.6639 H       1  UNL1        0.0230
     40 H           0.5884    0.0146    0.9150 H       1  UNL1        0.0230
     41 H           2.8869   -0.0470   -1.1014 H       1  UNL1        0.0263
     42 H           2.8911   -0.8450    0.4702 H       1  UNL1        0.0263
     43 H           2.4775    1.3668    1.6090 H       1  UNL1        0.0280
     44 H           2.4526    2.1733    0.0190 H       1  UNL1        0.0280
     45 H           4.7138    1.3462   -0.4008 H       1  UNL1        0.0462
     46 H           4.7550    0.6361    1.2175 H       1  UNL1        0.0462
     47 H           4.1406    3.3140    1.7758 H       1  UNL1        0.1487
     48 H           6.6877    4.8672    1.4510 H       1  UNL1        0.0650
     49 H           7.1035    6.5020    2.9158 H       1  UNL1        0.2922
     50 H           5.6294    6.3646    5.8484 H       1  UNL1        0.0691
     51 H           4.9083    5.1544    7.6357 H       1  UNL1        0.2921
     52 H           5.4739    2.0774    6.0522 H       1  UNL1        0.0691
     53 H           6.1904    0.9927    4.2580 H       1  UNL1        0.2922
     54 H           9.9687    2.5175    2.1584 H       1  UNL1        0.0465
     55 H           9.7132    3.4160    0.5670 H       1  UNL1        0.0465
     56 H           8.2305    2.1574   -0.0612 H       1  UNL1        0.0278
     57 H           8.1012    1.2795    1.6513 H       1  UNL1        0.0278
     58 H           9.9497    0.8558   -0.6515 H       1  UNL1        0.0230
     59 H           8.5610   -0.1185   -0.1405 H       1  UNL1        0.0230
     60 H           9.9602    0.0112    0.9507 H       1  UNL1        0.0230
     61 H          11.1732    3.2698    3.0469 H       1  UNL1        0.2116
     62 H          11.7540    2.9129    1.0298 H       1  UNL1        0.0621
     63 H          12.4886    2.8142   -1.2567 H       1  UNL1        0.0618
     64 H          12.8793    4.8969   -2.5628 H       1  UNL1        0.0618
     65 H          12.4921    7.0986   -1.4711 H       1  UNL1        0.0618
     66 H          11.6646    7.2340    0.7003 H       1  UNL1        0.0621
     67 H          12.1364    5.5690    5.0116 H       1  UNL1        0.0621
     68 H          12.3833    7.6860    6.2289 H       1  UNL1        0.0618
     69 H          11.9250    9.8534    5.0983 H       1  UNL1        0.0618
     70 H          10.9016    9.8625    2.8302 H       1  UNL1        0.0618
     71 H          10.1905    7.7766    1.8470 H       1  UNL1        0.0621
@<TRIPOS>BOND
     1     1     2    1
     2     2     3    1
     3     3     4    1
     4     4     5    1
     5     5     6   am
     6     6     7    2
     7     6     8    1
     8     8     9    1
     9     9    10   ar
    10    10    11    1
    11    10    12   ar
    12    12    13   ar
    13    13    14    1
    14    13    15   ar
    15    15    16   ar
    16     9    16   ar
    17    16    17    1
    18     8    18    1
    19    18    19    1
    20    19    20    1
    21    20    21    1
    22    18    22   am
    23    22    23    2
    24    22    24    1
    25    24    25    1
    26    24    26    1
    27    26    27   ar
    28    27    28   ar
    29    28    29   ar
    30    29    30   ar
    31    30    31   ar
    32    26    31   ar
    33    24    32    1
    34    32    33   ar
    35    33    34   ar
    36    34    35   ar
    37    35    36   ar
    38    36    37   ar
    39    32    37   ar
    40     1    38    1
    41     1    39    1
    42     1    40    1
    43     2    41    1
    44     2    42    1
    45     3    43    1
    46     3    44    1
    47     4    45    1
    48     4    46    1
    49     5    47    1
    50     8    48    1
    51    11    49    1
    52    12    50    1
    53    14    51    1
    54    15    52    1
    55    17    53    1
    56    19    54    1
    57    19    55    1
    58    20    56    1
    59    20    57    1
    60    21    58    1
    61    21    59    1
    62    21    60    1
    63    25    61    1
    64    27    62    1
    65    28    63    1
    66    29    64    1
    67    30    65    1
    68    31    66    1
    69    33    67    1
    70    34    68    1
    71    35    69    1
    72    36    70    1
    73    37    71    1
