@<TRIPOS>MOLECULE
*****
 34 35 0 0 0
SMALL
GASTEIGER

@<TRIPOS>ATOM
      1 C           2.4734   -0.0292   -0.0129 C.3     1  UNL1       -0.0397
      2 C           0.9722   -0.0272    0.0018 C.ar    1  UNL1       -0.0503
      3 C           0.2019   -1.1954    0.0027 C.ar    1  UNL1       -0.0571
      4 C          -1.2169   -1.1350   -0.0035 C.ar    1  UNL1       -0.0402
      5 C          -1.8911    0.1017   -0.0105 C.ar    1  UNL1        0.0348
      6 N          -3.3310    0.1832   -0.0355 N.am    1  UNL1       -0.2683
      7 C          -4.0641    1.3716   -0.0601 C.2     1  UNL1        0.3202
      8 O          -3.5962    2.5124   -0.0568 O.2     1  UNL1       -0.2509
      9 N          -5.4483    1.2487   -0.0950 N.am    1  UNL1       -0.2177
     10 N          -6.2070    2.4820   -0.1599 N.am    1  UNL1       -0.2292
     11 C          -7.5925    2.4759   -0.1235 C.2     1  UNL1        0.2603
     12 O          -8.2512    1.4344   -0.0694 O.2     1  UNL1       -0.2687
     13 C          -8.3042    3.8015   -0.1332 C.ar    1  UNL1        0.0410
     14 C          -7.9197    4.8445   -0.9793 C.ar    1  UNL1       -0.0314
     15 C          -8.6744    6.0141   -0.9728 C.ar    1  UNL1        0.0283
     16 N          -9.7519    6.2148   -0.1846 N.ar    1  UNL1       -0.2632
     17 C         -10.1131    5.1941    0.6194 C.ar    1  UNL1        0.0283
     18 C          -9.4402    3.9792    0.6685 C.ar    1  UNL1       -0.0314
     19 C          -1.0904    1.2469    0.0025 C.ar    1  UNL1       -0.0402
     20 C           0.3065    1.1924    0.0058 C.ar    1  UNL1       -0.0571
     21 H           2.8836   -1.0427    0.0005 H       1  UNL1        0.0278
     22 H           2.8618    0.5052    0.8621 H       1  UNL1        0.0278
     23 H           2.8403    0.4730   -0.9158 H       1  UNL1        0.0278
     24 H           0.7046   -2.1626    0.0046 H       1  UNL1        0.0621
     25 H          -1.7544   -2.0807   -0.0049 H       1  UNL1        0.0636
     26 H          -3.8307   -0.6956   -0.0520 H       1  UNL1        0.1564
     27 H          -5.9787    0.3838   -0.1011 H       1  UNL1        0.1744
     28 H          -5.6421    3.3300   -0.0845 H       1  UNL1        0.1732
     29 H          -7.0862    4.7533   -1.6642 H       1  UNL1        0.0640
     30 H          -8.4342    6.8482   -1.6289 H       1  UNL1        0.0830
     31 H         -10.9870    5.3877    1.2387 H       1  UNL1        0.0830
     32 H          -9.8024    3.1932    1.3224 H       1  UNL1        0.0640
     33 H          -1.5118    2.2419    0.0076 H       1  UNL1        0.0636
     34 H           0.8604    2.1284    0.0074 H       1  UNL1        0.0621
@<TRIPOS>BOND
     1     1     2    1
     2     2     3   ar
     3     3     4   ar
     4     4     5   ar
     5     5     6    1
     6     6     7   am
     7     7     8    2
     8     7     9   am
     9     9    10    1
    10    10    11   am
    11    11    12    2
    12    11    13    1
    13    13    14   ar
    14    14    15   ar
    15    15    16   ar
    16    16    17   ar
    17    17    18   ar
    18    13    18   ar
    19     5    19   ar
    20    19    20   ar
    21     2    20   ar
    22     1    21    1
    23     1    22    1
    24     1    23    1
    25     3    24    1
    26     4    25    1
    27     6    26    1
    28     9    27    1
    29    10    28    1
    30    14    29    1
    31    15    30    1
    32    17    31    1
    33    18    32    1
    34    19    33    1
    35    20    34    1
