@<TRIPOS>MOLECULE
*****
 37 38 0 0 0
SMALL
GASTEIGER

@<TRIPOS>ATOM
      1 C           2.9736    0.0222    0.0682 C.3     1  UNL1       -0.0397
      2 C           1.4724   -0.0032   -0.0047 C.ar    1  UNL1       -0.0495
      3 C           0.7467    1.1886   -0.0311 C.ar    1  UNL1       -0.0553
      4 C          -0.6456    1.1553   -0.0359 C.ar    1  UNL1       -0.0192
      5 C          -1.3237   -0.0714   -0.0232 C.ar    1  UNL1        0.1290
      6 O          -2.6901   -0.0415    0.0220 O.3     1  UNL1       -0.5060
      7 C          -0.6269   -1.2945   -0.0456 C.ar    1  UNL1        0.0797
      8 C          -1.3792   -2.6124   -0.0938 C.2     1  UNL1        0.2637
      9 O          -2.6089   -2.6867   -0.1127 O.2     1  UNL1       -0.2685
     10 N          -0.6365   -3.7760   -0.1307 N.am    1  UNL1       -0.2303
     11 N          -1.2908   -5.0377   -0.2004 N.am    1  UNL1       -0.2339
     12 C          -0.4488   -6.1269   -0.1989 C.2     1  UNL1        0.2335
     13 O           0.7598   -5.8810   -0.1348 O.2     1  UNL1       -0.2739
     14 C          -1.0758   -7.5354   -0.2760 C.3     1  UNL1        0.0532
     15 C          -0.1070   -8.7199   -0.3135 C.ar    1  UNL1       -0.0034
     16 C           1.2871   -8.5688   -0.3664 C.ar    1  UNL1       -0.0554
     17 C           2.1662   -9.6481   -0.3663 C.ar    1  UNL1       -0.0613
     18 C           1.6717  -10.9388   -0.3446 C.ar    1  UNL1       -0.0590
     19 C           0.2923  -11.1377   -0.3238 C.ar    1  UNL1       -0.0262
     20 C          -0.5816  -10.0400   -0.3040 C.ar    1  UNL1        0.1270
     21 F          -1.9012  -10.2820   -0.2787 F       1  UNL1       -0.2052
     22 C           0.7835   -1.2344   -0.0282 C.ar    1  UNL1       -0.0431
     23 H           3.3603    1.0475    0.0774 H       1  UNL1        0.0278
     24 H           3.4070   -0.4926   -0.7943 H       1  UNL1        0.0278
     25 H           3.3101   -0.4659    0.9889 H       1  UNL1        0.0278
     26 H           1.2577    2.1500   -0.0366 H       1  UNL1        0.0621
     27 H          -1.1885    2.0969   -0.0453 H       1  UNL1        0.0654
     28 H          -3.0094    0.8717    0.0814 H       1  UNL1        0.2922
     29 H           0.3802   -3.8374   -0.1253 H       1  UNL1        0.1731
     30 H          -2.3084   -5.0374   -0.1999 H       1  UNL1        0.1728
     31 H          -1.7091   -7.5821   -1.1722 H       1  UNL1        0.0408
     32 H          -1.7299   -7.6555    0.5988 H       1  UNL1        0.0408
     33 H           1.7732   -7.6053   -0.4094 H       1  UNL1        0.0621
     34 H           3.2343   -9.4474   -0.3861 H       1  UNL1        0.0618
     35 H           2.3643  -11.7746   -0.3499 H       1  UNL1        0.0618
     36 H          -0.1039  -12.1486   -0.3213 H       1  UNL1        0.0646
     37 H           1.3893   -2.1347   -0.0255 H       1  UNL1        0.0629
@<TRIPOS>BOND
     1     1     2    1
     2     2     3   ar
     3     3     4   ar
     4     4     5   ar
     5     5     6    1
     6     5     7   ar
     7     7     8    1
     8     8     9    2
     9     8    10   am
    10    10    11    1
    11    11    12   am
    12    12    13    2
    13    12    14    1
    14    14    15    1
    15    15    16   ar
    16    16    17   ar
    17    17    18   ar
    18    18    19   ar
    19    19    20   ar
    20    15    20   ar
    21    20    21    1
    22     7    22   ar
    23     2    22   ar
    24     1    23    1
    25     1    24    1
    26     1    25    1
    27     3    26    1
    28     4    27    1
    29     6    28    1
    30    10    29    1
    31    11    30    1
    32    14    31    1
    33    14    32    1
    34    16    33    1
    35    17    34    1
    36    18    35    1
    37    19    36    1
    38    22    37    1
