REMARK  5 active torsions:
REMARK  status: ('A' for Active; 'I' for Inactive)
REMARK       I    between atoms: C_2  and  N_3 
REMARK    1  A    between atoms: C_2  and  C_9 
REMARK    2  A    between atoms: N_3  and  C_4 
REMARK    3  A    between atoms: C_5  and  C_4 
REMARK    4  A    between atoms: C_5  and  C_7 
REMARK    5  A    between atoms: C_5  and  O_6 
ROOT
ATOM      1  O   UNL d   1       5.141  -5.260   0.735  0.00  0.00    -0.268 OA
ATOM      2  C   UNL d   1       3.950  -5.306   0.447  0.00  0.00     0.251 C 
ATOM      3  N   UNL d   1       3.369  -4.511  -0.515  0.00  0.00    -0.354 N 
ATOM      4  H   UNL d   1       2.365  -4.554  -0.621  0.00  0.00     0.162 HD
ENDROOT
BRANCH   2   5
ATOM      5  C   UNL d   1       3.010  -6.166   1.217  0.00  0.00     0.032 A 
ATOM      6  C   UNL d   1       1.934  -6.841   0.624  0.00  0.00     0.017 A 
ATOM      7  C   UNL d   1       0.985  -7.475   1.434  0.00  0.00     0.001 A 
ATOM      8  C   UNL d   1       1.151  -7.505   2.820  0.00  0.00     0.000 A 
ATOM      9  C   UNL d   1       2.254  -6.883   3.403  0.00  0.00     0.001 A 
ATOM     10  C   UNL d   1       3.182  -6.216   2.604  0.00  0.00     0.017 A 
ENDBRANCH   2   5
BRANCH   3  11
ATOM     11  C   UNL d   1       4.153  -3.551  -1.288  0.00  0.00     0.155 C 
BRANCH  11  12
ATOM     12  C   UNL d   1       3.305  -2.809  -2.335  0.00  0.00     0.149 C 
BRANCH  12  13
ATOM     13  C   UNL d   1       2.549  -3.765  -3.262  0.00  0.00     0.148 C 
ATOM     14 CL   UNL d   1       3.633  -4.825  -4.185  0.00  0.00    -0.128 Cl
ENDBRANCH  12  13
BRANCH  12  15
ATOM     15  O   UNL d   1       2.360  -1.944  -1.684  0.00  0.00    -0.393 OA
ATOM     16  H   UNL d   1       1.884  -2.455  -1.009  0.00  0.00     0.210 HD
ENDBRANCH  12  15
ENDBRANCH  11  12
ENDBRANCH   3  11
TORSDOF 5
