REMARK  9 active torsions:
REMARK  status: ('A' for Active; 'I' for Inactive)
REMARK    1  A    between atoms: O_2  and  C_3 
REMARK    2  A    between atoms: C_6  and  C_7 
REMARK    3  A    between atoms: C_8  and  C_9 
REMARK       I    between atoms: C_9  and  N_11 
REMARK    4  A    between atoms: N_11  and  C_12 
REMARK    5  A    between atoms: C_12  and  N_14 
REMARK    6  A    between atoms: N_14  and  C_15 
REMARK    7  A    between atoms: C_18  and  N_19 
REMARK       I    between atoms: N_19  and  C_20 
REMARK    8  A    between atoms: C_20  and  C_22 
REMARK    9  A    between atoms: C_32  and  O_33 
ROOT
ATOM      1  N   UNL d   1       5.601 -10.206  -3.586  0.00  0.00    -0.333 N 
ATOM      2  H   UNL d   1       4.901  -9.928  -4.262  0.00  0.00     0.168 HD
ENDROOT
BRANCH   1   3
ATOM      3  C   UNL d   1       6.151  -9.265  -2.665  0.00  0.00     0.179 C 
ATOM      4  S   UNL d   1       7.646  -9.514  -1.898  0.00  0.00    -0.040 SA
BRANCH   3   5
ATOM      5  N   UNL d   1       5.396  -8.078  -2.474  0.00  0.00    -0.300 N 
ATOM      6  C   UNL d   1       5.760  -7.041  -1.594  0.00  0.00     0.247 C 
ATOM      7  O   UNL d   1       6.697  -7.089  -0.787  0.00  0.00    -0.268 OA
ATOM      8  H   UNL d   1       4.567  -7.944  -3.038  0.00  0.00     0.171 HD
BRANCH   6   9
ATOM      9  C   UNL d   1       4.954  -5.786  -1.576  0.00  0.00     0.075 C 
ATOM     10  C   UNL d   1       5.330  -4.785  -0.736  0.00  0.00     0.017 C 
BRANCH  10  11
ATOM     11  C   UNL d   1       4.622  -3.502  -0.520  0.00  0.00    -0.033 A 
ATOM     12  C   UNL d   1       5.026  -2.554   0.427  0.00  0.00     0.014 A 
ATOM     13  C   UNL d   1       4.238  -1.404   0.676  0.00  0.00     0.040 A 
ATOM     14  C   UNL d   1       3.062  -1.123  -0.057  0.00  0.00     0.101 A 
ATOM     15  C   UNL d   1       2.701  -2.048  -1.052  0.00  0.00     0.102 A 
ATOM     16  C   UNL d   1       3.477  -3.205  -1.248  0.00  0.00     0.051 A 
BRANCH  14  17
ATOM     17  O   UNL d   1       2.583   0.153   0.147  0.00  0.00    -0.353 OA
ATOM     18  C   UNL d   1       1.225   0.399   0.514  0.00  0.00     0.210 C 
ENDBRANCH  14  17
BRANCH  15  19
ATOM     19  O   UNL d   1       1.708  -2.061  -1.998  0.00  0.00    -0.353 OA
ATOM     20  C   UNL d   1       0.739  -1.069  -1.865  0.00  0.00     0.210 C 
ENDBRANCH  15  19
ENDBRANCH  10  11
ENDBRANCH   6   9
ENDBRANCH   3   5
ENDBRANCH   1   3
BRANCH   1  21
ATOM     21  C   UNL d   1       6.149 -11.535  -3.765  0.00  0.00     0.034 C 
ATOM     22  C   UNL d   1       6.362 -12.167  -4.993  0.00  0.00     0.032 C 
ATOM     23  C   UNL d   1       6.960 -13.474  -5.047  0.00  0.00     0.032 C 
ATOM     24  C   UNL d   1       7.385 -14.157  -3.881  0.00  0.00     0.041 C 
ATOM     25  C   UNL d   1       7.040 -13.560  -2.667  0.00  0.00    -0.033 C 
ATOM     26  C   UNL d   1       7.186 -14.184  -1.318  0.00  0.00     0.050 C 
ATOM     27  C   UNL d   1       6.455 -12.282  -2.635  0.00  0.00     0.038 C 
BRANCH  24  28
ATOM     28  N   UNL d   1       8.070 -15.418  -3.985  0.00  0.00    -0.322 N 
ATOM     29  C   UNL d   1       8.778 -16.070  -2.964  0.00  0.00     0.256 C 
ATOM     30  O   UNL d   1       9.164 -15.635  -1.892  0.00  0.00    -0.267 OA
ATOM     31  H   UNL d   1       8.140 -15.821  -4.910  0.00  0.00     0.169 HD
BRANCH  29  32
ATOM     32  C   UNL d   1       9.280 -17.428  -3.200  0.00  0.00     0.032 A 
ATOM     33  C   UNL d   1       9.048 -18.429  -2.236  0.00  0.00     0.017 A 
ATOM     34  C   UNL d   1       9.882 -19.547  -2.191  0.00  0.00     0.001 A 
ATOM     35  C   UNL d   1      10.898 -19.683  -3.138  0.00  0.00     0.000 A 
ATOM     36  C   UNL d   1      11.120 -18.683  -4.090  0.00  0.00     0.001 A 
ATOM     37  C   UNL d   1      10.320 -17.546  -4.114  0.00  0.00     0.017 A 
ENDBRANCH  29  32
ENDBRANCH  24  28
ENDBRANCH   1  21
TORSDOF 9
