REMARK  15 active torsions:
REMARK  status: ('A' for Active; 'I' for Inactive)
REMARK    1  A    between atoms: C_2  and  C_3 
REMARK       I    between atoms: C_2  and  N_18 
REMARK    2  A    between atoms: C_3  and  C_4 
REMARK    3  A    between atoms: C_4  and  C_5 
REMARK    4  A    between atoms: C_5  and  C_6 
REMARK    5  A    between atoms: C_6  and  O_8 
REMARK    6  A    between atoms: O_8  and  C_9 
REMARK    7  A    between atoms: C_9  and  C_10 
REMARK    8  A    between atoms: C_10  and  C_11 
REMARK    9  A    between atoms: C_11  and  C_12 
REMARK   10  A    between atoms: N_18  and  C_19 
REMARK   11  A    between atoms: C_19  and  N_21 
REMARK   12  A    between atoms: N_21  and  C_22 
REMARK   13  A    between atoms: C_25  and  O_26 
REMARK   14  A    between atoms: O_26  and  C_27 
REMARK   15  A    between atoms: C_27  and  C_28 
ROOT
ATOM      1  O   UNL d   1       1.067  -0.293  -0.126  0.00  0.00    -0.273 OA
ATOM      2  C   UNL d   1       2.276  -0.124   0.020  0.00  0.00     0.223 C 
ATOM      3  N   UNL d   1       3.199  -0.935  -0.669  0.00  0.00    -0.304 N 
ATOM      4  H   UNL d   1       2.707  -1.630  -1.220  0.00  0.00     0.171 HD
ENDROOT
BRANCH   3   5
ATOM      5  C   UNL d   1       4.609  -0.875  -0.775  0.00  0.00     0.178 C 
ATOM      6  S   UNL d   1       5.569   0.362  -0.119  0.00  0.00    -0.040 SA
BRANCH   5   7
ATOM      7  N   UNL d   1       5.174  -1.940  -1.510  0.00  0.00    -0.333 N 
ATOM      8  H   UNL d   1       4.629  -2.395  -2.234  0.00  0.00     0.168 HD
BRANCH   7   9
ATOM      9  C   UNL d   1       6.592  -2.138  -1.558  0.00  0.00     0.034 A 
ATOM     10  C   UNL d   1       7.295  -2.288  -2.752  0.00  0.00     0.032 A 
ATOM     11  C   UNL d   1       8.704  -2.395  -2.716  0.00  0.00     0.039 A 
ATOM     12  C   UNL d   1       9.413  -2.277  -1.511  0.00  0.00     0.069 A 
ATOM     13  C   UNL d   1       8.704  -2.140  -0.331  0.00  0.00     0.039 A 
ATOM     14  C   UNL d   1       7.315  -2.125  -0.358  0.00  0.00     0.032 A 
BRANCH  12  15
ATOM     15  O   UNL d   1      10.779  -2.298  -1.588  0.00  0.00    -0.349 OA
BRANCH  15  16
ATOM     16  C   UNL d   1      11.493  -2.084  -0.354  0.00  0.00     0.207 C 
BRANCH  16  17
ATOM     17  C   UNL d   1      12.999  -2.071  -0.614  0.00  0.00     0.145 C 
ATOM     18  C   UNL d   1      13.426  -0.979  -1.583  0.00  0.00     0.036 C 
ATOM     19  C   UNL d   1      14.586  -1.608  -2.307  0.00  0.00     0.029 C 
ATOM     20  C   UNL d   1      14.214  -3.073  -2.333  0.00  0.00     0.168 C 
ATOM     21  O   UNL d   1      13.428  -3.329  -1.165  0.00  0.00    -0.384 OA
ENDBRANCH  16  17
ENDBRANCH  15  16
ENDBRANCH  12  15
ENDBRANCH   7   9
ENDBRANCH   5   7
ENDBRANCH   3   5
BRANCH   2  22
ATOM     22  C   UNL d   1       2.852   0.944   0.934  0.00  0.00     0.103 C 
BRANCH  22  23
ATOM     23  C   UNL d   1       1.904   1.833   1.694  0.00  0.00     0.019 C 
BRANCH  23  24
ATOM     24  C   UNL d   1       2.678   2.857   2.550  0.00  0.00     0.111 C 
BRANCH  24  25
ATOM     25  C   UNL d   1       1.690   3.727   3.282  0.00  0.00     0.258 C 
ATOM     26  O   UNL d   1       0.465   3.610   3.183  0.00  0.00    -0.265 OA
BRANCH  25  27
ATOM     27  O   UNL d   1       2.303   4.653   4.066  0.00  0.00    -0.321 OA
BRANCH  27  28
ATOM     28  C   UNL d   1       1.368   5.486   4.772  0.00  0.00     0.179 C 
BRANCH  28  29
ATOM     29  C   UNL d   1       2.123   6.492   5.631  0.00  0.00     0.031 C 
BRANCH  29  30
ATOM     30  C   UNL d   1       1.149   7.381   6.395  0.00  0.00     0.041 C 
BRANCH  30  31
ATOM     31  C   UNL d   1       1.821   8.420   7.256  0.00  0.00    -0.058 A 
ATOM     32  C   UNL d   1       2.596   8.056   8.366  0.00  0.00     0.007 A 
ATOM     33  C   UNL d   1       3.030   9.030   9.266  0.00  0.00     0.001 A 
ATOM     34  C   UNL d   1       2.771  10.377   9.018  0.00  0.00     0.000 A 
ATOM     35  C   UNL d   1       2.058  10.751   7.882  0.00  0.00     0.001 A 
ATOM     36  C   UNL d   1       1.582   9.777   7.007  0.00  0.00     0.007 A 
ENDBRANCH  30  31
ENDBRANCH  29  30
ENDBRANCH  28  29
ENDBRANCH  27  28
ENDBRANCH  25  27
ENDBRANCH  24  25
ENDBRANCH  23  24
ENDBRANCH  22  23
ENDBRANCH   2  22
TORSDOF 15
