REMARK  7 active torsions:
REMARK  status: ('A' for Active; 'I' for Inactive)
REMARK    1  A    between atoms: C_2  and  O_3 
REMARK    2  A    between atoms: O_3  and  C_4 
REMARK    3  A    between atoms: C_9  and  N_10 
REMARK    4  A    between atoms: C_20  and  S_21 
REMARK    5  A    between atoms: S_21  and  C_22 
REMARK    6  A    between atoms: C_22  and  C_23 
REMARK       I    between atoms: C_23  and  N_25 
REMARK    7  A    between atoms: N_25  and  C_26 
ROOT
ATOM      1  N   UNL d   1       4.817   1.344   1.072  0.00  0.00    -0.296 N 
ATOM      2  C   UNL d   1       5.340   1.994  -0.030  0.00  0.00     0.141 C 
ATOM      3  N   UNL d   1       6.233   1.540  -0.847  0.00  0.00    -0.283 NA
ATOM      4  C   UNL d   1       4.777   3.326  -0.328  0.00  0.00     0.085 C 
ATOM      5  C   UNL d   1       4.953   4.274  -1.183  0.00  0.00     0.071 C 
ATOM      6  C   UNL d   1       5.984   4.294  -2.259  0.00  0.00     0.073 C 
ATOM      7  N   UNL d   1       4.152   5.377  -0.959  0.00  0.00    -0.152 NA
ATOM      8  N   UNL d   1       3.556   5.212   0.140  0.00  0.00    -0.129 NA
ATOM      9  C   UNL d   1       3.958   3.999   0.660  0.00  0.00     0.185 C 
ATOM     10  N   UNL d   1       3.699   3.564   1.835  0.00  0.00    -0.232 NA
ATOM     11  C   UNL d   1       3.651   2.055   1.749  0.00  0.00     0.281 C 
ATOM     12  H   UNL d   1       6.548   0.609  -0.561  0.00  0.00     0.188 HD
ENDROOT
BRANCH  11  13
ATOM     13  S   UNL d   1       1.711   2.102   0.800  0.00  0.00    -0.111 SA
BRANCH  13  14
ATOM     14  C   UNL d   1       1.567   1.143  -1.052  0.00  0.00     0.181 C 
BRANCH  14  15
ATOM     15  C   UNL d   1       0.171   0.406  -1.208  0.00  0.00     0.231 C 
ATOM     16  O   UNL d   1      -0.634   0.279  -0.277  0.00  0.00    -0.272 OA
ATOM     17  N   UNL d   1      -0.042  -0.356  -2.357  0.00  0.00    -0.327 N 
ATOM     18  H   UNL d   1       0.725  -0.682  -2.932  0.00  0.00     0.169 HD
BRANCH  17  19
ATOM     19  C   UNL d   1      -1.309  -0.979  -2.500  0.00  0.00     0.034 C 
ATOM     20  C   UNL d   1      -1.482  -2.129  -3.254  0.00  0.00     0.030 C 
ATOM     21  C   UNL d   1      -2.790  -2.566  -3.474  0.00  0.00     0.009 C 
ATOM     22  C   UNL d   1      -3.879  -1.964  -2.813  0.00  0.00    -0.062 C 
ATOM     23  C   UNL d   1      -5.274  -2.447  -2.976  0.00  0.00     0.048 C 
ATOM     24  C   UNL d   1      -3.688  -0.893  -1.966  0.00  0.00     0.009 C 
ATOM     25  C   UNL d   1      -2.424  -0.386  -1.873  0.00  0.00     0.030 C 
ENDBRANCH  17  19
ENDBRANCH  14  15
ENDBRANCH  13  14
ENDBRANCH  11  13
BRANCH   1  26
ATOM     26  C   UNL d   1       5.357   0.081   1.493  0.00  0.00     0.072 C 
ATOM     27  C   UNL d   1       6.724  -0.100   1.724  0.00  0.00     0.033 C 
ATOM     28  C   UNL d   1       7.292  -1.388   1.935  0.00  0.00     0.002 C 
ATOM     29  C   UNL d   1       6.537  -2.555   1.872  0.00  0.00     0.003 C 
ATOM     30  C   UNL d   1       5.221  -2.435   1.573  0.00  0.00     0.039 C 
ATOM     31  C   UNL d   1       4.677  -1.152   1.505  0.00  0.00     0.095 C 
BRANCH  31  32
ATOM     32  O   UNL d   1       3.360  -1.322   1.574  0.00  0.00    -0.349 OA
BRANCH  32  33
ATOM     33  C   UNL d   1       2.781  -0.735   0.488  0.00  0.00     0.171 C 
ATOM     34  C   UNL d   1       1.375  -0.851   0.982  0.00  0.00     0.034 C 
ENDBRANCH  32  33
ENDBRANCH  31  32
ENDBRANCH   1  26
TORSDOF 7
