@<TRIPOS>MOLECULE
*****
 39 40 0 0 0
SMALL
GASTEIGER

@<TRIPOS>ATOM
      1 O           1.0454   -0.0734   -0.0414 O.2     1  UNL1       -0.2724
      2 C           2.2791   -0.0273   -0.1003 C.2     1  UNL1        0.2494
      3 C           3.0114    0.9681   -1.0288 C.3     1  UNL1        0.0912
      4 N           2.1192    1.8322   -1.8391 N.am    1  UNL1       -0.2908
      5 C           2.6228    2.7713   -2.7060 C.2     1  UNL1        0.3004
      6 O           3.8313    2.9393   -2.8711 O.2     1  UNL1       -0.2528
      7 N           1.6825    3.5065   -3.3854 N.am    1  UNL1       -0.2923
      8 C           2.0824    4.5497   -4.3361 C.3     1  UNL1        0.0712
      9 C           0.8969    5.1538   -5.0197 C.ar    1  UNL1        0.1219
     10 C          -0.2015    4.5958   -5.6423 C.ar    1  UNL1       -0.0191
     11 C          -0.9725    5.6611   -6.1624 C.ar    1  UNL1       -0.0236
     12 C          -0.2899    6.8132   -5.8512 C.ar    1  UNL1        0.0921
     13 O           0.8484    6.5187   -5.1600 O.2     1  UNL1       -0.4662
     14 N           3.0448   -0.8871    0.6779 N.am    1  UNL1       -0.2057
     15 N           4.4089   -0.8768    0.6650 N.2     1  UNL1       -0.1876
     16 C           5.0301   -1.7168    1.4407 C.2     1  UNL1        0.0563
     17 C           6.5172   -1.7392    1.5163 C.ar    1  UNL1        0.0360
     18 C           7.2078   -2.9608    1.5176 C.ar    1  UNL1       -0.0496
     19 C           8.6105   -2.9725    1.5459 C.ar    1  UNL1       -0.0609
     20 C           9.3216   -1.7724    1.6001 C.ar    1  UNL1       -0.0583
     21 C           8.6361   -0.5563    1.6300 C.ar    1  UNL1       -0.0195
     22 C           7.2396   -0.5433    1.5907 C.ar    1  UNL1        0.1255
     23 O           6.5679    0.6430    1.6817 O.3     1  UNL1       -0.5061
     24 H           3.6431    0.4032   -1.7216 H       1  UNL1        0.0559
     25 H           3.6401    1.6232   -0.4170 H       1  UNL1        0.0559
     26 H           1.1234    1.7107   -1.7113 H       1  UNL1        0.1507
     27 H           0.7009    3.3628   -3.2092 H       1  UNL1        0.1507
     28 H           2.7261    4.0888   -5.0953 H       1  UNL1        0.0543
     29 H           2.6777    5.3060   -3.8115 H       1  UNL1        0.0543
     30 H          -0.4024    3.5378   -5.7129 H       1  UNL1        0.0652
     31 H          -1.9041    5.5952   -6.7077 H       1  UNL1        0.0649
     32 H          -0.4776    7.8622   -6.0467 H       1  UNL1        0.1029
     33 H           2.5464   -1.5152    1.3010 H       1  UNL1        0.1773
     34 H           4.5035   -2.4568    2.0734 H       1  UNL1        0.0852
     35 H           6.6773   -3.9079    1.4678 H       1  UNL1        0.0625
     36 H           9.1555   -3.9151    1.5168 H       1  UNL1        0.0618
     37 H          10.4102   -1.7841    1.6245 H       1  UNL1        0.0619
     38 H           9.2035    0.3677    1.6928 H       1  UNL1        0.0654
     39 H           7.1836    1.3858    1.5917 H       1  UNL1        0.2922
@<TRIPOS>BOND
     1     1     2    2
     2     2     3    1
     3     3     4    1
     4     4     5   am
     5     5     6    2
     6     5     7   am
     7     7     8    1
     8     8     9    1
     9     9    10   ar
    10    10    11   ar
    11    11    12   ar
    12    12    13   ar
    13     9    13   ar
    14     2    14   am
    15    14    15    1
    16    15    16    2
    17    16    17    1
    18    17    18   ar
    19    18    19   ar
    20    19    20   ar
    21    20    21   ar
    22    21    22   ar
    23    17    22   ar
    24    22    23    1
    25     3    24    1
    26     3    25    1
    27     4    26    1
    28     7    27    1
    29     8    28    1
    30     8    29    1
    31    10    30    1
    32    11    31    1
    33    12    32    1
    34    14    33    1
    35    16    34    1
    36    18    35    1
    37    19    36    1
    38    20    37    1
    39    21    38    1
    40    23    39    1
