REMARK  8 active torsions:
REMARK  status: ('A' for Active; 'I' for Inactive)
REMARK    1  A    between atoms: C_2  and  C_3 
REMARK       I    between atoms: C_2  and  N_15 
REMARK    2  A    between atoms: C_3  and  C_4 
REMARK    3  A    between atoms: C_4  and  C_5 
REMARK    4  A    between atoms: C_5  and  O_6 
REMARK    5  A    between atoms: O_6  and  C_7 
REMARK    6  A    between atoms: N_15  and  N_16 
REMARK       I    between atoms: N_16  and  C_17 
REMARK    7  A    between atoms: C_17  and  C_19 
REMARK    8  A    between atoms: C_19  and  C_20 
ROOT
ATOM      1  O   UNL d   1       1.111  -0.061   0.220  0.00  0.00    -0.272 OA
ATOM      2  C   UNL d   1       2.341  -0.042   0.140  0.00  0.00     0.236 C 
ATOM      3  N   UNL d   1       3.103  -0.284   1.258  0.00  0.00    -0.268 N 
ATOM      4  H   UNL d   1       2.610  -0.473   2.135  0.00  0.00     0.190 HD
ENDROOT
BRANCH   3   5
ATOM      5  N   UNL d   1       4.509  -0.302   1.328  0.00  0.00    -0.267 N 
ATOM      6  C   UNL d   1       5.081  -0.555   2.573  0.00  0.00     0.240 C 
ATOM      7  O   UNL d   1       4.374  -0.762   3.561  0.00  0.00    -0.272 OA
ATOM      8  H   UNL d   1       5.059  -0.115   0.499  0.00  0.00     0.190 HD
BRANCH   6   9
ATOM      9  C   UNL d   1       6.614  -0.553   2.589  0.00  0.00     0.145 C 
BRANCH   9  10
ATOM     10  C   UNL d   1       7.166  -0.858   3.952  0.00  0.00    -0.021 A 
ATOM     11  C   UNL d   1       7.681   0.034   4.875  0.00  0.00     0.097 A 
ATOM     12  N   UNL d   1       7.957  -0.654   6.031  0.00  0.00    -0.365 N 
ATOM     13  C   UNL d   1       7.722  -1.998   5.853  0.00  0.00     0.042 A 
ATOM     14  H   UNL d   1       8.290  -0.239   6.891  0.00  0.00     0.165 HD
ATOM     15  C   UNL d   1       7.890  -3.079   6.730  0.00  0.00     0.030 A 
ATOM     16  C   UNL d   1       7.235  -2.154   4.556  0.00  0.00    -0.001 A 
ATOM     17  C   UNL d   1       7.581  -4.357   6.250  0.00  0.00     0.002 A 
ATOM     18  C   UNL d   1       7.094  -4.541   4.958  0.00  0.00     0.001 A 
ATOM     19  C   UNL d   1       6.902  -3.448   4.110  0.00  0.00     0.014 A 
ENDBRANCH   9  10
ENDBRANCH   6   9
ENDBRANCH   3   5
BRANCH   2  20
ATOM     20  C   UNL d   1       3.064   0.242  -1.166  0.00  0.00     0.106 C 
BRANCH  20  21
ATOM     21  C   UNL d   1       2.101   0.499  -2.332  0.00  0.00     0.036 C 
BRANCH  21  22
ATOM     22  C   UNL d   1       2.844   0.778  -3.643  0.00  0.00     0.176 C 
BRANCH  22  23
ATOM     23  O   UNL d   1       1.883   1.044  -4.671  0.00  0.00    -0.348 OA
BRANCH  23  24
ATOM     24  C   UNL d   1       2.390   1.280  -5.923  0.00  0.00     0.107 A 
ATOM     25  C   UNL d   1       3.420   0.531  -6.501  0.00  0.00     0.043 A 
ATOM     26  C   UNL d   1       3.807   0.776  -7.824  0.00  0.00     0.045 A 
ATOM     27  C   UNL d   1       3.163   1.763  -8.565  0.00  0.00     0.119 A 
ATOM     28  F   UNL d   1       3.531   1.977  -9.835  0.00  0.00    -0.206 F 
ATOM     29  C   UNL d   1       2.143   2.518  -8.010  0.00  0.00     0.087 A 
ATOM     30  C   UNL d   1       1.759   2.265  -6.695  0.00  0.00     0.152 A 
ATOM     31  F   UNL d   1       0.767   3.000  -6.168  0.00  0.00    -0.203 F 
ENDBRANCH  23  24
ENDBRANCH  22  23
ENDBRANCH  21  22
ENDBRANCH  20  21
ENDBRANCH   2  20
TORSDOF 8
