REMARK  11 active torsions:
REMARK  status: ('A' for Active; 'I' for Inactive)
REMARK    1  A    between atoms: C_2  and  C_3 
REMARK    2  A    between atoms: C_4  and  C_3 
REMARK    3  A    between atoms: N_16  and  C_4 
REMARK    4  A    between atoms: C_4  and  C_5 
REMARK    5  A    between atoms: N_9  and  C_10 
REMARK    6  A    between atoms: C_10  and  C_11 
REMARK    7  A    between atoms: C_11  and  O_13 
REMARK    8  A    between atoms: O_13  and  C_14 
REMARK    9  A    between atoms: N_16  and  C_30 
REMARK   10  A    between atoms: N_16  and  C_17 
REMARK   11  A    between atoms: C_17  and  C_18 
ROOT
ATOM      1  N   UNL d   1       5.325   0.655  -2.719  0.00  0.00    -0.052 N 
ATOM      2  H   UNL d   1       4.901  -0.013  -3.377  0.00  0.00     0.281 HD
ENDROOT
BRANCH   1   3
ATOM      3  C   UNL d   1       6.766   0.676  -2.688  0.00  0.00     0.189 C 
ATOM      4  C   UNL d   1       7.299   0.446  -1.319  0.00  0.00     0.033 C 
ATOM      5  C   UNL d   1       8.764   0.403  -1.273  0.00  0.00     0.002 C 
ATOM      6  C   UNL d   1       9.182  -0.674  -2.231  0.00  0.00     0.000 C 
ATOM      7  C   UNL d   1       8.677  -0.396  -3.643  0.00  0.00     0.002 C 
ATOM      8  C   UNL d   1       7.178  -0.325  -3.699  0.00  0.00     0.033 C 
ENDBRANCH   1   3
BRANCH   1   9
ATOM      9  C   UNL d   1       4.554   0.276  -1.340  0.00  0.00     0.276 C 
BRANCH   9  10
ATOM     10  C   UNL d   1       3.729   1.515  -0.640  0.00  0.00     0.018 C 
ATOM     11  C   UNL d   1       3.521   3.313  -1.207  0.00  0.00     0.069 C 
ATOM     12  C   UNL d   1       3.942   4.680  -0.166  0.00  0.00    -0.027 C 
ATOM     13  C   UNL d   1       4.041   5.721  -1.014  0.00  0.00     0.010 C 
ATOM     14  C   UNL d   1       3.681   4.366   1.565  0.00  0.00     0.022 C 
ATOM     15  C   UNL d   1       3.237   6.531  -0.352  0.00  0.00     0.007 C 
ATOM     16  C   UNL d   1       2.949   6.359   1.147  0.00  0.00    -0.060 C 
ATOM     17  C   UNL d   1       2.629   7.572   1.871  0.00  0.00     0.048 C 
ATOM     18  C   UNL d   1       3.125   5.348   2.127  0.00  0.00     0.031 C 
ATOM     19  N   UNL d   1       3.764   2.633   2.327  0.00  0.00    -0.225 NA
ATOM     20  C   UNL d   1       4.059   1.179   1.263  0.00  0.00     0.230 C 
ATOM     21  H   UNL d   1       2.950   2.437   2.899  0.00  0.00     0.137 HD
ATOM     22  O   UNL d   1       3.868  -0.010   1.518  0.00  0.00    -0.274 OA
ENDBRANCH   9  10
ENDBRANCH   1   9
BRANCH   1  23
ATOM     23  C   UNL d   1       4.981   1.922  -3.399  0.00  0.00     0.260 C 
BRANCH  23  24
ATOM     24  C   UNL d   1       5.880   3.220  -3.469  0.00  0.00     0.168 C 
ATOM     25  N   UNL d   1       6.729   3.751  -2.579  0.00  0.00    -0.145 NA
ATOM     26  N   UNL d   1       7.465   4.708  -3.213  0.00  0.00     0.018 NA
ATOM     27  N   UNL d   1       7.046   4.826  -4.464  0.00  0.00    -0.003 NA
ATOM     28  N   UNL d   1       5.950   4.028  -4.566  0.00  0.00    -0.252 N 
BRANCH  28  29
ATOM     29  C   UNL d   1       5.182   3.930  -5.808  0.00  0.00     0.259 C 
BRANCH  29  30
ATOM     30  C   UNL d   1       3.819   3.255  -5.678  0.00  0.00     0.278 C 
ATOM     31  O   UNL d   1       3.236   3.113  -4.615  0.00  0.00    -0.263 OA
BRANCH  30  32
ATOM     32  O   UNL d   1       3.246   2.775  -6.798  0.00  0.00    -0.321 OA
BRANCH  32  33
ATOM     33  C   UNL d   1       2.020   2.022  -6.531  0.00  0.00     0.174 C 
ATOM     34  C   UNL d   1       1.258   1.878  -7.822  0.00  0.00     0.034 C 
ENDBRANCH  32  33
ENDBRANCH  30  32
ENDBRANCH  29  30
ENDBRANCH  28  29
ENDBRANCH  23  24
BRANCH  23  35
ATOM     35  C   UNL d   1       3.978   2.085  -2.488  0.00  0.00     0.041 C 
BRANCH  35  36
ATOM     36  C   UNL d   1       5.204   2.670  -0.826  0.00  0.00    -0.002 C 
ATOM     37  C   UNL d   1       3.574   2.854   0.513  0.00  0.00     0.005 C 
ENDBRANCH  35  36
ENDBRANCH  23  35
ENDBRANCH   1  23
TORSDOF 11
