REMARK  5 active torsions:
REMARK  status: ('A' for Active; 'I' for Inactive)
REMARK       I    between atoms: N_1  and  C_2 
REMARK    1  A    between atoms: C_2  and  C_4 
REMARK    2  A    between atoms: C_4  and  C_5 
REMARK    3  A    between atoms: C_5  and  C_6 
REMARK    4  A    between atoms: N_22  and  C_23 
REMARK    5  A    between atoms: C_23  and  C_24 
ROOT
ATOM      1  C   UNL d   1       5.429  -1.324  -1.849  0.00  0.00     0.237 C 
ATOM      2  N   UNL d   1       5.424  -2.760  -1.516  0.00  0.00     0.113 N 
ATOM      3  C   UNL d   1       4.718  -3.494  -2.568  0.00  0.00     0.279 C 
ATOM      4  C   UNL d   1       3.482  -4.279  -2.010  0.00  0.00     0.267 C 
ATOM      5  O   UNL d   1       2.531  -3.835  -1.388  0.00  0.00    -0.270 OA
ATOM      6  N   UNL d   1       3.616  -5.596  -2.411  0.00  0.00    -0.324 N 
ATOM      7  C   UNL d   1       4.812  -5.796  -3.081  0.00  0.00     0.044 A 
ATOM      8  C   UNL d   1       5.237  -6.946  -3.704  0.00  0.00     0.032 A 
ATOM      9  C   UNL d   1       6.442  -6.884  -4.413  0.00  0.00     0.026 A 
ATOM     10  C   UNL d   1       7.194  -5.696  -4.462  0.00  0.00     0.034 A 
ATOM     11 CL   UNL d   1       8.609  -5.623  -5.440  0.00  0.00    -0.084 Cl
ATOM     12  C   UNL d   1       6.771  -4.553  -3.789  0.00  0.00     0.036 A 
ATOM     13  C   UNL d   1       5.553  -4.614  -3.120  0.00  0.00     0.019 A 
ATOM     14  C   UNL d   1       4.188  -2.494  -3.581  0.00  0.00     0.147 C 
ATOM     15  C   UNL d   1       4.633  -2.686  -5.003  0.00  0.00     0.235 C 
ATOM     16  O   UNL d   1       4.723  -3.740  -5.578  0.00  0.00    -0.272 OA
ATOM     17  N   UNL d   1       4.972  -1.473  -5.534  0.00  0.00    -0.283 N 
ATOM     18  C   UNL d   1       5.549  -0.794  -4.473  0.00  0.00     0.234 C 
ATOM     19  O   UNL d   1       6.499  -0.029  -4.440  0.00  0.00    -0.272 OA
ATOM     20  C   UNL d   1       4.768  -1.155  -3.222  0.00  0.00     0.128 C 
ATOM     21  H   UNL d   1       5.026  -2.955  -0.594  0.00  0.00     0.318 HD
ATOM     22  H   UNL d   1       2.903  -6.287  -2.233  0.00  0.00     0.169 HD
ENDROOT
BRANCH   1  23
ATOM     23  C   UNL d   1       4.669  -0.546  -0.742  0.00  0.00     0.045 C 
BRANCH  23  24
ATOM     24  C   UNL d   1       3.140  -0.670  -0.822  0.00  0.00     0.105 C 
BRANCH  24  25
ATOM     25  C   UNL d   1       2.414   0.100   0.242  0.00  0.00     0.215 C 
ATOM     26  N   UNL d   1       1.055   0.045   0.121  0.00  0.00    -0.370 N 
ATOM     27  H   UNL d   1       0.505   0.547   0.804  0.00  0.00     0.159 HD
ATOM     28  H   UNL d   1       0.578  -0.496  -0.588  0.00  0.00     0.159 HD
ATOM     29  O   UNL d   1       2.958   0.746   1.126  0.00  0.00    -0.274 OA
ENDBRANCH  24  25
ENDBRANCH  23  24
ENDBRANCH   1  23
BRANCH  17  30
ATOM     30  C   UNL d   1       5.253  -1.533  -7.000  0.00  0.00     0.175 C 
BRANCH  30  31
ATOM     31  C   UNL d   1       4.785  -0.458  -7.985  0.00  0.00    -0.018 C 
ATOM     32  C   UNL d   1       4.562  -0.800  -9.362  0.00  0.00     0.010 C 
ATOM     33  C   UNL d   1       4.510   0.189 -10.366  0.00  0.00     0.001 C 
ATOM     34  C   UNL d   1       4.565   1.528 -10.015  0.00  0.00     0.002 C 
ATOM     35  C   UNL d   1       4.598   1.867  -8.675  0.00  0.00     0.024 C 
ATOM     36  C   UNL d   1       4.742   0.901  -7.681  0.00  0.00     0.042 C 
ATOM     37 CL   UNL d   1       4.876   1.585  -6.120  0.00  0.00    -0.084 Cl
ENDBRANCH  30  31
ENDBRANCH  17  30
TORSDOF 5
