REMARK  4 active torsions:
REMARK  status: ('A' for Active; 'I' for Inactive)
REMARK       I    between atoms: C_2  and  N_3 
REMARK    1  A    between atoms: C_2  and  C_17 
REMARK    2  A    between atoms: N_3  and  C_4 
REMARK    3  A    between atoms: C_4  and  C_5 
REMARK    4  A    between atoms: C_8  and  N_9 
ROOT
ATOM      1  C   UNL d   1       3.206   2.800  -2.492  0.00  0.00    -0.025 A 
ATOM      2  C   UNL d   1       4.252   2.295  -3.269  0.00  0.00     0.014 A 
ATOM      3  C   UNL d   1       5.078   3.162  -4.003  0.00  0.00     0.049 A 
ATOM      4  C   UNL d   1       4.867   4.542  -3.961  0.00  0.00     0.102 A 
ATOM      5  N   UNL d   1       3.832   4.979  -3.224  0.00  0.00    -0.352 N 
ATOM      6  C   UNL d   1       3.008   4.180  -2.522  0.00  0.00     0.098 A 
ATOM      7  H   UNL d   1       3.659   5.980  -3.258  0.00  0.00     0.166 HD
ENDROOT
BRANCH   1   8
ATOM      8  C   UNL d   1       2.269   1.902  -1.707  0.00  0.00     0.162 C 
BRANCH   8   9
ATOM      9  N   UNL d   1       2.949   0.984  -0.803  0.00  0.00    -0.353 N 
ATOM     10  C   UNL d   1       2.211   0.074  -0.063  0.00  0.00     0.252 C 
ATOM     11  O   UNL d   1       0.983   0.030  -0.108  0.00  0.00    -0.268 OA
ATOM     12  H   UNL d   1       3.957   0.904  -0.818  0.00  0.00     0.163 HD
BRANCH  10  13
ATOM     13  C   UNL d   1       2.940  -0.890   0.805  0.00  0.00     0.037 A 
ATOM     14  C   UNL d   1       3.966  -0.485   1.659  0.00  0.00     0.036 A 
ATOM     15  C   UNL d   1       4.497  -1.428   2.530  0.00  0.00     0.121 A 
ATOM     16  N   UNL d   1       4.091  -2.712   2.585  0.00  0.00    -0.233 NA
ATOM     17  C   UNL d   1       3.101  -3.075   1.746  0.00  0.00     0.210 A 
ATOM     18  F   UNL d   1       2.682  -4.347   1.800  0.00  0.00    -0.184 F 
ATOM     19  C   UNL d   1       2.499  -2.215   0.847  0.00  0.00     0.080 A 
ENDBRANCH  10  13
ENDBRANCH   8   9
ENDBRANCH   1   8
BRANCH   4  20
ATOM     20  N   UNL d   1       5.598   5.472  -4.644  0.00  0.00    -0.367 N 
ATOM     21  C   UNL d   1       6.374   6.508  -3.957  0.00  0.00     0.124 C 
ATOM     22  C   UNL d   1       5.947   7.864  -4.520  0.00  0.00     0.020 C 
ATOM     23  C   UNL d   1       6.107   7.913  -6.044  0.00  0.00     0.003 C 
ATOM     24  C   UNL d   1       5.445   6.706  -6.721  0.00  0.00     0.020 C 
ATOM     25  C   UNL d   1       5.883   5.379  -6.081  0.00  0.00     0.124 C 
ENDBRANCH   4  20
TORSDOF 4
