REMARK  9 active torsions:
REMARK  status: ('A' for Active; 'I' for Inactive)
REMARK    1  A    between atoms: CG_2  and  CB_4 
REMARK    2  A    between atoms: CA_5  and  CB_4 
REMARK    3  A    between atoms: CA_5  and  C_32 
REMARK    4  A    between atoms: CA_5  and  N_6 
REMARK       I    between atoms: N_6  and  C_7 
REMARK    5  A    between atoms: C_7  and  C_9 
REMARK    6  A    between atoms: C_9  and  C_10 
REMARK    7  A    between atoms: C_9  and  N_20 
REMARK    8  A    between atoms: C_10  and  C_11 
REMARK    9  A    between atoms: C_30  and  O_31 
ROOT
ATOM      1  C   UNK d   0       0.825  -2.026   0.195  0.00  0.00     0.188 C 
ENDROOT
BRANCH   1   2
ATOM      2  C   UNK d   0       2.369  -2.239   0.130  0.00  0.00     0.241 C 
ATOM      3  N   LEU d   1       3.079  -1.343  -0.663  0.00  0.00    -0.345 N 
ATOM      4  H   LEU d   1       2.616  -0.735  -1.320  0.00  0.00     0.163 HD
ATOM      5  O   UNK d   0       2.911  -3.089   0.835  0.00  0.00    -0.271 OA
BRANCH   3   6
ATOM      6  CA  LEU d   1       4.546  -1.296  -0.750  0.00  0.00     0.185 C 
BRANCH   6   7
ATOM      7  C   LEU d   1       5.191  -2.368  -1.697  0.00  0.00     0.196 C 
ATOM      8  O   LEU d   1       4.387  -3.083  -2.367  0.00  0.00    -0.646 OA
ATOM      9  OXT LEU d   1       6.456  -2.334  -1.772  0.00  0.00    -0.646 OA
ENDBRANCH   6   7
BRANCH   6  10
ATOM     10  CB  LEU d   1       5.146  -1.276   0.655  0.00  0.00     0.040 C 
BRANCH  10  11
ATOM     11  CG  LEU d   1       4.629  -0.128   1.573  0.00  0.00    -0.020 C 
ATOM     12  CD1 LEU d   1       3.115   0.064   1.712  0.00  0.00     0.009 C 
ATOM     13  CD2 LEU d   1       5.149  -0.379   2.984  0.00  0.00     0.009 C 
ENDBRANCH  10  11
ENDBRANCH   6  10
ENDBRANCH   3   6
ENDBRANCH   1   2
BRANCH   1  14
ATOM     14  C   UNK d   0       0.302  -2.432  -1.194  0.00  0.00     0.076 C 
BRANCH  14  15
ATOM     15  C   UNK d   0       0.723  -1.560  -2.320  0.00  0.00    -0.028 A 
ATOM     16  C   UNK d   0       1.629  -1.880  -3.310  0.00  0.00     0.096 A 
ATOM     17  N   UNK d   0       1.949  -0.731  -3.979  0.00  0.00    -0.365 N 
ATOM     18  C   UNK d   0       1.225   0.324  -3.464  0.00  0.00     0.042 A 
ATOM     19  H   UNK d   0       2.688  -0.668  -4.667  0.00  0.00     0.165 HD
ATOM     20  C   UNK d   0       1.240   1.685  -3.773  0.00  0.00     0.030 A 
ATOM     21  C   UNK d   0       0.424  -0.184  -2.443  0.00  0.00    -0.002 A 
ATOM     22  C   UNK d   0       0.419   2.527  -3.007  0.00  0.00     0.002 A 
ATOM     23  C   UNK d   0      -0.377   2.036  -1.974  0.00  0.00     0.001 A 
ATOM     24  C   UNK d   0      -0.382   0.678  -1.683  0.00  0.00     0.014 A 
ENDBRANCH  14  15
ENDBRANCH   1  14
BRANCH   1  25
ATOM     25  N   UNK d   0       0.234  -2.776   1.365  0.00  0.00    -0.290 N 
ATOM     26  C   UNK d   0       0.614  -2.439   2.670  0.00  0.00     0.260 C 
ATOM     27  O   UNK d   0       0.553  -1.295   3.134  0.00  0.00    -0.267 OA
ATOM     28  C   UNK d   0       1.140  -3.577   3.499  0.00  0.00     0.058 A 
ATOM     29  C   UNK d   0       1.792  -3.365   4.721  0.00  0.00     0.019 A 
ATOM     30  C   UNK d   0       1.054  -4.870   2.950  0.00  0.00     0.047 A 
ATOM     31  C   UNK d   0       2.339  -4.449   5.414  0.00  0.00     0.001 A 
ATOM     32  C   UNK d   0       2.229  -5.738   4.891  0.00  0.00     0.002 A 
ATOM     33  C   UNK d   0       1.590  -5.946   3.665  0.00  0.00     0.030 A 
ATOM     34  N   UNK d   0       0.402  -5.070   1.742  0.00  0.00    -0.346 N 
ATOM     35  C   UNK d   0      -0.455  -4.027   1.312  0.00  0.00     0.332 C 
ATOM     36  H   UNK d   0       0.454  -5.941   1.245  0.00  0.00     0.164 HD
BRANCH  35  37
ATOM     37  O   UNK d   0      -0.994  -4.355   0.070  0.00  0.00    -0.359 OA
ATOM     38  H   UNK d   0      -0.234  -4.686  -0.427  0.00  0.00     0.214 HD
ENDBRANCH  35  37
ENDBRANCH   1  25
TORSDOF 9
