@<TRIPOS>MOLECULE
*****
 43 44 0 0 0
SMALL
GASTEIGER

@<TRIPOS>ATOM
      1 O           1.1576    0.1264    0.1653 O.2     1  UNL1       -0.2754
      2 C           2.3681   -0.0226   -0.0054 C.2     1  UNL1        0.2186
      3 C           2.9387   -0.9756   -1.0353 C.3     1  UNL1        0.0274
      4 C           1.9951   -1.7791   -1.8974 C.3     1  UNL1       -0.0104
      5 C           2.8057   -2.6963   -2.8255 C.3     1  UNL1        0.0901
      6 O           1.8704   -3.4796   -3.5687 O.3     1  UNL1       -0.4905
      7 C           2.4382   -4.2205   -4.5702 C.ar    1  UNL1        0.1388
      8 C           3.4444   -5.1553   -4.3094 C.ar    1  UNL1       -0.0171
      9 C           3.9616   -5.9311   -5.3505 C.ar    1  UNL1       -0.0398
     10 C           3.4631   -5.7805   -6.6442 C.ar    1  UNL1        0.0426
     11 CL          4.1198   -6.7249   -7.9239 Cl      1  UNL1       -0.0835
     12 C           2.4377   -4.8760   -6.9078 C.ar    1  UNL1       -0.0215
     13 C           1.9182   -4.1055   -5.8665 C.ar    1  UNL1        0.0839
     14 CL          0.6367   -3.0024   -6.2201 Cl      1  UNL1       -0.0797
     15 N           3.2948    0.7056    0.7669 N.am    1  UNL1       -0.2676
     16 C           4.7041    0.6120    0.9039 C.2     1  UNL1        0.1409
     17 S           5.6574   -0.6281    0.2419 S.2     1  UNL1       -0.0182
     18 N           5.2640    1.6449    1.6906 N.am    1  UNL1       -0.2937
     19 C           6.6898    1.8098    1.7704 C.ar    1  UNL1        0.0750
     20 C           7.3616    1.7251    2.9954 C.ar    1  UNL1       -0.0305
     21 C           8.7714    1.6927    3.0199 C.ar    1  UNL1        0.0176
     22 C           9.5016    1.7417    1.8174 C.ar    1  UNL1        0.2767
     23 N          10.9723    1.7428    1.8447 N.pl3   1  UNL1        0.0797
     24 O          11.5321    1.7035    2.9420 O.2     1  UNL1        0.0414
     25 O          11.5655    1.7999    0.7504 O.co2   1  UNL1       -0.5760
     26 C           8.8422    1.8460    0.5931 C.ar    1  UNL1        0.0588
     27 C           7.4537    1.9332    0.5898 C.ar    1  UNL1        0.1444
     28 O           6.8090    2.1708   -0.5985 O.3     1  UNL1       -0.5047
     29 H           3.4900   -1.7343   -0.4778 H       1  UNL1        0.0359
     30 H           3.5871   -0.3880   -1.6964 H       1  UNL1        0.0359
     31 H           1.3471   -1.1208   -2.4826 H       1  UNL1        0.0302
     32 H           1.3420   -2.3901   -1.2644 H       1  UNL1        0.0302
     33 H           3.4595   -3.3467   -2.2295 H       1  UNL1        0.0696
     34 H           3.4342   -2.0959   -3.4991 H       1  UNL1        0.0696
     35 H           3.8158   -5.3105   -3.3007 H       1  UNL1        0.0655
     36 H           4.7459   -6.6559   -5.1453 H       1  UNL1        0.0633
     37 H           2.0437   -4.7715   -7.9147 H       1  UNL1        0.0648
     38 H           2.8055    1.3485    1.3787 H       1  UNL1        0.1565
     39 H           4.7212    2.0085    2.4651 H       1  UNL1        0.1539
     40 H           6.8223    1.6139    3.9330 H       1  UNL1        0.0639
     41 H           9.2885    1.6133    3.9755 H       1  UNL1        0.0686
     42 H           9.3913    1.8832   -0.3439 H       1  UNL1        0.0723
     43 H           7.2947    1.7158   -1.3074 H       1  UNL1        0.2922
@<TRIPOS>UNITY_ATOM_ATTR
23 1
charge 1
25 1
charge -1
@<TRIPOS>BOND
     1     1     2    2
     2     2     3    1
     3     3     4    1
     4     4     5    1
     5     5     6    1
     6     6     7    1
     7     7     8   ar
     8     8     9   ar
     9     9    10   ar
    10    10    11    1
    11    10    12   ar
    12    12    13   ar
    13     7    13   ar
    14    13    14    1
    15     2    15   am
    16    15    16    1
    17    16    17    2
    18    16    18    1
    19    18    19    1
    20    19    20   ar
    21    20    21   ar
    22    21    22   ar
    23    22    23    1
    24    23    24    2
    25    23    25    1
    26    22    26   ar
    27    26    27   ar
    28    19    27   ar
    29    27    28    1
    30     3    29    1
    31     3    30    1
    32     4    31    1
    33     4    32    1
    34     5    33    1
    35     5    34    1
    36     8    35    1
    37     9    36    1
    38    12    37    1
    39    15    38    1
    40    18    39    1
    41    20    40    1
    42    21    41    1
    43    26    42    1
    44    28    43    1
