@<TRIPOS>MOLECULE
*****
 68 69 0 0 0
SMALL
GASTEIGER

@<TRIPOS>ATOM
      1 C           0.7199   -0.5574   -0.2320 C.3     1  UNL1       -0.0653
      2 C           2.2085   -0.8797   -0.4216 C.3     1  UNL1       -0.0559
      3 C           2.8978   -1.3968    0.8978 C.3     1  UNL1       -0.0532
      4 C           4.4406   -1.3931    1.0212 C.3     1  UNL1       -0.0500
      5 C           5.0107   -2.0773    2.2665 C.3     1  UNL1       -0.0186
      6 C           6.5427   -1.8646    2.3075 C.3     1  UNL1        0.0896
      7 O           6.9593   -1.8534    3.6778 O.3     1  UNL1       -0.4912
      8 C           8.3119   -1.7899    3.8938 C.ar    1  UNL1        0.1326
      9 C           8.8561   -2.9164    4.5570 C.ar    1  UNL1       -0.0192
     10 C          10.1915   -2.9484    4.9753 C.ar    1  UNL1       -0.0583
     11 C          11.0216   -1.8820    4.6748 C.ar    1  UNL1       -0.0608
     12 C          10.4890   -0.7616    4.0309 C.ar    1  UNL1       -0.0461
     13 C           9.1218   -0.6670    3.6584 C.ar    1  UNL1        0.0786
     14 C           8.7397    0.6542    3.0272 C.2     1  UNL1        0.2530
     15 O           9.6725    1.3761    2.6835 O.2     1  UNL1       -0.2697
     16 N           7.3885    1.0213    2.8947 N.am    1  UNL1       -0.2635
     17 C           6.8428    1.9885    2.0179 C.2     1  UNL1        0.1401
     18 S           7.7898    3.1677    1.2615 S.2     1  UNL1       -0.0183
     19 N           5.4710    1.8577    1.6736 N.am    1  UNL1       -0.2988
     20 C           5.0715    2.3596    0.2977 C.3     1  UNL1        0.0301
     21 C           4.0629    1.4634   -0.3189 C.3     1  UNL1        0.0274
     22 N           2.9154    1.5689    0.5717 N.am    1  UNL1       -0.3123
     23 C           2.9433    1.4458    1.9261 C.2     1  UNL1        0.2341
     24 O           1.8557    1.2240    2.4486 O.2     1  UNL1       -0.2738
     25 C           4.2788    1.7275    2.6656 C.3     1  UNL1        0.1113
     26 C           4.5609    0.7971    3.8546 C.3     1  UNL1        0.0720
     27 C           3.4450    0.1866    4.6751 C.2     1  UNL1        0.3096
     28 O           2.3175    0.6795    4.7873 O.2     1  UNL1       -0.2508
     29 O           3.8275   -0.9229    5.3922 O.3     1  UNL1       -0.4616
     30 C           2.7704   -1.4281    6.2563 C.3     1  UNL1        0.1000
     31 C           1.7057   -2.1655    5.4342 C.3     1  UNL1       -0.0277
     32 C           3.3302   -2.3541    7.3505 C.3     1  UNL1       -0.0188
     33 C           2.2397   -2.8009    8.3270 C.3     1  UNL1       -0.0619
     34 H           0.3332   -0.0180   -1.1094 H       1  UNL1        0.0230
     35 H           0.5222    0.1240    0.6077 H       1  UNL1        0.0230
     36 H           0.1505   -1.4637   -0.0611 H       1  UNL1        0.0230
     37 H           2.5418    0.0308   -0.9009 H       1  UNL1        0.0263
     38 H           2.4541   -1.5417   -1.2521 H       1  UNL1        0.0263
     39 H           2.5510   -2.4161    1.0476 H       1  UNL1        0.0265
     40 H           2.5152   -0.8844    1.7827 H       1  UNL1        0.0265
     41 H           4.7963   -0.3768    1.1443 H       1  UNL1        0.0266
     42 H           4.9315   -1.7735    0.1246 H       1  UNL1        0.0266
     43 H           4.7367   -3.1258    2.3354 H       1  UNL1        0.0298
     44 H           4.5398   -1.6845    3.1667 H       1  UNL1        0.0298
     45 H           6.7881   -0.9093    1.8423 H       1  UNL1        0.0696
     46 H           7.0609   -2.6121    1.7053 H       1  UNL1        0.0696
     47 H           8.2349   -3.7872    4.7619 H       1  UNL1        0.0654
     48 H          10.5829   -3.7945    5.5384 H       1  UNL1        0.0619
     49 H          12.0762   -1.9074    4.9439 H       1  UNL1        0.0618
     50 H          11.1668    0.0705    3.8353 H       1  UNL1        0.0626
     51 H           6.7969    0.3616    3.3591 H       1  UNL1        0.1568
     52 H           5.8933    2.4258   -0.4157 H       1  UNL1        0.0480
     53 H           4.5714    3.3267    0.3997 H       1  UNL1        0.0480
     54 H           4.4823    0.4574   -0.4627 H       1  UNL1        0.0477
     55 H           3.7509    1.7279   -1.3351 H       1  UNL1        0.0477
     56 H           1.9746    1.4363    0.2317 H       1  UNL1        0.1488
     57 H           4.0996    2.7338    3.0584 H       1  UNL1        0.0602
     58 H           5.2719    1.2590    4.5452 H       1  UNL1        0.0401
     59 H           5.0875   -0.0151    3.4049 H       1  UNL1        0.0401
     60 H           2.3223   -0.5695    6.7724 H       1  UNL1        0.0731
     61 H           2.1284   -3.0618    4.9688 H       1  UNL1        0.0265
     62 H           1.2971   -1.5506    4.6297 H       1  UNL1        0.0265
     63 H           0.8560   -2.4614    6.0560 H       1  UNL1        0.0265
     64 H           4.1198   -1.8355    7.9073 H       1  UNL1        0.0298
     65 H           3.8033   -3.2340    6.8989 H       1  UNL1        0.0298
     66 H           1.7623   -1.9349    8.7987 H       1  UNL1        0.0231
     67 H           2.6527   -3.4386    9.1127 H       1  UNL1        0.0231
     68 H           1.4580   -3.3839    7.8298 H       1  UNL1        0.0231
@<TRIPOS>BOND
     1     1     2    1
     2     2     3    1
     3     3     4    1
     4     4     5    1
     5     5     6    1
     6     6     7    1
     7     7     8    1
     8     8     9   ar
     9     9    10   ar
    10    10    11   ar
    11    11    12   ar
    12    12    13   ar
    13     8    13   ar
    14    13    14    1
    15    14    15    2
    16    14    16   am
    17    16    17    1
    18    17    18    2
    19    17    19    1
    20    19    20    1
    21    20    21    1
    22    21    22    1
    23    22    23   am
    24    23    24    2
    25    23    25    1
    26    19    25    1
    27    25    26    1
    28    26    27    1
    29    27    28    2
    30    27    29    1
    31    29    30    1
    32    30    31    1
    33    30    32    1
    34    32    33    1
    35     1    34    1
    36     1    35    1
    37     1    36    1
    38     2    37    1
    39     2    38    1
    40     3    39    1
    41     3    40    1
    42     4    41    1
    43     4    42    1
    44     5    43    1
    45     5    44    1
    46     6    45    1
    47     6    46    1
    48     9    47    1
    49    10    48    1
    50    11    49    1
    51    12    50    1
    52    16    51    1
    53    20    52    1
    54    20    53    1
    55    21    54    1
    56    21    55    1
    57    22    56    1
    58    25    57    1
    59    26    58    1
    60    26    59    1
    61    30    60    1
    62    31    61    1
    63    31    62    1
    64    31    63    1
    65    32    64    1
    66    32    65    1
    67    33    66    1
    68    33    67    1
    69    33    68    1
