@<TRIPOS>MOLECULE
*****
 34 35 0 0 0
SMALL
GASTEIGER

@<TRIPOS>ATOM
      1 C           2.4901    1.1849   -0.0009 C.3     1  UNL1       -0.0396
      2 C           1.2486    0.3390    0.0046 C.ar    1  UNL1       -0.0470
      3 C           1.3002   -1.0569    0.0194 C.ar    1  UNL1       -0.0579
      4 C           0.1198   -1.8241    0.0010 C.ar    1  UNL1       -0.0458
      5 C          -1.1462   -1.2177   -0.0208 C.ar    1  UNL1        0.0795
      6 C          -2.4221   -2.0308   -0.0651 C.2     1  UNL1        0.2637
      7 O          -3.5039   -1.4379   -0.0776 O.2     1  UNL1       -0.2685
      8 N          -2.3360   -3.4256   -0.0961 N.am    1  UNL1       -0.2303
      9 N          -3.5157   -4.2179   -0.1900 N.am    1  UNL1       -0.2339
     10 C          -3.4386   -5.6072   -0.2200 C.2     1  UNL1        0.2324
     11 O          -2.3809   -6.2382   -0.2120 O.2     1  UNL1       -0.2740
     12 C          -4.7746   -6.2984   -0.2292 C.3     1  UNL1        0.0398
     13 C          -5.1040   -7.6962   -0.7401 C.3     1  UNL1       -0.0383
     14 C          -5.4160   -6.5099   -1.6025 C.3     1  UNL1       -0.0320
     15 C          -6.7948   -6.0668   -1.9508 C.3     1  UNL1       -0.0617
     16 C          -1.1819    0.1935   -0.0113 C.ar    1  UNL1        0.1292
     17 O          -2.3367    0.9341   -0.0037 O.3     1  UNL1       -0.5060
     18 C          -0.0043    0.9564   -0.0065 C.ar    1  UNL1       -0.0165
     19 H           3.4016    0.5783    0.0029 H       1  UNL1        0.0278
     20 H           2.5111    1.8301    0.8841 H       1  UNL1        0.0278
     21 H           2.5116    1.8153   -0.8968 H       1  UNL1        0.0278
     22 H           2.2614   -1.5685    0.0417 H       1  UNL1        0.0620
     23 H           0.2361   -2.9014    0.0031 H       1  UNL1        0.0626
     24 H          -1.4682   -3.9528   -0.0827 H       1  UNL1        0.1731
     25 H          -4.4031   -3.7202   -0.1602 H       1  UNL1        0.1728
     26 H          -5.3328   -6.1022    0.6810 H       1  UNL1        0.0397
     27 H          -5.9261   -8.2256   -0.2588 H       1  UNL1        0.0275
     28 H          -4.3258   -8.3755   -1.0712 H       1  UNL1        0.0275
     29 H          -4.7807   -6.3931   -2.4758 H       1  UNL1        0.0306
     30 H          -7.5432   -6.2024   -1.1648 H       1  UNL1        0.0233
     31 H          -7.1376   -6.6060   -2.8428 H       1  UNL1        0.0233
     32 H          -6.7676   -5.0054   -2.2222 H       1  UNL1        0.0233
     33 H          -3.0988    0.3175   -0.0001 H       1  UNL1        0.2922
     34 H          -0.0683    2.0438   -0.0124 H       1  UNL1        0.0657
@<TRIPOS>BOND
     1     1     2    1
     2     2     3   ar
     3     3     4   ar
     4     4     5   ar
     5     5     6    1
     6     6     7    2
     7     6     8   am
     8     8     9    1
     9     9    10   am
    10    10    11    2
    11    10    12    1
    12    12    13    1
    13    13    14    1
    14    12    14    1
    15     5    16   ar
    16    16    17    1
    17    16    18   ar
    18     2    18   ar
    19    14    15    1
    20     1    19    1
    21     1    20    1
    22     1    21    1
    23     3    22    1
    24     4    23    1
    25     8    24    1
    26     9    25    1
    27    12    26    1
    28    13    27    1
    29    13    28    1
    30    14    29    1
    31    15    30    1
    32    15    31    1
    33    15    32    1
    34    17    33    1
    35    18    34    1
