REMARK  5 active torsions:
REMARK  status: ('A' for Active; 'I' for Inactive)
REMARK    1  A    between atoms: O_1  and  C_2 
REMARK    2  A    between atoms: C_4  and  N_5 
REMARK    3  A    between atoms: N_5  and  C_6 
REMARK    4  A    between atoms: C_13  and  N_14 
REMARK    5  A    between atoms: N_14  and  C_15 
ROOT
ATOM      1  C   UNL d   1      -0.904   0.075  -0.537  0.00  0.00     0.142 C 
ATOM      2  C   UNL d   1      -0.126  -1.214  -0.399  0.00  0.00     0.059 C 
ATOM      3  C   UNL d   1       1.068  -0.851   0.538  0.00  0.00     0.086 C 
ATOM      4  C   UNL d   1       1.190   0.693   0.513  0.00  0.00     0.052 C 
ATOM      5  C   UNL d   1       0.173   1.179  -0.537  0.00  0.00     0.112 C 
ENDROOT
BRANCH   3   6
ATOM      6  N   UNL d   1       0.874  -1.444   1.835  0.00  0.00    -0.385 N 
ATOM      7  H   UNL d   1       0.906  -0.856   2.656  0.00  0.00     0.160 HD
BRANCH   6   8
ATOM      8  C   UNL d   1       0.921  -2.830   1.966  0.00  0.00     0.028 C 
ATOM      9  C   UNL d   1       1.006  -3.727   0.879  0.00  0.00     0.029 C 
ATOM     10  C   UNL d   1       0.735  -5.085   1.031  0.00  0.00     0.002 C 
ATOM     11  C   UNL d   1       0.505  -5.593   2.301  0.00  0.00     0.000 C 
ATOM     12  C   UNL d   1       0.526  -4.738   3.401  0.00  0.00     0.002 C 
ATOM     13  C   UNL d   1       0.720  -3.368   3.231  0.00  0.00     0.029 C 
ENDBRANCH   6   8
ENDBRANCH   3   6
BRANCH   1  14
ATOM     14  O   UNL d   1      -1.760   0.176   0.609  0.00  0.00    -0.393 OA
ATOM     15  H   UNL d   1      -2.172  -0.702   0.729  0.00  0.00     0.210 HD
ENDBRANCH   1  14
BRANCH   5  16
ATOM     16  N   UNL d   1       0.759   1.501  -1.883  0.00  0.00    -0.383 N 
ATOM     17  H   UNL d   1       0.545   2.438  -2.212  0.00  0.00     0.160 HD
BRANCH  16  18
ATOM     18  C   UNL d   1       1.520   0.712  -2.724  0.00  0.00     0.028 C 
ATOM     19  C   UNL d   1       2.058  -0.491  -2.332  0.00  0.00     0.029 C 
ATOM     20  C   UNL d   1       2.650  -1.486  -3.077  0.00  0.00     0.002 C 
ATOM     21  C   UNL d   1       2.913  -1.185  -4.386  0.00  0.00     0.000 C 
ATOM     22  C   UNL d   1       2.550   0.084  -4.844  0.00  0.00     0.002 C 
ATOM     23  C   UNL d   1       1.828   1.013  -4.045  0.00  0.00     0.029 C 
ENDBRANCH  16  18
ENDBRANCH   5  16
TORSDOF 5
