REMARK  5 active torsions:
REMARK  status: ('A' for Active; 'I' for Inactive)
REMARK       I    between atoms: N_13  and  C_14 
REMARK    1  A    between atoms: C_14  and  C_16 
REMARK    2  A    between atoms: C_16  and  S_17 
REMARK    3  A    between atoms: S_17  and  C_18 
REMARK    4  A    between atoms: C_21  and  N_22 
REMARK    5  A    between atoms: N_22  and  C_23 
ROOT
ATOM      1  C   UNL d   1       1.013   0.075  -0.087  0.00  0.00     0.033 C 
ATOM      2  C   UNL d   1       2.540   0.095   0.075  0.00  0.00     0.097 C 
ATOM      3  C   UNL d   1       2.996  -1.334   0.393  0.00  0.00     0.122 C 
ATOM      4  C   UNL d   1       4.457  -1.551   0.134  0.00  0.00     0.203 C 
ATOM      5  O   UNL d   1       4.856  -2.267  -0.801  0.00  0.00    -0.279 OA
ATOM      6  N   UNL d   1       5.340  -0.921   0.963  0.00  0.00    -0.227 NA
ATOM      7  C   UNL d   1       5.551   0.447   0.700  0.00  0.00     0.042 A 
ATOM      8  C   UNL d   1       6.879   0.720   0.325  0.00  0.00     0.026 A 
ATOM      9  C   UNL d   1       7.236   1.974  -0.135  0.00  0.00     0.002 A 
ATOM     10  C   UNL d   1       6.264   2.969  -0.172  0.00  0.00     0.002 A 
ATOM     11  C   UNL d   1       4.935   2.719   0.265  0.00  0.00     0.031 A 
ATOM     12  C   UNL d   1       4.535   1.441   0.708  0.00  0.00     0.059 A 
ATOM     13  N   UNL d   1       3.110   1.132   1.008  0.00  0.00    -0.311 N 
ATOM     14  C   UNL d   1       2.501   1.727   2.159  0.00  0.00     0.234 C 
ATOM     15  O   UNL d   1       3.145   2.523   2.855  0.00  0.00    -0.272 OA
ATOM     16  H   UNL d   1       5.240  -1.116   1.953  0.00  0.00     0.136 HD
ENDROOT
BRANCH  14  17
ATOM     17  C   UNL d   1       1.018   1.356   2.573  0.00  0.00     0.184 C 
BRANCH  17  18
ATOM     18  S   UNL d   1       0.427   2.206   4.099  0.00  0.00    -0.092 SA
BRANCH  18  19
ATOM     19  C   UNL d   1      -1.268   1.719   4.324  0.00  0.00     0.160 A 
ATOM     20  N   UNL d   1      -1.687   0.474   4.407  0.00  0.00    -0.133 NA
ATOM     21  N   UNL d   1      -3.057   0.389   4.704  0.00  0.00    -0.122 NA
ATOM     22  C   UNL d   1      -3.655   1.565   4.815  0.00  0.00     0.195 A 
ATOM     23  S   UNL d   1      -2.506   2.867   4.648  0.00  0.00    -0.022 SA
BRANCH  22  24
ATOM     24  N   UNL d   1      -4.994   1.735   5.075  0.00  0.00    -0.334 N 
ATOM     25  H   UNL d   1      -5.546   0.922   5.329  0.00  0.00     0.168 HD
BRANCH  24  26
ATOM     26  C   UNL d   1      -5.682   2.966   5.130  0.00  0.00     0.034 C 
ATOM     27  C   UNL d   1      -5.578   3.882   4.076  0.00  0.00     0.029 C 
ATOM     28  C   UNL d   1      -5.992   5.205   4.227  0.00  0.00     0.002 C 
ATOM     29  C   UNL d   1      -6.637   5.599   5.393  0.00  0.00     0.000 C 
ATOM     30  C   UNL d   1      -6.896   4.659   6.390  0.00  0.00     0.002 C 
ATOM     31  C   UNL d   1      -6.390   3.356   6.276  0.00  0.00     0.029 C 
ENDBRANCH  24  26
ENDBRANCH  22  24
ENDBRANCH  18  19
ENDBRANCH  17  18
ENDBRANCH  14  17
TORSDOF 5
