@<TRIPOS>MOLECULE
*****
 38 40 0 0 0
SMALL
GASTEIGER

@<TRIPOS>ATOM
      1 O           0.9866   -0.2081    0.0289 O.2     1  UNL1       -0.2744
      2 C           2.1940   -0.0385   -0.0104 C.2     1  UNL1        0.2303
      3 N           2.8340    1.1994   -0.1470 N.am    1  UNL1       -0.2847
      4 C           2.1995    2.4069   -0.4132 C.ar    1  UNL1        0.0335
      5 C           2.7210    3.3100   -1.3553 C.ar    1  UNL1       -0.0387
      6 C           2.1294    4.5705   -1.5099 C.ar    1  UNL1       -0.0388
      7 C           0.9994    4.8991   -0.7553 C.ar    1  UNL1        0.0314
      8 N           0.3168    6.1104   -0.9421 N.pl3   1  UNL1       -0.3145
      9 C          -0.8048    6.5411   -0.2142 C.ar    1  UNL1        0.0313
     10 C          -2.0294    6.7786   -0.8408 C.ar    1  UNL1       -0.0405
     11 C          -3.1271    7.2058   -0.0879 C.ar    1  UNL1       -0.0600
     12 C          -3.0303    7.3102    1.3011 C.ar    1  UNL1       -0.0616
     13 C          -1.8293    7.0216    1.9392 C.ar    1  UNL1       -0.0600
     14 C          -0.7234    6.6563    1.1812 C.ar    1  UNL1       -0.0405
     15 C           0.5382    3.9782    0.1977 C.ar    1  UNL1       -0.0388
     16 C           1.1202    2.7440    0.3663 C.ar    1  UNL1       -0.0387
     17 C           3.2240   -1.1928    0.1058 C.3     1  UNL1        0.1009
     18 C           2.6230   -2.5809    0.2771 C.2     1  UNL1       -0.0649
     19 C           2.9777   -3.6232   -0.4848 C.2     1  UNL1       -0.0488
     20 C           3.8780   -3.3507   -1.6079 C.2     1  UNL1        0.0174
     21 N           4.4335   -2.2293   -1.8932 N.am    1  UNL1       -0.2184
     22 C           4.2727   -1.1572   -1.0537 C.2     1  UNL1        0.0897
     23 S           5.3280    0.1588   -1.2886 S.2     1  UNL1       -0.0370
     24 H           3.8310    1.2030   -0.3324 H       1  UNL1        0.1548
     25 H           3.5414    3.0323   -2.0160 H       1  UNL1        0.0637
     26 H           2.5460    5.2752   -2.2271 H       1  UNL1        0.0637
     27 H           0.5774    6.6820   -1.7339 H       1  UNL1        0.1522
     28 H          -2.1506    6.5933   -1.9052 H       1  UNL1        0.0636
     29 H          -4.0621    7.4528   -0.5832 H       1  UNL1        0.0618
     30 H          -3.8937    7.6080    1.8886 H       1  UNL1        0.0618
     31 H          -1.7413    7.0850    3.0192 H       1  UNL1        0.0618
     32 H           0.2154    6.4269    1.6811 H       1  UNL1        0.0636
     33 H          -0.3099    4.1925    0.8348 H       1  UNL1        0.0637
     34 H           0.7487    2.0746    1.1325 H       1  UNL1        0.0637
     35 H           3.7431   -1.0123    1.0590 H       1  UNL1        0.0505
     36 H           1.9424   -2.7592    1.1096 H       1  UNL1        0.0584
     37 H           2.6433   -4.6419   -0.3362 H       1  UNL1        0.0628
     38 H           4.0958   -4.2049   -2.2659 H       1  UNL1        0.0802
@<TRIPOS>BOND
     1     1     2    2
     2     2     3   am
     3     3     4    1
     4     4     5   ar
     5     5     6   ar
     6     6     7   ar
     7     7     8    1
     8     8     9    1
     9     9    10   ar
    10    10    11   ar
    11    11    12   ar
    12    12    13   ar
    13    13    14   ar
    14     9    14   ar
    15     7    15   ar
    16    15    16   ar
    17     4    16   ar
    18     2    17    1
    19    17    18    1
    20    18    19    2
    21    19    20    1
    22    20    21    2
    23    21    22    1
    24    17    22    1
    25    22    23    2
    26     3    24    1
    27     5    25    1
    28     6    26    1
    29     8    27    1
    30    10    28    1
    31    11    29    1
    32    12    30    1
    33    13    31    1
    34    14    32    1
    35    15    33    1
    36    16    34    1
    37    17    35    1
    38    18    36    1
    39    19    37    1
    40    20    38    1
