@<TRIPOS>MOLECULE
*****
 45 45 0 0 0
SMALL
GASTEIGER

@<TRIPOS>ATOM
      1 C           1.0120    0.0754    0.0532 C.3     1  UNL1       -0.0626
      2 C           2.5454    0.0461    0.0527 C.3     1  UNL1       -0.0453
      3 C           3.0209   -0.9145    1.1450 C.3     1  UNL1       -0.0626
      4 C           3.0913   -0.3496   -1.3439 C.3     1  UNL1       -0.0350
      5 C           4.6298   -0.3559   -1.4152 C.3     1  UNL1        0.0133
      6 N           5.1871   -0.7196   -2.7190 N.am    1  UNL1       -0.2982
      7 C           6.5552   -0.8030   -2.9058 C.2     1  UNL1        0.3160
      8 O           7.3721   -0.5488   -2.0169 O.2     1  UNL1       -0.2513
      9 N           6.9518   -1.1887   -4.1745 N.am    1  UNL1       -0.2181
     10 N           8.3525   -1.2843   -4.4882 N.am    1  UNL1       -0.2304
     11 C           8.7417   -1.6519   -5.7756 C.2     1  UNL1        0.2667
     12 O           7.8980   -1.9162   -6.6363 O.2     1  UNL1       -0.2705
     13 C          10.2756   -1.7183   -6.0464 C.3     1  UNL1        0.1666
     14 O          10.5374   -1.9903   -7.4339 O.3     1  UNL1       -0.4827
     15 C          11.8272   -2.2368   -7.8240 C.ar    1  UNL1        0.1212
     16 C          12.1807   -1.8399   -9.1225 C.ar    1  UNL1       -0.0196
     17 C          13.4470   -2.1301   -9.6637 C.ar    1  UNL1       -0.0542
     18 C          14.4143   -2.7706   -8.8858 C.ar    1  UNL1       -0.0334
     19 C          15.8418   -2.9390   -9.4144 C.3     1  UNL1        0.0598
     20 C          16.6918   -3.6146   -8.3506 C.1     1  UNL1        0.0672
     21 N          17.3968   -4.1749   -7.4681 N.1     1  UNL1       -0.1962
     22 C          14.0282   -3.2020   -7.5979 C.ar    1  UNL1       -0.0542
     23 C          12.7559   -2.9415   -7.0741 C.ar    1  UNL1       -0.0196
     24 H           0.6268    0.3756    1.0354 H       1  UNL1        0.0232
     25 H           0.5981   -0.9123   -0.1773 H       1  UNL1        0.0232
     26 H           0.6284    0.7870   -0.6845 H       1  UNL1        0.0232
     27 H           2.8998    1.0556    0.2998 H       1  UNL1        0.0296
     28 H           2.6901   -1.9367    0.9326 H       1  UNL1        0.0232
     29 H           2.6256   -0.6252    2.1245 H       1  UNL1        0.0232
     30 H           4.1103   -0.9183    1.2321 H       1  UNL1        0.0232
     31 H           2.6950    0.3510   -2.0904 H       1  UNL1        0.0283
     32 H           2.7042   -1.3403   -1.6135 H       1  UNL1        0.0283
     33 H           5.0382   -1.0688   -0.6924 H       1  UNL1        0.0462
     34 H           5.0122    0.6367   -1.1497 H       1  UNL1        0.0462
     35 H           4.5574   -0.9861   -3.4617 H       1  UNL1        0.1503
     36 H           6.3080   -1.4124   -4.9283 H       1  UNL1        0.1744
     37 H           8.9912   -1.0538   -3.7284 H       1  UNL1        0.1729
     38 H          10.6924   -2.4929   -5.3940 H       1  UNL1        0.0795
     39 H          10.7225   -0.7476   -5.8044 H       1  UNL1        0.0795
     40 H          11.4660   -1.2836   -9.7251 H       1  UNL1        0.0654
     41 H          13.6654   -1.8465  -10.6920 H       1  UNL1        0.0622
     42 H          16.2627   -1.9531   -9.6384 H       1  UNL1        0.0467
     43 H          15.8377   -3.5510  -10.3221 H       1  UNL1        0.0467
     44 H          14.7061   -3.7630   -6.9546 H       1  UNL1        0.0622
     45 H          12.5300   -3.3300   -6.0879 H       1  UNL1        0.0654
@<TRIPOS>BOND
     1     1     2    1
     2     2     3    1
     3     2     4    1
     4     4     5    1
     5     5     6    1
     6     6     7   am
     7     7     8    2
     8     7     9   am
     9     9    10    1
    10    10    11   am
    11    11    12    2
    12    11    13    1
    13    13    14    1
    14    14    15    1
    15    15    16   ar
    16    16    17   ar
    17    17    18   ar
    18    18    19    1
    19    19    20    1
    20    20    21    3
    21    18    22   ar
    22    22    23   ar
    23    15    23   ar
    24     1    24    1
    25     1    25    1
    26     1    26    1
    27     2    27    1
    28     3    28    1
    29     3    29    1
    30     3    30    1
    31     4    31    1
    32     4    32    1
    33     5    33    1
    34     5    34    1
    35     6    35    1
    36     9    36    1
    37    10    37    1
    38    13    38    1
    39    13    39    1
    40    16    40    1
    41    17    41    1
    42    19    42    1
    43    19    43    1
    44    22    44    1
    45    23    45    1
