@<TRIPOS>MOLECULE
*****
 53 55 0 0 0
SMALL
GASTEIGER

@<TRIPOS>ATOM
      1 C           1.1229   -0.3040    0.1851 C.3     1  UNL1       -0.0191
      2 C           2.6177   -0.0379    0.0707 C.3     1  UNL1        0.1730
      3 O           2.9142    1.2132   -0.5927 O.3     1  UNL1       -0.4784
      4 C           2.5655    1.3328   -1.9223 C.ar    1  UNL1        0.1398
      5 C           3.6140    1.6506   -2.8036 C.ar    1  UNL1       -0.0184
      6 C           3.3753    1.8296   -4.1774 C.ar    1  UNL1       -0.0582
      7 C           2.1047    1.6221   -4.7020 C.ar    1  UNL1       -0.0602
      8 C           1.0568    1.3430   -3.8431 C.ar    1  UNL1       -0.0398
      9 C           1.2627    1.3291   -2.4614 C.ar    1  UNL1        0.0826
     10 CL         -0.2138    1.6177   -1.5943 Cl      1  UNL1       -0.0798
     11 C           3.1062   -0.0033    1.5375 C.2     1  UNL1        0.2577
     12 O           2.2940   -0.0441    2.4681 O.2     1  UNL1       -0.2714
     13 N           4.4804    0.0665    1.7452 N.am    1  UNL1       -0.2825
     14 C           5.0180   -0.0309    3.0473 C.ar    1  UNL1        0.0336
     15 C           6.1371    0.6757    3.4998 C.ar    1  UNL1       -0.0387
     16 C           6.6393    0.4941    4.8346 C.ar    1  UNL1       -0.0388
     17 C           6.0164   -0.4017    5.7223 C.ar    1  UNL1        0.0327
     18 N           6.4001   -0.5954    7.1141 N.am    1  UNL1       -0.2966
     19 C           5.7072   -1.3956    8.0866 C.2     1  UNL1        0.1411
     20 S           4.2371   -2.2091    7.8817 S.2     1  UNL1       -0.0182
     21 N           6.3642   -1.5085    9.3289 N.am    1  UNL1       -0.2634
     22 C           5.8010   -2.1706   10.4396 C.2     1  UNL1        0.2561
     23 O           4.8720   -2.9849   10.4241 O.2     1  UNL1       -0.2696
     24 C           6.3180   -2.0164   11.8034 C.ar    1  UNL1        0.1139
     25 C           6.3464   -3.2340   12.5421 C.ar    1  UNL1       -0.0431
     26 C           6.5684   -3.2522   13.9147 C.ar    1  UNL1       -0.0606
     27 C           6.8350   -2.0590   14.5676 C.ar    1  UNL1       -0.0553
     28 C           6.7994   -0.8517   13.8636 C.ar    1  UNL1        0.0164
     29 C           6.5183   -0.8156   12.4850 C.ar    1  UNL1        0.2852
     30 N           6.4264    0.5013   11.8448 N.pl3   1  UNL1        0.0804
     31 O           6.7331    1.4903   12.5383 O.2     1  UNL1        0.0415
     32 O           6.1266    0.5836   10.6600 O.co2   1  UNL1       -0.5760
     33 C           4.9758   -1.1254    5.1627 C.ar    1  UNL1       -0.0388
     34 C           4.4457   -0.9310    3.9073 C.ar    1  UNL1       -0.0387
     35 H           0.7315   -0.5980   -0.7867 H       1  UNL1        0.0270
     36 H           0.6386    0.6039    0.5689 H       1  UNL1        0.0270
     37 H           0.8441   -1.1149    0.8615 H       1  UNL1        0.0270
     38 H           3.1069   -0.8816   -0.4341 H       1  UNL1        0.0829
     39 H           4.6241    1.8106   -2.4315 H       1  UNL1        0.0654
     40 H           4.1773    2.1363   -4.8453 H       1  UNL1        0.0619
     41 H           1.9011    1.7429   -5.7620 H       1  UNL1        0.0618
     42 H           0.0497    1.2281   -4.2369 H       1  UNL1        0.0633
     43 H           5.0983    0.2638    0.9727 H       1  UNL1        0.1549
     44 H           6.5815    1.4290    2.8539 H       1  UNL1        0.0637
     45 H           7.5208    1.0641    5.1207 H       1  UNL1        0.0637
     46 H           7.1516    0.0125    7.4280 H       1  UNL1        0.1538
     47 H           7.0230   -0.7703    9.5390 H       1  UNL1        0.1568
     48 H           6.1276   -4.1844   12.0441 H       1  UNL1        0.0627
     49 H           6.5076   -4.1870   14.4695 H       1  UNL1        0.0618
     50 H           7.0578   -2.0635   15.6314 H       1  UNL1        0.0620
     51 H           6.9679    0.0684   14.4204 H       1  UNL1        0.0685
     52 H           4.4794   -1.9425    5.6332 H       1  UNL1        0.0637
     53 H           3.5947   -1.5545    3.6468 H       1  UNL1        0.0637
@<TRIPOS>UNITY_ATOM_ATTR
30 1
charge 1
32 1
charge -1
@<TRIPOS>BOND
     1     1     2    1
     2     2     3    1
     3     3     4    1
     4     4     5   ar
     5     5     6   ar
     6     6     7   ar
     7     7     8   ar
     8     8     9   ar
     9     4     9   ar
    10     9    10    1
    11     2    11    1
    12    11    12    2
    13    11    13   am
    14    13    14    1
    15    14    15   ar
    16    15    16   ar
    17    16    17   ar
    18    17    18    1
    19    18    19    1
    20    19    20    2
    21    19    21    1
    22    21    22   am
    23    22    23    2
    24    22    24    1
    25    24    25   ar
    26    25    26   ar
    27    26    27   ar
    28    27    28   ar
    29    28    29   ar
    30    24    29   ar
    31    29    30    1
    32    30    31    2
    33    30    32    1
    34    17    33   ar
    35    33    34   ar
    36    14    34   ar
    37     1    35    1
    38     1    36    1
    39     1    37    1
    40     2    38    1
    41     5    39    1
    42     6    40    1
    43     7    41    1
    44     8    42    1
    45    13    43    1
    46    15    44    1
    47    16    45    1
    48    18    46    1
    49    21    47    1
    50    25    48    1
    51    26    49    1
    52    27    50    1
    53    28    51    1
    54    33    52    1
    55    34    53    1
