REMARK  7 active torsions:
REMARK  status: ('A' for Active; 'I' for Inactive)
REMARK    1  A    between atoms: O_2  and  C_3 
REMARK    2  A    between atoms: C_6  and  C_7 
REMARK       I    between atoms: C_7  and  N_9 
REMARK       I    between atoms: C_10  and  N_11 
REMARK       I    between atoms: C_10  and  N_23 
REMARK    3  A    between atoms: N_11  and  C_12 
REMARK    4  A    between atoms: C_12  and  C_13 
REMARK    5  A    between atoms: C_13  and  C_14 
REMARK    6  A    between atoms: N_23  and  C_24 
REMARK    7  A    between atoms: C_32  and  O_33 
ROOT
ATOM      1  C   UNL d   1       5.346   4.436   2.079  0.00  0.00     0.294 C 
ATOM      2  O   UNL d   1       6.380   4.757   1.523  0.00  0.00    -0.265 OA
ATOM      3  N   UNL d   1       4.780   5.101   3.155  0.00  0.00    -0.023 NA
ATOM      4  C   UNL d   1       5.291   6.228   3.559  0.00  0.00     0.704 C 
ATOM      5  N   UNL d   1       4.620   6.951   4.517  0.00  0.00    -0.224 N 
ATOM      6  N   UNL d   1       6.410   6.857   3.064  0.00  0.00    -0.190 N 
ATOM      7  H   UNL d   1       5.043   7.838   4.769  0.00  0.00     0.177 HD
ATOM      8  H   UNL d   1       6.881   6.316   2.331  0.00  0.00     0.184 HD
ENDROOT
BRANCH   5   9
ATOM      9  C   UNL d   1       3.610   6.388   5.385  0.00  0.00     0.142 C 
BRANCH   9  10
ATOM     10  C   UNL d   1       3.361   7.250   6.621  0.00  0.00     0.057 C 
BRANCH  10  11
ATOM     11  C   UNL d   1       2.140   6.900   7.418  0.00  0.00    -0.048 A 
ATOM     12  C   UNL d   1       1.800   7.588   8.508  0.00  0.00    -0.006 A 
ATOM     13  C   UNL d   1       2.420   8.690   9.152  0.00  0.00     0.014 A 
ATOM     14  C   UNL d   1       0.584   6.956   9.033  0.00  0.00     0.038 A 
ATOM     15  C   UNL d   1       1.925   9.096  10.326  0.00  0.00     0.001 A 
ATOM     16  C   UNL d   1       0.706   8.518  10.871  0.00  0.00     0.002 A 
ATOM     17  C   UNL d   1       0.033   7.501  10.292  0.00  0.00     0.030 A 
ATOM     18  N   UNL d   1       0.190   5.998   8.282  0.00  0.00    -0.385 N 
ATOM     19  C   UNL d   1       1.154   5.794   7.159  0.00  0.00     0.155 A 
ATOM     20  H   UNL d   1      -0.671   5.481   8.458  0.00  0.00     0.160 HD
ENDBRANCH  10  11
ENDBRANCH   9  10
ENDBRANCH   5   9
BRANCH   6  21
ATOM     21  C   UNL d   1       7.293   7.786   3.669  0.00  0.00     0.055 A 
ATOM     22  C   UNL d   1       7.931   8.720   2.824  0.00  0.00     0.030 A 
ATOM     23  C   UNL d   1       8.823   9.672   3.329  0.00  0.00     0.002 A 
ATOM     24  C   UNL d   1       9.037   9.758   4.698  0.00  0.00     0.001 A 
ATOM     25  C   UNL d   1       8.427   8.841   5.547  0.00  0.00     0.009 A 
ATOM     26  C   UNL d   1       7.591   7.826   5.048  0.00  0.00    -0.035 A 
ATOM     27  C   UNL d   1       7.119   6.797   6.036  0.00  0.00     0.050 C 
ENDBRANCH   6  21
BRANCH   1  28
ATOM     28  C   UNL d   1       4.545   3.281   1.537  0.00  0.00     0.037 A 
ATOM     29  C   UNL d   1       4.946   2.628   0.371  0.00  0.00     0.020 A 
ATOM     30  C   UNL d   1       4.133   1.627  -0.202  0.00  0.00     0.040 A 
ATOM     31  C   UNL d   1       2.936   1.189   0.409  0.00  0.00     0.101 A 
ATOM     32  C   UNL d   1       2.572   1.816   1.624  0.00  0.00     0.102 A 
ATOM     33  C   UNL d   1       3.367   2.859   2.151  0.00  0.00     0.056 A 
BRANCH  31  34
ATOM     34  O   UNL d   1       2.448   0.011  -0.121  0.00  0.00    -0.353 OA
ATOM     35  C   UNL d   1       1.118  -0.123  -0.634  0.00  0.00     0.210 C 
ENDBRANCH  31  34
BRANCH  32  36
ATOM     36  O   UNL d   1       1.546   1.560   2.506  0.00  0.00    -0.353 OA
ATOM     37  C   UNL d   1       0.590   0.656   2.033  0.00  0.00     0.210 C 
ENDBRANCH  32  36
ENDBRANCH   1  28
TORSDOF 7
