REMARK  5 active torsions:
REMARK  status: ('A' for Active; 'I' for Inactive)
REMARK    1  A    between atoms: C_2  and  C_12 
REMARK    2  A    between atoms: C_2  and  C_3 
REMARK    3  A    between atoms: C_3  and  N_4 
REMARK    4  A    between atoms: N_4  and  C_5 
REMARK       I    between atoms: C_12  and  N_14 
REMARK    5  A    between atoms: N_14  and  N_15 
ROOT
ATOM      1  C   UNL d   1       1.025   0.074   0.079  0.00  0.00     0.133 C 
ENDROOT
BRANCH   1   2
ATOM      2  N   UNL d   1       0.541   0.626   1.350  0.00  0.00    -0.389 N 
ATOM      3  H   UNL d   1       1.158   1.231   1.879  0.00  0.00     0.159 HD
BRANCH   2   4
ATOM      4  C   UNL d   1      -0.822   0.789   1.578  0.00  0.00     0.028 A 
ATOM      5  C   UNL d   1      -1.740  -0.230   1.302  0.00  0.00     0.030 A 
ATOM      6  C   UNL d   1      -3.094  -0.100   1.634  0.00  0.00     0.021 A 
ATOM      7  C   UNL d   1      -3.555   1.082   2.202  0.00  0.00     0.011 A 
ATOM      8 BR   UNL d   1      -5.374   1.242   2.692  0.00  0.00    -0.051 Br
ATOM      9  C   UNL d   1      -2.679   2.141   2.417  0.00  0.00     0.021 A 
ATOM     10  C   UNL d   1      -1.320   1.993   2.099  0.00  0.00     0.030 A 
ENDBRANCH   2   4
ENDBRANCH   1   2
BRANCH   1  11
ATOM     11  C   UNL d   1       2.574   0.071   0.015  0.00  0.00     0.093 C 
ATOM     12  C   UNL d   1       3.093  -1.356   0.221  0.00  0.00     0.021 C 
BRANCH  11  13
ATOM     13  C   UNL d   1       3.070   0.627  -1.323  0.00  0.00     0.237 C 
ATOM     14  O   UNL d   1       2.318   1.018  -2.223  0.00  0.00    -0.272 OA
ATOM     15  N   UNL d   1       4.453   0.679  -1.475  0.00  0.00    -0.294 N 
ATOM     16  H   UNL d   1       5.082   0.462  -0.705  0.00  0.00     0.183 HD
BRANCH  15  17
ATOM     17  N   UNL d   1       4.993   1.274  -2.642  0.00  0.00    -0.247 NA
ATOM     18  H   UNL d   1       4.193   1.536  -3.239  0.00  0.00     0.143 HD
ATOM     19  H   UNL d   1       5.482   0.555  -3.181  0.00  0.00     0.143 HD
ENDBRANCH  15  17
ENDBRANCH  11  13
ENDBRANCH   1  11
TORSDOF 5
