REMARK  4 active torsions:
REMARK  status: ('A' for Active; 'I' for Inactive)
REMARK    1  A    between atoms: C_7  and  C_8 
REMARK    2  A    between atoms: C_8  and  N_9 
REMARK    3  A    between atoms: C_13  and  C_14 
REMARK    4  A    between atoms: C_17  and  O_18 
ROOT
ATOM      1  C   UNL d   1       8.809  -1.240   0.235  0.00  0.00     0.175 C 
ENDROOT
BRANCH   1   2
ATOM      2  C   UNL d   1       7.294  -1.238   0.295  0.00  0.00     0.033 A 
ATOM      3  N   UNL d   1       6.605  -0.040   0.384  0.00  0.00    -0.344 N 
ATOM      4  C   UNL d   1       5.280  -0.060   0.341  0.00  0.00     0.114 A 
ATOM      5  H   UNL d   1       7.097   0.851   0.406  0.00  0.00     0.167 HD
ATOM      6  C   UNL d   1       4.553   1.238   0.245  0.00  0.00     0.050 C 
ATOM      7  N   UNL d   1       4.574  -1.187   0.280  0.00  0.00    -0.274 N 
ATOM      8  C   UNL d   1       3.240   1.218  -0.036  0.00  0.00     0.012 C 
ATOM      9  C   UNL d   1       2.520  -0.035   0.038  0.00  0.00    -0.046 C 
ATOM     10  C   UNL d   1       1.029  -0.035   0.029  0.00  0.00     0.049 C 
ATOM     11  C   UNL d   1       3.195  -1.177   0.211  0.00  0.00     0.108 C 
ATOM     12  C   UNL d   1       5.188  -2.450   0.249  0.00  0.00     0.255 A 
ATOM     13  C   UNL d   1       6.616  -2.386   0.263  0.00  0.00     0.101 A 
ATOM     14  O   UNL d   1       4.566  -3.502   0.168  0.00  0.00    -0.268 OA
ENDBRANCH   1   2
BRANCH   1  15
ATOM     15  N   UNL d   1       9.420  -2.549   0.321  0.00  0.00    -0.399 N 
ATOM     16  C   UNL d   1       9.300  -3.693  -0.562  0.00  0.00     0.118 C 
ATOM     17  C   UNL d   1       9.122  -4.843   0.435  0.00  0.00     0.022 C 
ATOM     18  C   UNL d   1      10.014  -4.445   1.602  0.00  0.00     0.031 C 
ATOM     19  C   UNL d   1      10.050  -2.911   1.573  0.00  0.00     0.112 C 
BRANCH  19  20
ATOM     20  C   UNL d   1      11.449  -2.356   1.599  0.00  0.00    -0.036 C 
ATOM     21  C   UNL d   1      12.387  -2.723   0.615  0.00  0.00     0.012 C 
ATOM     22  C   UNL d   1      13.723  -2.376   0.744  0.00  0.00     0.037 C 
ATOM     23  C   UNL d   1      14.092  -1.527   1.774  0.00  0.00     0.065 C 
ATOM     24  C   UNL d   1      13.145  -1.004   2.647  0.00  0.00     0.037 C 
ATOM     25  C   UNL d   1      11.831  -1.460   2.598  0.00  0.00     0.012 C 
BRANCH  23  26
ATOM     26  O   UNL d   1      15.396  -1.186   1.970  0.00  0.00    -0.361 OA
ATOM     27  H   UNL d   1      15.950  -1.730   1.385  0.00  0.00     0.217 HD
ENDBRANCH  23  26
ENDBRANCH  19  20
ENDBRANCH   1  15
TORSDOF 4
