REMARK  3 active torsions:
REMARK  status: ('A' for Active; 'I' for Inactive)
REMARK    1  A    between atoms: C_9  and  N_10 
REMARK    2  A    between atoms: C_20  and  C_21 
REMARK    3  A    between atoms: C_26  and  N_27 
ROOT
ATOM      1  N   UNL d   1       0.985  -0.037  -0.091  0.00  0.00    -0.101 N 
ATOM      2  C   UNL d   1       2.246  -0.037  -0.091  0.00  0.00    -0.005 C 
ATOM      3  C   UNL d   1       3.766  -0.037  -0.091  0.00  0.00     0.184 C 
ATOM      4  C   UNL d   1       4.481  -1.246   0.403  0.00  0.00     0.241 C 
ATOM      5  O   UNL d   1       3.910  -2.205   0.904  0.00  0.00    -0.272 OA
ATOM      6  N   UNL d   1       5.874  -1.141   0.256  0.00  0.00    -0.309 N 
ATOM      7  C   UNL d   1       6.564   0.079   0.371  0.00  0.00     0.162 C 
ATOM      8  N   UNL d   1       7.938   0.041   0.569  0.00  0.00    -0.046 NA
ATOM      9  C   UNL d   1       8.548   1.125   0.990  0.00  0.00     0.707 C 
ATOM     10  N   UNL d   1       7.861   2.306   1.107  0.00  0.00    -0.154 N 
ATOM     11  C   UNL d   1       6.543   2.445   0.810  0.00  0.00     0.270 C 
ATOM     12  O   UNL d   1       5.968   3.527   0.802  0.00  0.00    -0.267 OA
ATOM     13  C   UNL d   1       5.832   1.198   0.522  0.00  0.00     0.067 C 
ATOM     14  C   UNL d   1       4.333   1.233   0.534  0.00  0.00     0.089 C 
ATOM     15  H   UNL d   1       6.403  -1.972   0.500  0.00  0.00     0.170 HD
ATOM     16  H   UNL d   1       8.372   3.161   1.252  0.00  0.00     0.187 HD
ENDROOT
BRANCH  14  17
ATOM     17  C   UNL d   1       3.690   1.501   1.908  0.00  0.00    -0.015 C 
ATOM     18  C   UNL d   1       2.772   2.580   1.963  0.00  0.00     0.010 C 
ATOM     19  C   UNL d   1       1.865   2.700   3.022  0.00  0.00     0.001 C 
ATOM     20  C   UNL d   1       2.017   1.925   4.162  0.00  0.00     0.002 C 
ATOM     21  C   UNL d   1       2.997   0.953   4.199  0.00  0.00     0.037 C 
ATOM     22  C   UNL d   1       3.774   0.684   3.068  0.00  0.00     0.110 C 
BRANCH  22  23
ATOM     23  N   UNL d   1       4.668  -0.456   3.283  0.00  0.00    -0.115 N 
ATOM     24  O   UNL d   1       4.277  -1.390   3.980  0.00  0.00    -0.532 OA
ATOM     25  O   UNL d   1       5.819  -0.363   2.842  0.00  0.00    -0.532 OA
ENDBRANCH  22  23
ENDBRANCH  14  17
BRANCH   9  26
ATOM     26  N   UNL d   1       9.913   1.228   1.254  0.00  0.00    -0.216 N 
ATOM     27  C   UNL d   1      10.531   1.787   2.474  0.00  0.00     0.141 C 
ATOM     28  C   UNL d   1      11.525   2.899   2.097  0.00  0.00     0.020 C 
ATOM     29  C   UNL d   1      12.561   2.412   1.082  0.00  0.00     0.003 C 
ATOM     30  C   UNL d   1      11.880   1.713  -0.096  0.00  0.00     0.020 C 
ATOM     31  C   UNL d   1      10.902   0.622   0.367  0.00  0.00     0.141 C 
ENDBRANCH   9  26
TORSDOF 3
