REMARK  6 active torsions:
REMARK  status: ('A' for Active; 'I' for Inactive)
REMARK    1  A    between atoms: C_2  and  O_3 
REMARK    2  A    between atoms: C_2  and  C_10 
REMARK    3  A    between atoms: O_3  and  C_4 
REMARK       I    between atoms: C_10  and  N_12 
REMARK    4  A    between atoms: N_12  and  N_13 
REMARK       I    between atoms: N_13  and  C_14 
REMARK    5  A    between atoms: C_14  and  C_16 
REMARK    6  A    between atoms: C_20  and  N_21 
ROOT
ATOM      1  C   UNL d   1       3.129   0.206  -1.417  0.00  0.00     0.265 C 
ATOM      2  O   UNL d   1       2.381   0.339  -2.393  0.00  0.00    -0.269 OA
ATOM      3  N   UNL d   1       4.501   0.251  -1.593  0.00  0.00    -0.265 N 
ATOM      4  H   UNL d   1       5.180   0.106  -0.849  0.00  0.00     0.190 HD
ENDROOT
BRANCH   3   5
ATOM      5  N   UNL d   1       5.011   0.417  -2.916  0.00  0.00    -0.263 N 
ATOM      6  C   UNL d   1       6.377   0.362  -3.139  0.00  0.00     0.270 C 
ATOM      7  O   UNL d   1       7.192   0.199  -2.227  0.00  0.00    -0.266 OA
ATOM      8  H   UNL d   1       4.315   0.459  -3.662  0.00  0.00     0.190 HD
BRANCH   6   9
ATOM      9  C   UNL d   1       6.864   0.532  -4.545  0.00  0.00     0.035 A 
ATOM     10  C   UNL d   1       7.963  -0.197  -4.999  0.00  0.00     0.017 A 
ATOM     11  C   UNL d   1       8.506   0.085  -6.250  0.00  0.00     0.003 A 
ATOM     12  C   UNL d   1       7.925   1.061  -7.067  0.00  0.00     0.029 A 
ATOM     13  C   UNL d   1       6.824   1.833  -6.655  0.00  0.00     0.030 A 
ATOM     14  C   UNL d   1       6.315   1.526  -5.372  0.00  0.00     0.046 A 
BRANCH  13  15
ATOM     15  N   UNL d   1       6.288   2.840  -7.446  0.00  0.00    -0.390 N 
ATOM     16  C   UNL d   1       6.822   3.203  -8.762  0.00  0.00     0.149 C 
ATOM     17  C   UNL d   1       5.197   3.703  -6.991  0.00  0.00     0.149 C 
ENDBRANCH  13  15
ENDBRANCH   6   9
ENDBRANCH   3   5
BRANCH   1  18
ATOM     18  C   UNL d   1       2.588   0.058   0.051  0.00  0.00     0.218 C 
ATOM     19  C   UNL d   1       1.063   0.198  -0.061  0.00  0.00     0.050 C 
BRANCH  18  20
ATOM     20  O   UNL d   1       3.070  -1.164   0.645  0.00  0.00    -0.337 OA
BRANCH  20  21
ATOM     21  C   UNL d   1       2.667  -1.560   1.899  0.00  0.00     0.070 A 
ATOM     22  C   UNL d   1       3.608  -2.218   2.699  0.00  0.00     0.037 A 
ATOM     23  C   UNL d   1       3.223  -2.836   3.905  0.00  0.00     0.003 A 
ATOM     24  C   UNL d   1       1.916  -2.723   4.376  0.00  0.00     0.000 A 
ATOM     25  C   UNL d   1       0.983  -2.054   3.608  0.00  0.00     0.003 A 
ATOM     26  C   UNL d   1       1.352  -1.536   2.366  0.00  0.00     0.037 A 
ENDBRANCH  20  21
ENDBRANCH  18  20
ENDBRANCH   1  18
TORSDOF 6
