@<TRIPOS>MOLECULE
*****
 43 44 0 0 0
SMALL
GASTEIGER

@<TRIPOS>ATOM
      1 C           2.3973    1.6816   -4.8601 C.3     1  UNL1       -0.0397
      2 C           1.5580    1.5472   -3.6306 C.ar    1  UNL1       -0.0487
      3 C           1.2691    0.2655   -3.1578 C.ar    1  UNL1       -0.0587
      4 C           0.5219    0.1271   -2.0172 C.ar    1  UNL1       -0.0598
      5 C           0.0936    1.2665   -1.3492 C.ar    1  UNL1       -0.0408
      6 C           0.2910    2.5744   -1.7967 C.ar    1  UNL1        0.0279
      7 N          -0.2390    3.6986   -1.1853 N.pl3   1  UNL1       -0.3331
      8 C          -1.1241    3.7711    0.0022 C.3     1  UNL1        0.0948
      9 C          -2.0438    2.5618    0.2173 C.3     1  UNL1       -0.0381
     10 C          -2.1180    4.9534   -0.1329 C.2     1  UNL1        0.2372
     11 O          -3.3050    4.7535   -0.3729 O.2     1  UNL1       -0.2734
     12 N          -1.5962    6.2304    0.0618 N.am    1  UNL1       -0.2835
     13 C          -2.4743    7.3508    0.0943 C.ar    1  UNL1        0.0393
     14 C          -3.6018    7.3543    0.9489 C.ar    1  UNL1       -0.0290
     15 C          -3.9066    6.2528    1.9330 C.3     1  UNL1       -0.0379
     16 C          -4.4911    8.4416    0.9174 C.ar    1  UNL1       -0.0571
     17 C          -4.2679    9.5209    0.0702 C.ar    1  UNL1       -0.0611
     18 C          -3.1429    9.5328   -0.7502 C.ar    1  UNL1       -0.0571
     19 C          -2.2252    8.4645   -0.7365 C.ar    1  UNL1       -0.0290
     20 C          -1.0526    8.5154   -1.6740 C.3     1  UNL1       -0.0379
     21 C           1.0584    2.6906   -2.9619 C.ar    1  UNL1       -0.0379
     22 H           2.7081    0.6954   -5.2237 H       1  UNL1        0.0278
     23 H           3.2999    2.2546   -4.6339 H       1  UNL1        0.0278
     24 H           1.8229    2.1685   -5.6514 H       1  UNL1        0.0278
     25 H           1.6305   -0.6277   -3.6564 H       1  UNL1        0.0620
     26 H           0.2656   -0.8470   -1.6126 H       1  UNL1        0.0618
     27 H          -0.4053    1.0216   -0.4388 H       1  UNL1        0.0636
     28 H           0.0069    4.5893   -1.6053 H       1  UNL1        0.1468
     29 H          -0.5063    3.9161    0.8975 H       1  UNL1        0.0591
     30 H          -2.5187    2.2655   -0.7277 H       1  UNL1        0.0252
     31 H          -2.8348    2.7602    0.9456 H       1  UNL1        0.0252
     32 H          -1.5335    1.7203    0.6772 H       1  UNL1        0.0252
     33 H          -0.6239    6.3858   -0.1591 H       1  UNL1        0.1549
     34 H          -3.1078    5.5133    2.0188 H       1  UNL1        0.0278
     35 H          -4.8246    5.7339    1.6374 H       1  UNL1        0.0278
     36 H          -4.0206    6.6622    2.9398 H       1  UNL1        0.0278
     37 H          -5.3683    8.4437    1.5612 H       1  UNL1        0.0621
     38 H          -4.9709   10.3502    0.0511 H       1  UNL1        0.0618
     39 H          -2.9988   10.3794   -1.4194 H       1  UNL1        0.0621
     40 H          -1.0486    9.4360   -2.2685 H       1  UNL1        0.0278
     41 H          -1.0877    7.6738   -2.3732 H       1  UNL1        0.0278
     42 H          -0.1190    8.4857   -1.1052 H       1  UNL1        0.0278
     43 H           1.2840    3.6740   -3.3710 H       1  UNL1        0.0639
@<TRIPOS>BOND
     1     1     2    1
     2     2     3   ar
     3     3     4   ar
     4     4     5   ar
     5     5     6   ar
     6     6     7    1
     7     8    10    1
     8    10    11    2
     9    10    12   am
    10    12    13    1
    11    13    14   ar
    12    14    15    1
    13    14    16   ar
    14    16    17   ar
    15    17    18   ar
    16    18    19   ar
    17    13    19   ar
    18    19    20    1
    19     6    21   ar
    20     2    21   ar
    21     8     9    1
    22     8     7    1
    23     1    22    1
    24     1    23    1
    25     1    24    1
    26     3    25    1
    27     4    26    1
    28     5    27    1
    29     7    28    1
    30     8    29    1
    31     9    30    1
    32     9    31    1
    33     9    32    1
    34    12    33    1
    35    15    34    1
    36    15    35    1
    37    15    36    1
    38    16    37    1
    39    17    38    1
    40    18    39    1
    41    20    40    1
    42    20    41    1
    43    20    42    1
    44    21    43    1
