@<TRIPOS>MOLECULE
*****
 66 68 0 0 0
SMALL
GASTEIGER

@<TRIPOS>ATOM
      1 C           0.9195   -0.1480   -0.0161 C.3     1  UNL1       -0.0245
      2 C           2.4257   -0.2997   -0.1279 C.3     1  UNL1       -0.0347
      3 N           2.8991   -0.4255   -1.6590 N.4     1  UNL1        0.2373
      4 C           3.8983    0.6154   -2.2485 C.3     1  UNL1       -0.0158
      5 C           4.8950    0.3513   -3.3648 C.3     1  UNL1        0.0525
      6 N           5.4182   -0.9784   -3.1994 N.pl3   1  UNL1       -0.3183
      7 C           6.7785   -1.2338   -3.0409 C.ar    1  UNL1        0.0516
      8 C           7.3626   -2.1628   -3.9483 C.ar    1  UNL1       -0.0381
      9 C           8.6877   -2.6339   -3.8414 C.ar    1  UNL1       -0.0459
     10 C           9.5376   -2.1485   -2.8479 C.ar    1  UNL1        0.0609
     11 C          10.9734   -2.6102   -2.8587 C.2     1  UNL1        0.3390
     12 O          11.4143   -3.3821   -3.7278 O.2     1  UNL1       -0.2450
     13 O          11.7259   -2.0623   -1.8765 O.3     1  UNL1       -0.4644
     14 C          13.1242   -2.4202   -1.9127 C.3     1  UNL1        0.0820
     15 C           9.0121   -1.1865   -1.9545 C.ar    1  UNL1       -0.0247
     16 C           7.6628   -0.6695   -2.0536 C.ar    1  UNL1        0.0547
     17 N           7.3253    0.4389   -1.0999 N.am    1  UNL1       -0.2951
     18 C           6.1859    0.4541   -0.2834 C.2     1  UNL1        0.1411
     19 S           5.8083   -0.9112    0.6084 S.2     1  UNL1       -0.0182
     20 N           5.6066    1.7783    0.0098 N.am    1  UNL1       -0.2636
     21 C           4.2109    2.2393    0.1050 C.2     1  UNL1        0.2495
     22 O           3.3405    2.2638   -0.7691 O.2     1  UNL1       -0.2698
     23 C           3.6323    3.0769    1.1235 C.ar    1  UNL1        0.0371
     24 C           2.2146    3.0317    1.3535 C.ar    1  UNL1       -0.0494
     25 C           1.5450    4.1296    1.8471 C.ar    1  UNL1       -0.0576
     26 C           2.3111    5.2259    2.2218 C.ar    1  UNL1       -0.0448
     27 C           1.6641    6.2996    3.0630 C.3     1  UNL1       -0.0215
     28 C           1.1093    5.6494    4.3393 C.3     1  UNL1       -0.0587
     29 C           2.6839    7.3685    3.4443 C.3     1  UNL1       -0.0587
     30 C           3.6878    5.2745    1.9013 C.ar    1  UNL1       -0.0576
     31 C           4.3513    4.2155    1.3398 C.ar    1  UNL1       -0.0494
     32 C           4.3392   -1.9963   -3.1101 C.3     1  UNL1        0.0525
     33 C           3.4408   -1.8463   -1.8497 C.3     1  UNL1       -0.0158
     34 H           0.6122    0.0016    1.0319 H       1  UNL1        0.0281
     35 H           0.4265   -1.0516   -0.3725 H       1  UNL1        0.0281
     36 H           0.5624    0.7195   -0.5770 H       1  UNL1        0.0281
     37 H           2.7534   -1.1794    0.4391 H       1  UNL1        0.0812
     38 H           2.8977    0.5078    0.4094 H       1  UNL1        0.0812
     39 H           2.0520   -0.2503   -2.2024 H       1  UNL1        0.2034
     40 H           4.5364    0.6441   -1.4289 H       1  UNL1        0.0830
     41 H           3.4685    1.5819   -2.5172 H       1  UNL1        0.0830
     42 H           5.6894    1.1171   -3.3642 H       1  UNL1        0.0516
     43 H           4.3575    0.4801   -4.3092 H       1  UNL1        0.0516
     44 H           6.7894   -2.5085   -4.8116 H       1  UNL1        0.0637
     45 H           9.0492   -3.3852   -4.5486 H       1  UNL1        0.0626
     46 H          13.6315   -1.9299   -1.0751 H       1  UNL1        0.0661
     47 H          13.5962   -2.0735   -2.8399 H       1  UNL1        0.0661
     48 H          13.2575   -3.5023   -1.8014 H       1  UNL1        0.0661
     49 H           9.6633   -0.8737   -1.1391 H       1  UNL1        0.0645
     50 H           8.1353    0.5323   -0.4856 H       1  UNL1        0.1539
     51 H           6.0846    2.1076    0.8341 H       1  UNL1        0.1568
     52 H           1.5842    2.2056    1.0381 H       1  UNL1        0.0625
     53 H           0.4572    4.1258    1.9489 H       1  UNL1        0.0621
     54 H           0.8473    6.7571    2.4911 H       1  UNL1        0.0343
     55 H           1.9028    5.1277    4.8903 H       1  UNL1        0.0235
     56 H           0.3326    4.9058    4.1227 H       1  UNL1        0.0235
     57 H           0.6680    6.4021    4.9951 H       1  UNL1        0.0235
     58 H           3.5223    6.9191    3.9960 H       1  UNL1        0.0235
     59 H           2.2442    8.1390    4.0732 H       1  UNL1        0.0235
     60 H           3.0885    7.8495    2.5450 H       1  UNL1        0.0235
     61 H           4.2933    6.1548    2.0721 H       1  UNL1        0.0621
     62 H           5.3633    4.3247    0.9731 H       1  UNL1        0.0625
     63 H           4.7285   -3.0119   -3.1802 H       1  UNL1        0.0516
     64 H           3.6556   -1.8389   -3.9532 H       1  UNL1        0.0516
     65 H           3.9878   -2.1463   -0.9540 H       1  UNL1        0.0830
     66 H           2.5538   -2.4853   -1.8755 H       1  UNL1        0.0830
@<TRIPOS>UNITY_ATOM_ATTR
3 1
charge 1
@<TRIPOS>BOND
     1     1     2    1
     2     2     3    1
     3     3     4    1
     4     4     5    1
     5     5     6    1
     6     6     7    1
     7     7     8   ar
     8     8     9   ar
     9     9    10   ar
    10    10    11    1
    11    11    12    2
    12    11    13    1
    13    13    14    1
    14    10    15   ar
    15    15    16   ar
    16     7    16   ar
    17    16    17    1
    18    17    18    1
    19    18    19    2
    20    18    20    1
    21    20    21   am
    22    21    22    2
    23    21    23    1
    24    23    24   ar
    25    24    25   ar
    26    25    26   ar
    27    26    27    1
    28    27    28    1
    29    27    29    1
    30    26    30   ar
    31    30    31   ar
    32    23    31   ar
    33     6    32    1
    34    32    33    1
    35     3    33    1
    36     1    34    1
    37     1    35    1
    38     1    36    1
    39     2    37    1
    40     2    38    1
    41     3    39    1
    42     4    40    1
    43     4    41    1
    44     5    42    1
    45     5    43    1
    46     8    44    1
    47     9    45    1
    48    14    46    1
    49    14    47    1
    50    14    48    1
    51    15    49    1
    52    17    50    1
    53    20    51    1
    54    24    52    1
    55    25    53    1
    56    27    54    1
    57    28    55    1
    58    28    56    1
    59    28    57    1
    60    29    58    1
    61    29    59    1
    62    29    60    1
    63    30    61    1
    64    31    62    1
    65    32    63    1
    66    32    64    1
    67    33    65    1
    68    33    66    1
