REMARK  5 active torsions:
REMARK  status: ('A' for Active; 'I' for Inactive)
REMARK    1  A    between atoms: C_8  and  C_9 
REMARK    2  A    between atoms: C_9  and  C_10 
REMARK    3  A    between atoms: C_10  and  N_11 
REMARK    4  A    between atoms: C_15  and  C_16 
REMARK    5  A    between atoms: C_25  and  N_26 
ROOT
ATOM      1  N   UNL d   1       5.980  -6.149  -0.369  0.00  0.00    -0.359 N 
ATOM      2  C   UNL d   1       4.989  -6.777   0.492  0.00  0.00     0.208 C 
ATOM      3  C   UNL d   1       5.291  -8.273   0.144  0.00  0.00     0.179 C 
ATOM      4  O   UNL d   1       5.023  -9.173   0.888  0.00  0.00    -0.291 OA
ATOM      5  C   UNL d   1       6.052  -8.367  -1.228  0.00  0.00     0.061 C 
ATOM      6  C   UNL d   1       6.478  -7.075  -1.303  0.00  0.00     0.109 C 
ENDROOT
BRANCH   1   7
ATOM      7  C   UNL d   1       6.375  -4.758  -0.144  0.00  0.00     0.129 C 
BRANCH   7   8
ATOM      8  C   UNL d   1       5.169  -3.795  -0.096  0.00  0.00     0.056 C 
BRANCH   8   9
ATOM      9  C   UNL d   1       5.503  -2.326  -0.079  0.00  0.00    -0.048 A 
ATOM     10  C   UNL d   1       4.618  -1.320  -0.073  0.00  0.00    -0.005 A 
ATOM     11  C   UNL d   1       5.420  -0.085  -0.071  0.00  0.00     0.038 A 
ATOM     12  C   UNL d   1       3.195  -1.268  -0.072  0.00  0.00     0.020 A 
ATOM     13  C   UNL d   1       4.709   1.206  -0.071  0.00  0.00     0.030 A 
ATOM     14  N   UNL d   1       6.676  -0.331  -0.071  0.00  0.00    -0.385 N 
ATOM     15  C   UNL d   1       3.361   1.171  -0.072  0.00  0.00     0.009 A 
ATOM     16  C   UNL d   1       2.581  -0.069  -0.071  0.00  0.00    -0.061 A 
ATOM     17  C   UNL d   1       1.081  -0.001  -0.072  0.00  0.00     0.048 C 
ATOM     18  C   UNL d   1       6.906  -1.790  -0.075  0.00  0.00     0.155 A 
ATOM     19  H   UNL d   1       7.391   0.393  -0.071  0.00  0.00     0.160 HD
ENDBRANCH   8   9
ENDBRANCH   7   8
ENDBRANCH   1   7
BRANCH   6  20
ATOM     20  N   UNL d   1       7.368  -6.749  -2.265  0.00  0.00    -0.385 N 
ATOM     21  H   UNL d   1       7.915  -7.537  -2.612  0.00  0.00     0.157 HD
ATOM     22  H   UNL d   1       7.838  -5.863  -2.231  0.00  0.00     0.157 HD
ENDBRANCH   6  20
BRANCH   5  23
ATOM     23  C   UNL d   1       6.616  -9.655  -2.001  0.00  0.00     0.168 C 
ATOM     24  N   UNL d   1       6.574 -10.043  -3.613  0.00  0.00    -0.274 NA
ATOM     25  C   UNL d   1       7.706 -11.149  -3.794  0.00  0.00     0.026 C 
ATOM     26  H   UNL d   1       6.934  -9.306  -4.223  0.00  0.00     0.129 HD
ATOM     27  C   UNL d   1       7.633 -12.303  -4.633  0.00  0.00     0.025 C 
ATOM     28  C   UNL d   1       8.372 -11.264  -2.591  0.00  0.00     0.023 C 
ATOM     29  C   UNL d   1       7.761 -13.571  -4.025  0.00  0.00     0.002 C 
ATOM     30  C   UNL d   1       7.891 -13.629  -2.642  0.00  0.00     0.001 C 
ATOM     31  C   UNL d   1       8.237 -12.474  -1.943  0.00  0.00     0.020 C 
ATOM     32  S   UNL d   1       8.414  -9.751  -1.691  0.00  0.00    -0.103 SA
ENDBRANCH   5  23
TORSDOF 5
