REMARK  4 active torsions:
REMARK  status: ('A' for Active; 'I' for Inactive)
REMARK    1  A    between atoms: C_7  and  N_8 
REMARK    2  A    between atoms: C_17  and  C_18 
REMARK       I    between atoms: C_18  and  N_20 
REMARK    3  A    between atoms: N_20  and  C_21 
REMARK    4  A    between atoms: C_28  and  N_29 
ROOT
ATOM      1  C   UNL d   1       1.062  -0.035  -0.050  0.00  0.00     0.310 C 
ATOM      2  N   UNL d   1       2.525  -0.059  -0.041  0.00  0.00     0.088 N 
ATOM      3  C   UNL d   1       2.972  -1.136   0.832  0.00  0.00     0.277 C 
ATOM      4  C   UNL d   1       4.467  -1.268   0.683  0.00  0.00     0.070 C 
ATOM      5  C   UNL d   1       5.237   0.023   0.814  0.00  0.00    -0.029 A 
ATOM      6  C   UNL d   1       4.556   1.256   0.695  0.00  0.00     0.021 A 
ATOM      7  C   UNL d   1       5.247   2.485   0.837  0.00  0.00     0.113 A 
ATOM      8  N   UNL d   1       6.593   2.426   1.026  0.00  0.00    -0.336 N 
ATOM      9  C   UNL d   1       7.274   1.223   1.121  0.00  0.00     0.089 A 
ATOM     10  S   UNL d   1       8.975   1.010   1.409  0.00  0.00    -0.064 SA
ATOM     11  C   UNL d   1       8.884  -0.717   1.355  0.00  0.00     0.102 A 
ATOM     12  C   UNL d   1       7.562  -1.087   1.141  0.00  0.00     0.062 A 
ATOM     13  C   UNL d   1       6.635   0.003   1.015  0.00  0.00     0.033 A 
ATOM     14  C   UNL d   1       3.051   1.217   0.455  0.00  0.00     0.315 C 
ATOM     15  H   UNL d   1       7.095   3.297   1.161  0.00  0.00     0.168 HD
ENDROOT
BRANCH  11  16
ATOM     16  C   UNL d   1       9.987  -1.710   1.482  0.00  0.00     0.265 C 
ATOM     17  O   UNL d   1       9.709  -2.923   1.423  0.00  0.00    -0.267 OA
ATOM     18  N   UNL d   1      11.309  -1.326   1.714  0.00  0.00    -0.322 N 
ATOM     19  H   UNL d   1      11.483  -0.395   2.064  0.00  0.00     0.169 HD
BRANCH  18  20
ATOM     20  C   UNL d   1      12.339  -2.311   1.893  0.00  0.00     0.035 C 
ATOM     21  C   UNL d   1      13.235  -2.218   2.964  0.00  0.00     0.031 C 
ATOM     22  C   UNL d   1      14.090  -3.295   3.263  0.00  0.00     0.026 C 
ATOM     23  C   UNL d   1      14.252  -4.334   2.351  0.00  0.00     0.034 C 
ATOM     24 CL   UNL d   1      15.450  -5.541   2.615  0.00  0.00    -0.084 Cl
ATOM     25  C   UNL d   1      13.468  -4.371   1.206  0.00  0.00     0.026 C 
ATOM     26  C   UNL d   1      12.461  -3.410   1.026  0.00  0.00     0.031 C 
ENDBRANCH  18  20
ENDBRANCH  11  16
BRANCH  12  27
ATOM     27  N   UNL d   1       7.191  -2.385   1.062  0.00  0.00    -0.397 N 
ATOM     28  H   UNL d   1       7.882  -3.141   1.152  0.00  0.00     0.156 HD
ATOM     29  H   UNL d   1       6.306  -2.747   0.733  0.00  0.00     0.156 HD
ENDBRANCH  12  27
BRANCH   7  30
ATOM     30  N   UNL d   1       4.585   3.702   0.894  0.00  0.00    -0.363 N 
ATOM     31  C   UNL d   1       3.434   3.914   1.815  0.00  0.00     0.150 C 
ATOM     32  C   UNL d   1       2.176   4.398   1.061  0.00  0.00     0.187 C 
ATOM     33  O   UNL d   1       2.469   5.588   0.323  0.00  0.00    -0.388 OA
ATOM     34  C   UNL d   1       3.487   5.332  -0.658  0.00  0.00     0.187 C 
ATOM     35  C   UNL d   1       4.813   4.870   0.007  0.00  0.00     0.150 C 
ENDBRANCH   7  30
TORSDOF 4
