REMARK  3 active torsions:
REMARK  status: ('A' for Active; 'I' for Inactive)
REMARK    1  A    between atoms: C_5  and  N_6 
REMARK    2  A    between atoms: N_6  and  C_7 
REMARK       I    between atoms: N_10  and  C_11 
REMARK    3  A    between atoms: C_11  and  C_13 
ROOT
ATOM      1  C   UNL d   1       7.567   1.119  -0.735  0.00  0.00     0.086 C 
ATOM      2  C   UNL d   1       7.503   1.927   0.572  0.00  0.00     0.045 C 
ATOM      3  C   UNL d   1       7.012   3.388   0.420  0.00  0.00     0.128 C 
ATOM      4  N   UNL d   1       7.718   4.073  -0.630  0.00  0.00    -0.348 N 
ATOM      5  C   UNL d   1       8.361   5.278  -0.324  0.00  0.00     0.253 C 
ATOM      6  O   UNL d   1       8.395   5.769   0.800  0.00  0.00    -0.267 OA
ATOM      7  C   UNL d   1       7.599   3.428  -1.943  0.00  0.00     0.128 C 
ATOM      8  C   UNL d   1       8.088   1.986  -1.894  0.00  0.00     0.045 C 
ENDROOT
BRANCH   5   9
ATOM      9  C   UNL d   1       9.112   5.936  -1.403  0.00  0.00     0.032 C 
ATOM     10  C   UNL d   1       8.447   6.443  -2.540  0.00  0.00     0.017 C 
ATOM     11  C   UNL d   1       9.184   6.926  -3.608  0.00  0.00     0.009 C 
ATOM     12  C   UNL d   1      10.526   6.712  -3.483  0.00  0.00    -0.052 C 
ATOM     13  C   UNL d   1      11.218   5.947  -2.600  0.00  0.00    -0.051 C 
ATOM     14  C   UNL d   1      11.861   6.903  -3.846  0.00  0.00     0.039 C 
ATOM     15  C   UNL d   1      10.513   5.832  -1.357  0.00  0.00     0.024 C 
ATOM     16  C   UNL d   1      13.095   5.965  -3.260  0.00  0.00     0.039 C 
ATOM     17  C   UNL d   1      12.626   6.428  -2.047  0.00  0.00     0.009 C 
ENDBRANCH   5   9
BRANCH   1  18
ATOM     18  N   UNL d   1       6.547   0.030  -0.875  0.00  0.00    -0.369 N 
ATOM     19  H   UNL d   1       6.971  -0.900  -0.803  0.00  0.00     0.161 HD
BRANCH  18  20
ATOM     20  C   UNL d   1       5.238  -0.010  -0.415  0.00  0.00     0.143 C 
ATOM     21  C   UNL d   1       4.548   1.155  -0.236  0.00  0.00     0.054 C 
ATOM     22  C   UNL d   1       3.188   1.192  -0.132  0.00  0.00     0.030 C 
ATOM     23  C   UNL d   1       2.530  -0.008  -0.075  0.00  0.00     0.024 C 
ATOM     24  C   UNL d   1       1.038  -0.019  -0.054  0.00  0.00     0.070 C 
ATOM     25  N   UNL d   1       3.247  -1.149  -0.043  0.00  0.00    -0.281 N 
ATOM     26  N   UNL d   1       4.577  -1.179  -0.262  0.00  0.00    -0.157 NA
ATOM     27  H   UNL d   1       2.766  -2.034   0.136  0.00  0.00     0.189 HD
ENDBRANCH  18  20
ENDBRANCH   1  18
TORSDOF 3
