REMARK  4 active torsions:
REMARK  status: ('A' for Active; 'I' for Inactive)
REMARK       I    between atoms: C_2  and  N_3 
REMARK    1  A    between atoms: C_2  and  C_18 
REMARK    2  A    between atoms: N_3  and  C_4 
REMARK    3  A    between atoms: C_4  and  C_5 
REMARK    4  A    between atoms: C_8  and  N_9 
ROOT
ATOM      1  C   UNL d   1       3.273  -3.587   0.381  0.00  0.00    -0.025 A 
ATOM      2  C   UNL d   1       2.863  -4.929   0.285  0.00  0.00     0.014 A 
ATOM      3  C   UNL d   1       3.787  -5.991   0.437  0.00  0.00     0.049 A 
ATOM      4  C   UNL d   1       5.125  -5.701   0.695  0.00  0.00     0.102 A 
ATOM      5  N   UNL d   1       5.450  -4.405   0.768  0.00  0.00    -0.352 N 
ATOM      6  C   UNL d   1       4.609  -3.383   0.659  0.00  0.00     0.098 A 
ATOM      7  H   UNL d   1       6.427  -4.197   0.902  0.00  0.00     0.166 HD
ENDROOT
BRANCH   1   8
ATOM      8  C   UNL d   1       2.313  -2.422   0.238  0.00  0.00     0.162 C 
BRANCH   8   9
ATOM      9  N   UNL d   1       2.960  -1.126   0.033  0.00  0.00    -0.353 N 
ATOM     10  C   UNL d   1       2.228   0.030  -0.073  0.00  0.00     0.249 C 
ATOM     11  O   UNL d   1       1.002   0.045  -0.019  0.00  0.00    -0.268 OA
ATOM     12  H   UNL d   1       3.957  -1.018  -0.013  0.00  0.00     0.163 HD
BRANCH  10  13
ATOM     13  C   UNL d   1       3.030   1.276  -0.254  0.00  0.00     0.031 C 
ATOM     14  C   UNL d   1       2.616   2.361   0.421  0.00  0.00     0.147 C 
ATOM     15  O   UNL d   1       3.146   3.623   0.302  0.00  0.00    -0.362 OA
ATOM     16  C   UNL d   1       3.910   3.818  -0.896  0.00  0.00     0.174 C 
ATOM     17  C   UNL d   1       4.927   2.703  -1.080  0.00  0.00     0.031 C 
ATOM     18  C   UNL d   1       4.202   1.355  -1.190  0.00  0.00     0.048 C 
ENDBRANCH  10  13
ENDBRANCH   8   9
ENDBRANCH   1   8
BRANCH   4  19
ATOM     19  N   UNL d   1       6.134  -6.576   1.000  0.00  0.00    -0.367 N 
ATOM     20  C   UNL d   1       6.631  -6.506   2.377  0.00  0.00     0.124 C 
ATOM     21  C   UNL d   1       7.921  -5.687   2.395  0.00  0.00     0.020 C 
ATOM     22  C   UNL d   1       9.145  -6.427   1.877  0.00  0.00     0.002 C 
ATOM     23  C   UNL d   1       8.979  -7.059   0.491  0.00  0.00     0.002 C 
ATOM     24  C   UNL d   1       7.960  -8.204   0.462  0.00  0.00     0.020 C 
ATOM     25  C   UNL d   1       6.503  -7.751   0.196  0.00  0.00     0.124 C 
ENDBRANCH   4  19
TORSDOF 4
