REMARK  3 active torsions:
REMARK  status: ('A' for Active; 'I' for Inactive)
REMARK       I    between atoms: C_2  and  N_3 
REMARK    1  A    between atoms: C_2  and  C_15 
REMARK    2  A    between atoms: N_3  and  N_4 
REMARK       I    between atoms: N_4  and  C_5 
REMARK    3  A    between atoms: C_5  and  C_7 
ROOT
ATOM      1  N   UNL d   1       2.195   1.435  -2.074  0.00  0.00    -0.263 N 
ATOM      2  C   UNL d   1       2.920   2.028  -3.100  0.00  0.00     0.273 C 
ATOM      3  O   UNL d   1       4.149   2.002  -3.155  0.00  0.00    -0.266 OA
ATOM      4  H   UNL d   1       1.177   1.391  -2.046  0.00  0.00     0.190 HD
ENDROOT
BRANCH   1   5
ATOM      5  N   UNL d   1       2.880   0.786  -1.011  0.00  0.00    -0.263 N 
ATOM      6  C   UNL d   1       2.158   0.107  -0.034  0.00  0.00     0.270 C 
ATOM      7  O   UNL d   1       0.928   0.040  -0.033  0.00  0.00    -0.266 OA
ATOM      8  H   UNL d   1       3.894   0.734  -1.093  0.00  0.00     0.190 HD
BRANCH   6   9
ATOM      9  C   UNL d   1       2.960  -0.613   1.009  0.00  0.00     0.033 A 
ATOM     10  C   UNL d   1       4.149  -0.069   1.510  0.00  0.00     0.017 A 
ATOM     11  C   UNL d   1       4.978  -0.832   2.342  0.00  0.00     0.001 A 
ATOM     12  C   UNL d   1       4.582  -2.103   2.756  0.00  0.00     0.000 A 
ATOM     13  C   UNL d   1       3.360  -2.620   2.330  0.00  0.00     0.001 A 
ATOM     14  C   UNL d   1       2.547  -1.876   1.463  0.00  0.00     0.017 A 
ENDBRANCH   6   9
ENDBRANCH   1   5
BRANCH   2  15
ATOM     15  C   UNL d   1       2.153   2.665  -4.211  0.00  0.00     0.072 A 
ATOM     16  C   UNL d   1       2.535   2.419  -5.541  0.00  0.00     0.022 A 
ATOM     17  C   UNL d   1       1.813   2.978  -6.607  0.00  0.00     0.025 A 
ATOM     18  C   UNL d   1       0.733   3.821  -6.348  0.00  0.00     0.037 A 
ATOM     19 CL   UNL d   1      -0.163   4.490  -7.658  0.00  0.00    -0.084 Cl
ATOM     20  C   UNL d   1       0.378   4.117  -5.035  0.00  0.00     0.067 A 
ATOM     21  C   UNL d   1       1.086   3.534  -3.977  0.00  0.00     0.133 A 
ATOM     22  F   UNL d   1       0.726   3.848  -2.725  0.00  0.00    -0.205 F 
ENDBRANCH   2  15
TORSDOF 3
