@<TRIPOS>MOLECULE
*****
 59 62 0 0 0
SMALL
GASTEIGER

@<TRIPOS>ATOM
      1 C           0.9913    0.0263   -0.0934 C.3     1  UNL1       -0.0587
      2 C           2.5224   -0.0406   -0.1194 C.3     1  UNL1       -0.0215
      3 C           3.0508   -0.5278    1.2351 C.3     1  UNL1       -0.0587
      4 C           3.0094   -0.9496   -1.2407 C.ar    1  UNL1       -0.0447
      5 C           2.6252   -2.2957   -1.2825 C.ar    1  UNL1       -0.0565
      6 C           3.0782   -3.1552   -2.2917 C.ar    1  UNL1       -0.0389
      7 C           3.8737   -2.6799   -3.3396 C.ar    1  UNL1        0.0514
      8 N           4.1259   -3.4046   -4.5080 N.pl3   1  UNL1       -0.2017
      9 N           5.3776   -3.9582   -4.7810 N.3     1  UNL1       -0.1797
     10 N           5.1772   -5.3131   -5.1785 N.4     1  UNL1        0.4192
     11 N           3.8039   -5.4359   -5.6656 N.3     1  UNL1       -0.2341
     12 C           3.1100   -4.2230   -5.1516 C.3     1  UNL1        0.1757
     13 S           2.4298   -3.3385   -6.5982 S.3     1  UNL1       -0.1093
     14 C           1.5512   -1.8799   -5.8536 C.3     1  UNL1        0.0596
     15 C           0.9602   -1.0087   -6.9799 C.2     1  UNL1        0.1708
     16 O           1.0674   -1.2978   -8.1735 O.2     1  UNL1       -0.2915
     17 C           0.1559    0.2001   -6.6553 C.2     1  UNL1        0.0198
     18 C           0.3733    1.1950   -5.7899 C.2     1  UNL1        0.0349
     19 N          -0.5718    2.2021   -5.8434 N.2     1  UNL1       -0.2540
     20 C          -1.3984    1.8346   -6.7900 C.2     1  UNL1        0.1073
     21 C          -2.6973    2.5469   -7.1817 C.2     1  UNL1        0.2611
     22 O          -3.4550    1.9391   -7.9399 O.2     1  UNL1       -0.2687
     23 N          -3.0293    3.7267   -6.5357 N.am    1  UNL1       -0.2965
     24 C          -4.3588    4.0114   -6.0265 C.3     1  UNL1        0.0151
     25 C          -4.6646    5.4408   -6.4363 C.3     1  UNL1       -0.0357
     26 C          -3.2921    6.1017   -6.5168 C.3     1  UNL1       -0.0357
     27 C          -2.2773    4.9590   -6.6842 C.3     1  UNL1        0.0151
     28 C          -1.0749    0.5089   -7.4501 C.3     1  UNL1        0.0246
     29 C           4.3019   -1.3433   -3.2656 C.ar    1  UNL1       -0.0389
     30 C           3.8670   -0.4840   -2.2415 C.ar    1  UNL1       -0.0565
     31 H           0.6384    0.6893    0.7037 H       1  UNL1        0.0235
     32 H           0.5457   -0.9586    0.0842 H       1  UNL1        0.0235
     33 H           0.6014    0.3991   -1.0466 H       1  UNL1        0.0235
     34 H           2.8990    0.9792   -0.2797 H       1  UNL1        0.0343
     35 H           2.7098   -1.5449    1.4593 H       1  UNL1        0.0235
     36 H           2.7067    0.1193    2.0489 H       1  UNL1        0.0235
     37 H           4.1461   -0.5365    1.2488 H       1  UNL1        0.0235
     38 H           1.9477   -2.6842   -0.5228 H       1  UNL1        0.0621
     39 H           2.7788   -4.1965   -2.2211 H       1  UNL1        0.0637
     40 H           6.1228   -3.7565   -4.1040 H       1  UNL1        0.1991
     41 H           5.3530   -5.9474   -4.3778 H       1  UNL1        0.2445
     42 H           5.8463   -5.5800   -5.9301 H       1  UNL1        0.2445
     43 H           3.3144   -6.2793   -5.3627 H       1  UNL1        0.1771
     44 H           2.2971   -4.5487   -4.4917 H       1  UNL1        0.0851
     45 H           2.2421   -1.2764   -5.2650 H       1  UNL1        0.0458
     46 H           0.7306   -2.2554   -5.2352 H       1  UNL1        0.0458
     47 H           1.2159    1.2860   -5.1143 H       1  UNL1        0.0833
     48 H          -4.2609    3.9703   -4.9347 H       1  UNL1        0.0465
     49 H          -5.1193    3.2872   -6.3296 H       1  UNL1        0.0465
     50 H          -5.3240    5.9483   -5.7211 H       1  UNL1        0.0281
     51 H          -5.1607    5.4676   -7.4131 H       1  UNL1        0.0281
     52 H          -3.0835    6.6655   -5.6002 H       1  UNL1        0.0281
     53 H          -3.2532    6.8177   -7.3461 H       1  UNL1        0.0281
     54 H          -1.5363    4.9930   -5.8823 H       1  UNL1        0.0465
     55 H          -1.7689    5.0015   -7.6524 H       1  UNL1        0.0465
     56 H          -0.8791    0.6311   -8.5161 H       1  UNL1        0.0380
     57 H          -1.8568   -0.2289   -7.2525 H       1  UNL1        0.0380
     58 H           4.9229   -0.9282   -4.0582 H       1  UNL1        0.0637
     59 H           4.1809    0.5595   -2.2541 H       1  UNL1        0.0621
@<TRIPOS>UNITY_ATOM_ATTR
10 1
charge 1
@<TRIPOS>BOND
     1     1     2    1
     2     2     3    1
     3     2     4    1
     4     4     5   ar
     5     5     6   ar
     6     6     7   ar
     7     7     8    1
     8     8     9    1
     9     9    10    1
    10    10    11    1
    11    11    12    1
    12     8    12    1
    13    12    13    1
    14    13    14    1
    15    14    15    1
    16    15    16    2
    17    15    17    1
    18    17    18    2
    19    18    19    1
    20    19    20    2
    21    20    21    1
    22    21    22    2
    23    21    23   am
    24    23    24    1
    25    24    25    1
    26    25    26    1
    27    26    27    1
    28    23    27    1
    29    20    28    1
    30    17    28    1
    31     7    29   ar
    32    29    30   ar
    33     4    30   ar
    34     1    31    1
    35     1    32    1
    36     1    33    1
    37     2    34    1
    38     3    35    1
    39     3    36    1
    40     3    37    1
    41     5    38    1
    42     6    39    1
    43     9    40    1
    44    10    41    1
    45    10    42    1
    46    11    43    1
    47    12    44    1
    48    14    45    1
    49    14    46    1
    50    18    47    1
    51    24    48    1
    52    24    49    1
    53    25    50    1
    54    25    51    1
    55    26    52    1
    56    26    53    1
    57    27    54    1
    58    27    55    1
    59    28    56    1
    60    28    57    1
    61    29    58    1
    62    30    59    1
