@<TRIPOS>MOLECULE
*****
 52 54 0 0 0
SMALL
GASTEIGER

@<TRIPOS>ATOM
      1 C           2.4838    0.0050   -0.0131 C.3     1  UNL1       -0.0397
      2 C           0.9832    0.0025    0.0002 C.ar    1  UNL1       -0.0498
      3 C           0.2690   -1.1996    0.0045 C.ar    1  UNL1       -0.0588
      4 C          -1.1255   -1.1878    0.0032 C.ar    1  UNL1       -0.0609
      5 C          -1.8185    0.0264   -0.0005 C.ar    1  UNL1       -0.0526
      6 C          -1.1244    1.2445   -0.0002 C.ar    1  UNL1       -0.0014
      7 C          -1.8564    2.5259    0.0111 C.ar    1  UNL1        0.0492
      8 C          -1.7168    3.4445   -0.9576 C.ar    1  UNL1       -0.0368
      9 C          -2.4660    4.6882   -0.8965 C.ar    1  UNL1       -0.0424
     10 C          -3.3132    4.9704    0.1175 C.ar    1  UNL1        0.1023
     11 C          -4.0595    6.2783    0.1196 C.2     1  UNL1        0.2654
     12 O          -3.9221    7.0991   -0.7883 O.2     1  UNL1       -0.2685
     13 N          -4.9043    6.5075    1.1896 N.am    1  UNL1       -0.2302
     14 N          -5.6848    7.6868    1.2424 N.am    1  UNL1       -0.2341
     15 C          -6.5554    7.8633    2.3062 C.2     1  UNL1        0.2291
     16 O          -6.6510    7.0529    3.2253 O.2     1  UNL1       -0.2743
     17 C          -7.3748    9.1447    2.2484 C.3     1  UNL1        0.0257
     18 C          -8.2079    9.3501    3.5397 C.3     1  UNL1       -0.0408
     19 C          -8.9020   10.7207    3.6323 C.3     1  UNL1       -0.0272
     20 C          -7.9516   11.8991    3.6751 C.ar    1  UNL1       -0.0473
     21 C          -8.4433   13.2075    3.6375 C.ar    1  UNL1       -0.0586
     22 C          -7.5541   14.2865    3.5785 C.ar    1  UNL1       -0.0615
     23 C          -6.1765   14.0702    3.5085 C.ar    1  UNL1       -0.0617
     24 C          -5.6781   12.7814    3.5722 C.ar    1  UNL1       -0.0615
     25 C          -6.5595   11.7239    3.7292 C.ar    1  UNL1       -0.0586
     26 C          -3.4528    3.9381    1.1871 C.ar    1  UNL1        0.2614
     27 O          -4.1977    4.1084    2.1547 O.2     1  UNL1       -0.2671
     28 N          -2.7167    2.7836    1.0517 N.ar    1  UNL1       -0.3215
     29 C           0.2794    1.2183    0.0007 C.ar    1  UNL1       -0.0497
     30 H           2.8880   -1.0127    0.0004 H       1  UNL1        0.0278
     31 H           2.8698    0.5311    0.8657 H       1  UNL1        0.0278
     32 H           2.8490    0.4986   -0.9194 H       1  UNL1        0.0278
     33 H           0.7932   -2.1534    0.0055 H       1  UNL1        0.0620
     34 H          -1.6725   -2.1279    0.0004 H       1  UNL1        0.0618
     35 H          -2.9060    0.0111   -0.0177 H       1  UNL1        0.0624
     36 H          -1.0559    3.2809   -1.8055 H       1  UNL1        0.0638
     37 H          -2.3097    5.3855   -1.7161 H       1  UNL1        0.0627
     38 H          -5.0389    5.8290    1.9485 H       1  UNL1        0.1731
     39 H          -5.5418    8.3702    0.5008 H       1  UNL1        0.1728
     40 H          -8.0394    9.1413    1.3802 H       1  UNL1        0.0359
     41 H          -6.6614    9.9520    2.0640 H       1  UNL1        0.0359
     42 H          -7.5850    9.2153    4.4354 H       1  UNL1        0.0273
     43 H          -8.9692    8.5628    3.5974 H       1  UNL1        0.0273
     44 H          -9.5270   10.7466    4.5362 H       1  UNL1        0.0313
     45 H          -9.5821   10.8268    2.7756 H       1  UNL1        0.0313
     46 H          -9.5144   13.3996    3.6585 H       1  UNL1        0.0620
     47 H          -7.9349   15.3034    3.5760 H       1  UNL1        0.0618
     48 H          -5.4857   14.9026    3.4276 H       1  UNL1        0.0618
     49 H          -4.6134   12.5771    3.5110 H       1  UNL1        0.0618
     50 H          -6.1116   10.7443    3.8600 H       1  UNL1        0.0620
     51 H          -2.8118    2.1018    1.7949 H       1  UNL1        0.1689
     52 H           0.8376    2.1528    0.0093 H       1  UNL1        0.0627
@<TRIPOS>BOND
     1     1     2    1
     2     2     3   ar
     3     3     4   ar
     4     4     5   ar
     5     5     6   ar
     6     6     7    1
     7     7     8   ar
     8     8     9   ar
     9     9    10   ar
    10    10    11    1
    11    11    12    2
    12    11    13   am
    13    13    14    1
    14    14    15   am
    15    15    16    2
    16    15    17    1
    17    17    18    1
    18    18    19    1
    19    19    20    1
    20    20    21   ar
    21    21    22   ar
    22    22    23   ar
    23    23    24   ar
    24    24    25   ar
    25    20    25   ar
    26    10    26   ar
    27    26    27    2
    28    26    28   ar
    29     7    28   ar
    30     6    29   ar
    31     2    29   ar
    32     1    30    1
    33     1    31    1
    34     1    32    1
    35     3    33    1
    36     4    34    1
    37     5    35    1
    38     8    36    1
    39     9    37    1
    40    13    38    1
    41    14    39    1
    42    17    40    1
    43    17    41    1
    44    18    42    1
    45    18    43    1
    46    19    44    1
    47    19    45    1
    48    21    46    1
    49    22    47    1
    50    23    48    1
    51    24    49    1
    52    25    50    1
    53    28    51    1
    54    29    52    1
