REMARK  12 active torsions:
REMARK  status: ('A' for Active; 'I' for Inactive)
REMARK    1  A    between atoms: C_2  and  O_3 
REMARK    2  A    between atoms: O_3  and  C_4 
REMARK    3  A    between atoms: C_4  and  C_5 
REMARK    4  A    between atoms: C_5  and  O_6 
REMARK    5  A    between atoms: O_6  and  C_7 
REMARK    6  A    between atoms: C_10  and  C_11 
REMARK       I    between atoms: C_11  and  N_13 
REMARK    7  A    between atoms: N_13  and  C_14 
REMARK    8  A    between atoms: C_14  and  N_16 
REMARK    9  A    between atoms: N_16  and  N_17 
REMARK       I    between atoms: N_17  and  C_18 
REMARK   10  A    between atoms: C_18  and  C_20 
REMARK   11  A    between atoms: C_23  and  N_24 
REMARK       I    between atoms: N_24  and  C_25 
REMARK   12  A    between atoms: C_25  and  C_27 
ROOT
ATOM      1  N   UNL d   1       8.689   5.738  -9.733  0.00  0.00    -0.273 N 
ATOM      2  H   UNL d   1       7.893   6.262  -9.376  0.00  0.00     0.189 HD
ENDROOT
BRANCH   1   3
ATOM      3  C   UNL d   1       9.263   4.584  -9.161  0.00  0.00     0.193 C 
ATOM      4  S   UNL d   1      10.579   3.849  -9.924  0.00  0.00    -0.039 SA
BRANCH   3   5
ATOM      5  N   UNL d   1       8.664   4.136  -7.955  0.00  0.00    -0.298 N 
ATOM      6  C   UNL d   1       9.059   3.010  -7.182  0.00  0.00     0.257 C 
ATOM      7  O   UNL d   1      10.008   2.284  -7.478  0.00  0.00    -0.267 OA
ATOM      8  H   UNL d   1       7.864   4.657  -7.633  0.00  0.00     0.171 HD
BRANCH   6   9
ATOM      9  C   UNL d   1       8.313   2.589  -5.939  0.00  0.00     0.032 A 
ATOM     10  C   UNL d   1       8.739   1.407  -5.281  0.00  0.00     0.020 A 
ATOM     11  C   UNL d   1       8.028   0.860  -4.201  0.00  0.00     0.038 A 
ATOM     12  C   UNL d   1       6.906   1.517  -3.709  0.00  0.00     0.068 A 
ATOM     13  C   UNL d   1       6.521   2.723  -4.299  0.00  0.00     0.038 A 
ATOM     14  C   UNL d   1       7.209   3.253  -5.411  0.00  0.00     0.020 A 
BRANCH  12  15
ATOM     15  O   UNL d   1       6.310   0.976  -2.601  0.00  0.00    -0.349 OA
BRANCH  15  16
ATOM     16  C   UNL d   1       4.880   1.054  -2.571  0.00  0.00     0.201 C 
BRANCH  16  17
ATOM     17  C   UNL d   1       4.377   0.540  -1.224  0.00  0.00     0.194 C 
BRANCH  17  18
ATOM     18  O   UNL d   1       2.946   0.549  -1.199  0.00  0.00    -0.389 OA
BRANCH  18  19
ATOM     19  C   UNL d   1       2.457   0.061   0.051  0.00  0.00     0.163 C 
ATOM     20  C   UNL d   1       0.942   0.068   0.036  0.00  0.00     0.033 C 
ENDBRANCH  18  19
ENDBRANCH  17  18
ENDBRANCH  16  17
ENDBRANCH  15  16
ENDBRANCH  12  15
ENDBRANCH   6   9
ENDBRANCH   3   5
ENDBRANCH   1   3
BRANCH   1  21
ATOM     21  N   UNL d   1       9.250   6.253 -10.972  0.00  0.00    -0.264 N 
ATOM     22  C   UNL d   1       8.812   7.428 -11.567  0.00  0.00     0.270 C 
ATOM     23  O   UNL d   1       7.898   8.116 -11.107  0.00  0.00    -0.266 OA
ATOM     24  H   UNL d   1      10.062   5.740 -11.319  0.00  0.00     0.190 HD
BRANCH  22  25
ATOM     25  C   UNL d   1       9.498   7.836 -12.849  0.00  0.00     0.033 A 
ATOM     26  C   UNL d   1       9.789   9.179 -13.153  0.00  0.00     0.019 A 
ATOM     27  C   UNL d   1      10.343   9.548 -14.412  0.00  0.00     0.030 A 
ATOM     28  C   UNL d   1      10.661   8.572 -15.367  0.00  0.00     0.035 A 
ATOM     29  C   UNL d   1      10.326   7.250 -15.057  0.00  0.00     0.030 A 
ATOM     30  C   UNL d   1       9.761   6.881 -13.826  0.00  0.00     0.019 A 
BRANCH  28  31
ATOM     31  N   UNL d   1      11.326   8.925 -16.584  0.00  0.00    -0.323 N 
ATOM     32  C   UNL d   1      11.723   8.018 -17.566  0.00  0.00     0.256 C 
ATOM     33  O   UNL d   1      11.527   6.801 -17.563  0.00  0.00    -0.267 OA
ATOM     34  H   UNL d   1      11.548   9.904 -16.727  0.00  0.00     0.169 HD
BRANCH  32  35
ATOM     35  C   UNL d   1      12.471   8.521 -18.744  0.00  0.00     0.032 A 
ATOM     36  C   UNL d   1      12.178   7.960 -20.000  0.00  0.00     0.017 A 
ATOM     37  C   UNL d   1      12.983   8.240 -21.105  0.00  0.00     0.001 A 
ATOM     38  C   UNL d   1      14.051   9.123 -20.973  0.00  0.00     0.000 A 
ATOM     39  C   UNL d   1      14.348   9.680 -19.726  0.00  0.00     0.001 A 
ATOM     40  C   UNL d   1      13.569   9.371 -18.605  0.00  0.00     0.017 A 
ENDBRANCH  32  35
ENDBRANCH  28  31
ENDBRANCH  22  25
ENDBRANCH   1  21
TORSDOF 12
