REMARK  11 active torsions:
REMARK  status: ('A' for Active; 'I' for Inactive)
REMARK    1  A    between atoms: C_2  and  C_3 
REMARK    2  A    between atoms: C_3  and  N_4 
REMARK    3  A    between atoms: C_5  and  S_6 
REMARK    4  A    between atoms: S_6  and  C_7 
REMARK    5  A    between atoms: C_7  and  C_8 
REMARK       I    between atoms: C_8  and  N_10 
REMARK    6  A    between atoms: N_10  and  C_11 
REMARK    7  A    between atoms: C_11  and  C_12 
REMARK    8  A    between atoms: C_12  and  C_13 
REMARK    9  A    between atoms: C_12  and  C_22 
REMARK   10  A    between atoms: C_25  and  O_26 
REMARK   11  A    between atoms: C_32  and  O_33 
ROOT
ATOM      1  C   UNL d   1       7.671 -10.084  -1.196  0.00  0.00     0.068 C 
ENDROOT
BRANCH   1   2
ATOM      2  C   UNL d   1       6.437  -9.128  -1.491  0.00  0.00     0.136 C 
BRANCH   2   3
ATOM      3  N   UNL d   1       6.752  -7.691  -1.506  0.00  0.00    -0.359 N 
ATOM      4  C   UNL d   1       5.796  -6.679  -1.361  0.00  0.00     0.227 C 
ATOM      5  O   UNL d   1       4.605  -6.974  -1.415  0.00  0.00    -0.273 OA
ATOM      6  H   UNL d   1       7.667  -7.478  -1.877  0.00  0.00     0.162 HD
BRANCH   4   7
ATOM      7  C   UNL d   1       6.299  -5.206  -1.028  0.00  0.00     0.185 C 
BRANCH   7   8
ATOM      8  S   UNL d   1       4.907  -3.993  -1.124  0.00  0.00    -0.081 SA
BRANCH   8   9
ATOM      9  C   UNL d   1       5.512  -2.420  -0.719  0.00  0.00     0.187 C 
ATOM     10  N   UNL d   1       4.650  -1.255  -0.777  0.00  0.00    -0.315 N 
ATOM     11  C   UNL d   1       5.548  -0.114  -0.836  0.00  0.00     0.347 C 
ATOM     12  N   UNL d   1       6.669  -0.740  -0.192  0.00  0.00    -0.265 N 
ATOM     13  N   UNL d   1       6.728  -2.101  -0.382  0.00  0.00    -0.150 NA
ATOM     14  H   UNL d   1       7.490  -0.179   0.009  0.00  0.00     0.187 HD
BRANCH  10  15
ATOM     15  C   UNL d   1       3.190  -1.244  -0.830  0.00  0.00     0.129 C 
BRANCH  15  16
ATOM     16  C   UNL d   1       2.582  -0.083  -0.038  0.00  0.00     0.015 C 
ATOM     17  C   UNL d   1       1.066  -0.088  -0.021  0.00  0.00     0.006 C 
ENDBRANCH  15  16
ENDBRANCH  10  15
BRANCH  11  18
ATOM     18  O   UNL d   1       5.108   1.002  -0.129  0.00  0.00    -0.358 OA
ATOM     19  H   UNL d   1       4.969   0.728   0.787  0.00  0.00     0.214 HD
ENDBRANCH  11  18
ENDBRANCH   8   9
ENDBRANCH   7   8
ENDBRANCH   4   7
ENDBRANCH   2   3
ENDBRANCH   1   2
BRANCH   1  20
ATOM     20  C   UNL d   1       8.281  -9.809   0.206  0.00  0.00    -0.040 A 
ATOM     21  C   UNL d   1       8.559  -8.668   0.864  0.00  0.00    -0.005 A 
ATOM     22  C   UNL d   1       8.498  -7.272   0.606  0.00  0.00     0.014 C 
ATOM     23  C   UNL d   1       9.046  -9.070   2.205  0.00  0.00     0.038 A 
ATOM     24  C   UNL d   1       8.715  -6.371   1.561  0.00  0.00     0.001 C 
ATOM     25  C   UNL d   1       9.148  -6.767   2.869  0.00  0.00     0.002 C 
ATOM     26  C   UNL d   1       9.345  -8.052   3.211  0.00  0.00     0.030 C 
ATOM     27  N   UNL d   1       9.132 -10.341   2.331  0.00  0.00    -0.385 N 
ATOM     28  C   UNL d   1       8.664 -10.946   1.110  0.00  0.00     0.155 A 
ATOM     29  H   UNL d   1       9.444 -10.832   3.158  0.00  0.00     0.160 HD
ENDBRANCH   1  20
BRANCH   1  30
ATOM     30  C   UNL d   1       7.322 -11.574  -1.537  0.00  0.00    -0.048 A 
ATOM     31  C   UNL d   1       7.801 -12.713  -0.859  0.00  0.00     0.011 A 
ATOM     32  C   UNL d   1       7.591 -14.023  -1.251  0.00  0.00     0.037 A 
ATOM     33  C   UNL d   1       6.809 -14.274  -2.340  0.00  0.00     0.068 A 
ATOM     34  C   UNL d   1       6.224 -13.203  -3.006  0.00  0.00     0.037 A 
ATOM     35  C   UNL d   1       6.536 -11.876  -2.658  0.00  0.00     0.011 A 
BRANCH  33  36
ATOM     36  O   UNL d   1       6.721 -15.596  -2.634  0.00  0.00    -0.356 OA
ATOM     37  C   UNL d   1       5.999 -15.885  -3.812  0.00  0.00     0.210 C 
ENDBRANCH  33  36
ENDBRANCH   1  30
TORSDOF 11
