@<TRIPOS>MOLECULE
*****
 61 63 0 0 0
SMALL
GASTEIGER

@<TRIPOS>ATOM
      1 C           0.9687   -0.0758    0.0037 C.3     1  UNL1       -0.0570
      2 C           2.4990   -0.0665   -0.0590 C.3     1  UNL1        0.0215
      3 C           2.9434    0.6665   -1.3104 C.2     1  UNL1        0.2169
      4 O           2.1253    0.9027   -2.1988 O.2     1  UNL1       -0.2755
      5 N           4.2944    0.9771   -1.3922 N.am    1  UNL1       -0.2852
      6 C           4.8362    1.8234   -2.4111 C.ar    1  UNL1        0.0381
      7 C           6.0012    1.4042   -3.0641 C.ar    1  UNL1       -0.0401
      8 C           6.5915    2.2199   -4.0279 C.ar    1  UNL1       -0.0582
      9 C           6.0380    3.4720   -4.3186 C.ar    1  UNL1       -0.0405
     10 C           4.8793    3.9507   -3.6674 C.ar    1  UNL1        0.0322
     11 N           4.4438    5.2239   -4.0157 N.pl3   1  UNL1       -0.3351
     12 C           3.2717    5.8678   -3.4536 C.3     1  UNL1        0.0861
     13 C           2.9763    7.2415   -3.9722 C.2     1  UNL1        0.2343
     14 O           3.6911    7.7705   -4.8202 O.2     1  UNL1       -0.2738
     15 N           1.8675    7.8243   -3.3325 N.am    1  UNL1       -0.2842
     16 C           1.4421    9.1102   -3.6841 C.ar    1  UNL1        0.0335
     17 C           0.9928   10.0334   -2.7364 C.ar    1  UNL1       -0.0387
     18 C           0.5989   11.3202   -3.1504 C.ar    1  UNL1       -0.0387
     19 C           0.7149   11.6875   -4.4963 C.ar    1  UNL1        0.0338
     20 N           0.3289   12.9805   -4.9233 N.am    1  UNL1       -0.2815
     21 C           0.3393   13.4563   -6.2275 C.2     1  UNL1        0.2483
     22 O           0.8006   14.5775   -6.4707 O.2     1  UNL1       -0.2699
     23 C          -0.3041   12.6567   -7.3268 C.ar    1  UNL1        0.0373
     24 C          -0.1697   13.0435   -8.6634 C.ar    1  UNL1       -0.0496
     25 C          -0.7352   12.2571   -9.6762 C.ar    1  UNL1       -0.0608
     26 C          -1.3794   11.0532   -9.3690 C.ar    1  UNL1       -0.0588
     27 C          -1.5148   10.6532   -8.0437 C.ar    1  UNL1       -0.0497
     28 C          -2.0912    9.3283   -7.6452 C.3     1  UNL1       -0.0397
     29 C          -1.0519   11.5043   -7.0412 C.ar    1  UNL1       -0.0467
     30 C           1.2241   10.7589   -5.4018 C.ar    1  UNL1       -0.0387
     31 C           1.5012    9.4666   -5.0191 C.ar    1  UNL1       -0.0387
     32 C           4.2744    3.1078   -2.6941 C.ar    1  UNL1       -0.0084
     33 C           3.0812    3.5033   -1.8631 C.3     1  UNL1       -0.0362
     34 H           0.6006   -0.6824    0.8345 H       1  UNL1        0.0234
     35 H           0.5399   -0.4816   -0.9209 H       1  UNL1        0.0234
     36 H           0.5756    0.9424    0.1178 H       1  UNL1        0.0234
     37 H           2.8695   -1.0929   -0.1273 H       1  UNL1        0.0356
     38 H           2.9027    0.4028    0.8450 H       1  UNL1        0.0356
     39 H           4.9417    0.3640   -0.9138 H       1  UNL1        0.1548
     40 H           6.4351    0.4264   -2.8713 H       1  UNL1        0.0636
     41 H           7.4831    1.8868   -4.5571 H       1  UNL1        0.0619
     42 H           6.5370    4.0879   -5.0676 H       1  UNL1        0.0636
     43 H           4.9409    5.7626   -4.7210 H       1  UNL1        0.1466
     44 H           3.4594    6.0523   -2.3902 H       1  UNL1        0.0557
     45 H           2.3806    5.2678   -3.6762 H       1  UNL1        0.0557
     46 H           1.4735    7.4016   -2.4987 H       1  UNL1        0.1549
     47 H           1.0119    9.8002   -1.6747 H       1  UNL1        0.0637
     48 H           0.2093   12.0183   -2.4129 H       1  UNL1        0.0637
     49 H           0.3232   13.7077   -4.2184 H       1  UNL1        0.1551
     50 H           0.3636   13.9557   -8.9254 H       1  UNL1        0.0625
     51 H          -0.6620   12.5736  -10.7139 H       1  UNL1        0.0618
     52 H          -1.7826   10.4362  -10.1679 H       1  UNL1        0.0620
     53 H          -2.4939    8.7892   -8.5055 H       1  UNL1        0.0278
     54 H          -2.8960    9.4762   -6.9185 H       1  UNL1        0.0278
     55 H          -1.3163    8.7020   -7.1842 H       1  UNL1        0.0278
     56 H          -1.2220   11.1960   -6.0149 H       1  UNL1        0.0628
     57 H           1.3838   10.9803   -6.4495 H       1  UNL1        0.0637
     58 H           1.7778    8.7508   -5.7882 H       1  UNL1        0.0637
     59 H           2.7235    4.5108   -1.8739 H       1  UNL1        0.0279
     60 H           3.3027    3.3625   -0.8034 H       1  UNL1        0.0279
     61 H           2.1916    2.9879   -2.2091 H       1  UNL1        0.0279
@<TRIPOS>BOND
     1     1     2    1
     2     2     3    1
     3     3     4    2
     4     3     5   am
     5     5     6    1
     6     6     7   ar
     7     7     8   ar
     8     8     9   ar
     9     9    10   ar
    10    10    11    1
    11    11    12    1
    12    12    13    1
    13    13    14    2
    14    13    15   am
    15    15    16    1
    16    16    17   ar
    17    17    18   ar
    18    18    19   ar
    19    19    20    1
    20    20    21   am
    21    21    22    2
    22    21    23    1
    23    23    24   ar
    24    24    25   ar
    25    25    26   ar
    26    26    27   ar
    27    27    28    1
    28    27    29   ar
    29    23    29   ar
    30    19    30   ar
    31    30    31   ar
    32    16    31   ar
    33    10    32   ar
    34     6    32   ar
    35    32    33    1
    36     1    34    1
    37     1    35    1
    38     1    36    1
    39     2    37    1
    40     2    38    1
    41     5    39    1
    42     7    40    1
    43     8    41    1
    44     9    42    1
    45    11    43    1
    46    12    44    1
    47    12    45    1
    48    15    46    1
    49    17    47    1
    50    18    48    1
    51    20    49    1
    52    24    50    1
    53    25    51    1
    54    26    52    1
    55    28    53    1
    56    28    54    1
    57    28    55    1
    58    29    56    1
    59    30    57    1
    60    31    58    1
    61    33    59    1
    62    33    60    1
    63    33    61    1
