@<TRIPOS>MOLECULE
*****
 46 49 0 0 0
SMALL
GASTEIGER

@<TRIPOS>ATOM
      1 O           1.1604    0.2039   -0.2258 O.2     1  UNL1       -0.2686
      2 C           2.3661    0.2028   -0.0897 C.2     1  UNL1        0.2605
      3 N           2.9749   -0.2701    1.0960 N.am    1  UNL1       -0.3071
      4 C           2.3063   -0.6324    2.3685 C.3     1  UNL1        0.0450
      5 C           3.2978   -1.0552    3.5353 C.3     1  UNL1        0.1066
      6 O           4.4021   -0.1334    3.5978 O.3     1  UNL1       -0.3824
      7 C           3.8700   -2.4707    3.3052 C.3     1  UNL1       -0.0180
      8 C           2.8052   -3.5293    3.5874 C.3     1  UNL1       -0.0461
      9 C           2.4742   -3.5336    5.0749 C.3     1  UNL1       -0.0272
     10 C           2.2167   -2.1451    5.6082 C.ar    1  UNL1       -0.0414
     11 C           1.6017   -2.0214    6.8659 C.ar    1  UNL1       -0.0582
     12 C           1.3681   -0.7662    7.4240 C.ar    1  UNL1       -0.0615
     13 C           1.7605    0.3795    6.7413 C.ar    1  UNL1       -0.0614
     14 C           2.3817    0.2699    5.4978 C.ar    1  UNL1       -0.0555
     15 C           2.6177   -0.9858    4.9068 C.ar    1  UNL1       -0.0115
     16 C           3.3547    0.6508   -1.1333 C.ar    1  UNL1        0.1029
     17 C           4.7087    0.4304   -1.0387 C.ar    1  UNL1       -0.0239
     18 C           5.2742    0.5587   -2.3066 C.ar    1  UNL1        0.0071
     19 C           6.4361   -0.0135   -2.8251 C.ar    1  UNL1       -0.0521
     20 C           6.8057    0.2357   -4.1253 C.ar    1  UNL1       -0.0547
     21 C           6.2869    1.3588   -4.7322 C.ar    1  UNL1        0.0178
     22 C           5.1511    2.0562   -4.2078 C.ar    1  UNL1        0.2967
     23 N           5.0768    3.4602   -4.7298 N.pl3   1  UNL1        0.0818
     24 O           5.8567    3.7794   -5.6518 O.2     1  UNL1        0.0415
     25 O           4.3193    4.2580   -4.1706 O.co2   1  UNL1       -0.5760
     26 C           4.4920    1.4394   -3.0562 C.ar    1  UNL1        0.1251
     27 N           3.2122    1.2778   -2.4224 N.ar    1  UNL1       -0.3453
     28 H           3.9712   -0.2697    1.1376 H       1  UNL1        0.1492
     29 H           1.5959   -1.4361    2.1577 H       1  UNL1        0.0494
     30 H           1.7170    0.2360    2.6769 H       1  UNL1        0.0494
     31 H           4.9210   -0.1933    2.7864 H       1  UNL1        0.2107
     32 H           4.7381   -2.6461    3.9601 H       1  UNL1        0.0297
     33 H           4.2516   -2.5671    2.2834 H       1  UNL1        0.0297
     34 H           3.1476   -4.5202    3.2737 H       1  UNL1        0.0269
     35 H           1.8916   -3.3243    3.0193 H       1  UNL1        0.0269
     36 H           3.3094   -3.9754    5.6334 H       1  UNL1        0.0313
     37 H           1.5921   -4.1634    5.2419 H       1  UNL1        0.0313
     38 H           1.2987   -2.9096    7.4172 H       1  UNL1        0.0620
     39 H           0.8833   -0.6830    8.3928 H       1  UNL1        0.0618
     40 H           1.5882    1.3609    7.1744 H       1  UNL1        0.0618
     41 H           2.6990    1.1768    4.9859 H       1  UNL1        0.0621
     42 H           5.2244   -0.0356   -0.2186 H       1  UNL1        0.0646
     43 H           6.9797   -0.7240   -2.2168 H       1  UNL1        0.0624
     44 H           7.5771   -0.3612   -4.5966 H       1  UNL1        0.0620
     45 H           6.8584    1.7320   -5.5877 H       1  UNL1        0.0686
     46 H           2.3146    1.3285   -2.8990 H       1  UNL1        0.1662
@<TRIPOS>UNITY_ATOM_ATTR
23 1
charge 1
25 1
charge -1
@<TRIPOS>BOND
     1     1     2    2
     2     2     3   am
     3     3     4    1
     4     4     5    1
     5     5     6    1
     6     5     7    1
     7     7     8    1
     8     8     9    1
     9     9    10    1
    10    10    11   ar
    11    11    12   ar
    12    12    13   ar
    13    13    14   ar
    14    14    15   ar
    15    10    15   ar
    16     5    15    1
    17     2    16    1
    18    16    17   ar
    19    17    18   ar
    20    18    19   ar
    21    19    20   ar
    22    20    21   ar
    23    21    22   ar
    24    22    23    1
    25    23    24    2
    26    23    25    1
    27    22    26   ar
    28    18    26   ar
    29    26    27   ar
    30    16    27   ar
    31     3    28    1
    32     4    29    1
    33     4    30    1
    34     6    31    1
    35     7    32    1
    36     7    33    1
    37     8    34    1
    38     8    35    1
    39     9    36    1
    40     9    37    1
    41    11    38    1
    42    12    39    1
    43    13    40    1
    44    14    41    1
    45    17    42    1
    46    19    43    1
    47    20    44    1
    48    21    45    1
    49    27    46    1
