@<TRIPOS>MOLECULE
*****
 60 63 0 0 0
SMALL
GASTEIGER

@<TRIPOS>ATOM
      1 C           1.1794   -1.7496    0.1479 C.3     1  UNL1       -0.0134
      2 S           0.1693   -0.3602    0.6026 S.3     1  UNL1       -0.1268
      3 C          -1.5044   -0.8048    0.6513 C.ar    1  UNL1        0.0288
      4 C          -2.0039   -0.3117    1.8653 C.ar    1  UNL1       -0.0465
      5 C          -3.0545   -0.9462    2.4682 C.ar    1  UNL1       -0.0606
      6 C          -3.7361   -1.9119    1.7425 C.ar    1  UNL1       -0.0599
      7 C          -3.3637   -2.2354    0.4162 C.ar    1  UNL1       -0.0394
      8 C          -2.2369   -1.6578   -0.1776 C.ar    1  UNL1        0.0470
      9 N          -1.8982   -1.9844   -1.5369 N.am    1  UNL1       -0.2818
     10 C          -1.0481   -1.2267   -2.3279 C.2     1  UNL1        0.2550
     11 O          -0.6003   -0.1274   -2.0100 O.2     1  UNL1       -0.2717
     12 C          -0.6728   -1.7553   -3.6915 C.3     1  UNL1        0.1684
     13 O           0.4897   -0.9560   -4.0053 O.3     1  UNL1       -0.4539
     14 C           0.7855   -0.9499   -5.3088 C.2     1  UNL1        0.3284
     15 O           0.2850   -1.7677   -6.0757 O.2     1  UNL1       -0.2487
     16 C           1.8261    0.1388   -5.6368 C.3     1  UNL1        0.1247
     17 C           1.7626    1.6919   -4.7025 C.3     1  UNL1        0.0032
     18 C           1.4653    2.0915   -2.9583 C.ar    1  UNL1       -0.0201
     19 C           2.5729    1.5746   -2.3350 C.ar    1  UNL1        0.0060
     20 N           1.7589    1.1005   -1.3691 N.ar    1  UNL1       -0.3604
     21 C           1.5517    2.2258   -0.6252 C.ar    1  UNL1        0.0467
     22 C           1.6541    2.1355    0.8387 C.ar    1  UNL1       -0.0378
     23 C           1.3362    3.0787    1.7501 C.ar    1  UNL1       -0.0598
     24 C           1.1028    4.2314    1.0982 C.ar    1  UNL1       -0.0611
     25 C           1.0148    4.2555   -0.4493 C.ar    1  UNL1       -0.0523
     26 C           1.2139    3.2702   -1.6575 C.ar    1  UNL1        0.0029
     27 N           1.6783    0.3268   -7.2010 N.am    1  UNL1       -0.2980
     28 C           1.7423   -0.6759   -8.2111 C.2     1  UNL1        0.2461
     29 O           2.0075   -1.8611   -8.0282 O.2     1  UNL1       -0.2701
     30 C           1.4416   -0.2829   -9.6440 C.ar    1  UNL1        0.0550
     31 C           0.4969   -1.0238  -10.4009 C.ar    1  UNL1       -0.0482
     32 C           0.2839   -0.7619  -11.7703 C.ar    1  UNL1       -0.0610
     33 C           0.9724    0.2737  -12.3932 C.ar    1  UNL1       -0.0603
     34 C           1.9195    0.9961  -11.6661 C.ar    1  UNL1       -0.0427
     35 C           2.1627    0.7135  -10.3077 C.ar    1  UNL1        0.0531
     36 CL          3.3944    1.6303   -9.5207 Cl      1  UNL1       -0.0828
     37 H           2.0555   -1.3701   -0.3928 H       1  UNL1        0.0344
     38 H           0.6916   -2.5047   -0.4610 H       1  UNL1        0.0344
     39 H           1.5289   -2.1540    1.0936 H       1  UNL1        0.0344
     40 H          -1.4749    0.4837    2.3958 H       1  UNL1        0.0629
     41 H          -3.2713   -0.7171    3.5063 H       1  UNL1        0.0618
     42 H          -4.5742   -2.4060    2.2218 H       1  UNL1        0.0618
     43 H          -3.9552   -2.9789   -0.1069 H       1  UNL1        0.0636
     44 H          -2.4940   -2.6531   -2.0100 H       1  UNL1        0.1549
     45 H          -1.4934   -1.5203   -4.3797 H       1  UNL1        0.0796
     46 H          -0.3979   -2.8121   -3.6959 H       1  UNL1        0.0796
     47 H           2.8236   -0.3393   -5.5363 H       1  UNL1        0.0618
     48 H           2.8739    1.7974   -4.6590 H       1  UNL1        0.0337
     49 H           1.4356    2.4785   -5.3736 H       1  UNL1        0.0337
     50 H           3.4020    2.2604   -2.1610 H       1  UNL1        0.0810
     51 H           0.9214    0.5278   -1.4932 H       1  UNL1        0.1653
     52 H           1.9915    1.1861    1.2550 H       1  UNL1        0.0638
     53 H           1.3547    2.8827    2.8242 H       1  UNL1        0.0618
     54 H           1.0421    5.1146    1.7480 H       1  UNL1        0.0618
     55 H           0.8461    5.3136   -0.7068 H       1  UNL1        0.0624
     56 H           1.7409    1.2719   -7.5448 H       1  UNL1        0.1498
     57 H          -0.0879   -1.8166   -9.9346 H       1  UNL1        0.0625
     58 H          -0.4075   -1.3688  -12.3571 H       1  UNL1        0.0618
     59 H           0.7807    0.5156  -13.4385 H       1  UNL1        0.0618
     60 H           2.4845    1.7762  -12.1722 H       1  UNL1        0.0632
@<TRIPOS>BOND
     1     1     2    1
     2     2     3    1
     3     3     4   ar
     4     4     5   ar
     5     5     6   ar
     6     6     7   ar
     7     7     8   ar
     8     3     8   ar
     9     8     9    1
    10     9    10   am
    11    10    11    2
    12    10    12    1
    13    12    13    1
    14    13    14    1
    15    14    15    2
    16    17    18    1
    17    18    19   ar
    18    19    20   ar
    19    20    21   ar
    20    21    22   ar
    21    22    23   ar
    22    23    24   ar
    23    24    25   ar
    24    25    26   ar
    25    18    26   ar
    26    21    26   ar
    27    16    27    1
    28    27    28   am
    29    28    29    2
    30    28    30    1
    31    30    31   ar
    32    31    32   ar
    33    32    33   ar
    34    33    34   ar
    35    34    35   ar
    36    30    35   ar
    37    35    36    1
    38    16    17    1
    39    16    14    1
    40     1    37    1
    41     1    38    1
    42     1    39    1
    43     4    40    1
    44     5    41    1
    45     6    42    1
    46     7    43    1
    47     9    44    1
    48    12    45    1
    49    12    46    1
    50    16    47    1
    51    17    48    1
    52    17    49    1
    53    19    50    1
    54    20    51    1
    55    22    52    1
    56    23    53    1
    57    24    54    1
    58    25    55    1
    59    27    56    1
    60    31    57    1
    61    32    58    1
    62    33    59    1
    63    34    60    1
