@<TRIPOS>MOLECULE
*****
 56 59 0 0 0
SMALL
GASTEIGER

@<TRIPOS>ATOM
      1 C           0.9020    0.0419   -0.0152 C.3     1  UNL1        0.0788
      2 O           2.3152    0.1352   -0.1091 O.3     1  UNL1       -0.4951
      3 C           2.9406    0.5988    1.0121 C.ar    1  UNL1        0.1202
      4 C           4.1493    1.2562    0.7838 C.ar    1  UNL1       -0.0181
      5 C           4.9194    1.6161    1.8708 C.ar    1  UNL1       -0.0314
      6 C           4.4175    1.3789    3.1673 C.ar    1  UNL1        0.1127
      7 S           5.3552    2.0004    4.4787 S.O2    1  UNL1        0.0992
      8 O           6.5583    1.1967    4.3596 O.2     1  UNL1       -0.1463
      9 O           5.3227    3.4187    4.1700 O.2     1  UNL1       -0.1463
     10 N           4.6929    1.7735    5.9725 N.2     1  UNL1       -0.1288
     11 C           5.2037    2.2734    7.0761 C.2     1  UNL1        0.0914
     12 C           4.5210    1.9801    8.3874 C.2     1  UNL1       -0.0084
     13 C           4.9227    2.4261    9.5986 C.2     1  UNL1        0.0935
     14 N           4.2949    2.1701   10.8102 N.pl3   1  UNL1       -0.2606
     15 N           3.1597    1.3914   10.9858 N.am    1  UNL1       -0.2324
     16 C           2.5821    1.2652   12.2313 C.2     1  UNL1        0.2603
     17 O           3.0021    1.7967   13.2601 O.2     1  UNL1       -0.2687
     18 C           1.3655    0.4075   12.2738 C.ar    1  UNL1        0.0450
     19 C           0.3027    0.7563   13.1175 C.ar    1  UNL1       -0.0078
     20 C          -0.7583   -0.1345   13.2772 C.ar    1  UNL1        0.1210
     21 O          -1.7528    0.0950   14.1836 O.3     1  UNL1       -0.5066
     22 C          -0.8216   -1.3207   12.5507 C.ar    1  UNL1        0.0213
     23 C           0.2270   -1.6437   11.6977 C.ar    1  UNL1        0.1210
     24 O           0.2480   -2.8177   11.0034 O.3     1  UNL1       -0.5066
     25 C           1.3213   -0.7954   11.5550 C.ar    1  UNL1       -0.0078
     26 C           6.1570    3.2868    9.6976 C.2     1  UNL1        0.2049
     27 O           6.5495    3.7172   10.7881 O.2     1  UNL1       -0.2856
     28 C           6.8838    3.5968    8.4565 C.2     1  UNL1        0.0104
     29 C           6.4295    3.1316    7.2836 C.2     1  UNL1       -0.0095
     30 C           7.2109    3.4449    6.0801 C.3     1  UNL1       -0.0070
     31 C           8.5946    3.8866    6.1773 C.2     1  UNL1       -0.0832
     32 C           9.0555    4.3437    7.3342 C.2     1  UNL1       -0.0832
     33 C           8.1554    4.4270    8.5460 C.3     1  UNL1       -0.0054
     34 C           3.2232    0.7566    3.4155 C.ar    1  UNL1       -0.0314
     35 C           2.4850    0.3583    2.3201 C.ar    1  UNL1       -0.0181
     36 H           0.5513   -0.4980   -0.8963 H       1  UNL1        0.0660
     37 H           0.4727    1.0474   -0.0172 H       1  UNL1        0.0660
     38 H           0.5534   -0.5249    0.8522 H       1  UNL1        0.0660
     39 H           4.4871    1.4866   -0.2240 H       1  UNL1        0.0655
     40 H           5.8965    2.0810    1.7206 H       1  UNL1        0.0638
     41 H           3.6407    1.3549    8.3032 H       1  UNL1        0.0659
     42 H           4.7259    2.5834   11.6536 H       1  UNL1        0.1701
     43 H           2.7164    1.0151   10.1588 H       1  UNL1        0.1730
     44 H           0.3207    1.7078   13.6421 H       1  UNL1        0.0662
     45 H          -1.4780    0.8124   14.7808 H       1  UNL1        0.2921
     46 H          -1.6753   -1.9787   12.6803 H       1  UNL1        0.0691
     47 H          -0.5153   -3.3578   11.2722 H       1  UNL1        0.2921
     48 H           2.1476   -1.1090   10.9243 H       1  UNL1        0.0662
     49 H           6.6753    4.2107    5.5274 H       1  UNL1        0.0356
     50 H           7.3881    2.4859    5.6411 H       1  UNL1        0.0356
     51 H           9.1684    3.7789    5.2603 H       1  UNL1        0.0572
     52 H          10.0881    4.6611    7.3715 H       1  UNL1        0.0572
     53 H           7.8727    5.4777    8.6730 H       1  UNL1        0.0357
     54 H           8.7508    4.1030    9.4009 H       1  UNL1        0.0357
     55 H           2.8919    0.5780    4.4309 H       1  UNL1        0.0638
     56 H           1.5625   -0.1623    2.5299 H       1  UNL1        0.0655
@<TRIPOS>BOND
     1     1     2    1
     2     2     3    1
     3     3     4   ar
     4     4     5   ar
     5     5     6   ar
     6     6     7    1
     7     7     8    2
     8     7     9    2
     9     7    10    1
    10    10    11    2
    11    11    12    1
    12    12    13    2
    13    13    14    1
    14    14    15    1
    15    15    16   am
    16    16    17    2
    17    16    18    1
    18    18    19   ar
    19    19    20   ar
    20    20    21    1
    21    20    22   ar
    22    22    23   ar
    23    23    24    1
    24    23    25   ar
    25    18    25   ar
    26    13    26    1
    27    26    27    2
    28    26    28    1
    29    28    29    2
    30    11    29    1
    31    29    30    1
    32    30    31    1
    33    31    32    2
    34    32    33    1
    35    28    33    1
    36     6    34   ar
    37    34    35   ar
    38     3    35   ar
    39     1    36    1
    40     1    37    1
    41     1    38    1
    42     4    39    1
    43     5    40    1
    44    12    41    1
    45    14    42    1
    46    15    43    1
    47    19    44    1
    48    21    45    1
    49    22    46    1
    50    24    47    1
    51    25    48    1
    52    30    49    1
    53    30    50    1
    54    31    51    1
    55    32    52    1
    56    33    53    1
    57    33    54    1
    58    34    55    1
    59    35    56    1
