REMARK  7 active torsions:
REMARK  status: ('A' for Active; 'I' for Inactive)
REMARK    1  A    between atoms: C_8  and  N_9 
REMARK       I    between atoms: N_9  and  C_10 
REMARK    2  A    between atoms: C_10  and  C_12 
REMARK    3  A    between atoms: C_12  and  N_13 
REMARK    4  A    between atoms: N_13  and  C_14 
REMARK    5  A    between atoms: C_17  and  C_18 
REMARK       I    between atoms: C_18  and  N_20 
REMARK    6  A    between atoms: N_20  and  C_21 
REMARK    7  A    between atoms: C_21  and  C_22 
ROOT
ATOM      1  C   UNL d   1       2.912   6.704  -0.149  0.00  0.00     0.028 A 
ATOM      2  C   UNL d   1       3.984   7.178  -0.913  0.00  0.00     0.030 A 
ATOM      3  C   UNL d   1       4.376   8.520  -0.847  0.00  0.00     0.019 A 
ATOM      4  C   UNL d   1       3.681   9.419  -0.029  0.00  0.00     0.032 A 
ATOM      5  C   UNL d   1       2.654   8.923   0.785  0.00  0.00     0.019 A 
ATOM      6  C   UNL d   1       2.281   7.580   0.721  0.00  0.00     0.030 A 
ENDROOT
BRANCH   1   7
ATOM      7  N   UNL d   1       2.495   5.414  -0.318  0.00  0.00    -0.381 N 
ATOM      8  H   UNL d   1       3.217   4.688  -0.193  0.00  0.00     0.160 HD
BRANCH   7   9
ATOM      9  C   UNL d   1       1.127   4.888  -0.110  0.00  0.00     0.223 C 
BRANCH   9  10
ATOM     10  C   UNL d   1       1.282   3.372  -0.035  0.00  0.00     0.239 C 
ATOM     11  N   UNL d   1       0.165   2.545  -0.035  0.00  0.00    -0.325 N 
ATOM     12  H   UNL d   1      -0.737   3.005  -0.054  0.00  0.00     0.169 HD
ATOM     13  O   UNL d   1       2.470   3.038   0.040  0.00  0.00    -0.271 OA
BRANCH  11  14
ATOM     14  C   UNL d   1       0.119   1.090  -0.010  0.00  0.00     0.046 A 
ATOM     15  C   UNL d   1      -1.146   0.423  -0.006  0.00  0.00    -0.035 A 
ATOM     16  C   UNL d   1      -1.208  -0.997  -0.003  0.00  0.00     0.009 A 
ATOM     17  C   UNL d   1      -2.488   1.116  -0.006  0.00  0.00     0.050 C 
ATOM     18  C   UNL d   1      -0.064  -1.778   0.000  0.00  0.00     0.001 A 
ATOM     19  C   UNL d   1       1.159  -1.153   0.005  0.00  0.00     0.009 A 
ATOM     20  C   UNL d   1       1.267   0.250  -0.000  0.00  0.00    -0.035 A 
ATOM     21  C   UNL d   1       2.690   0.700   0.005  0.00  0.00     0.050 C 
ENDBRANCH  11  14
ENDBRANCH   9  10
ENDBRANCH   7   9
ENDBRANCH   1   7
BRANCH   4  22
ATOM     22  C   UNL d   1       4.034  10.877  -0.109  0.00  0.00     0.251 C 
ATOM     23  O   UNL d   1       4.930  11.262  -0.853  0.00  0.00    -0.268 OA
ATOM     24  N   UNL d   1       3.288  11.744   0.656  0.00  0.00    -0.351 N 
ATOM     25  H   UNL d   1       2.536  11.389   1.213  0.00  0.00     0.163 HD
BRANCH  24  26
ATOM     26  C   UNL d   1       3.489  13.183   0.643  0.00  0.00     0.187 C 
BRANCH  26  27
ATOM     27  C   UNL d   1       2.548  13.829   1.610  0.00  0.00     0.070 A 
ATOM     28  C   UNL d   1       1.568  13.347   2.460  0.00  0.00     0.036 A 
ATOM     29  C   UNL d   1       1.043  14.454   3.160  0.00  0.00     0.027 A 
ATOM     30  C   UNL d   1       1.715  15.555   2.687  0.00  0.00     0.142 A 
ATOM     31  O   UNL d   1       2.627  15.190   1.745  0.00  0.00    -0.325 OA
ENDBRANCH  26  27
ENDBRANCH  24  26
ENDBRANCH   4  22
TORSDOF 7
