REMARK  6 active torsions:
REMARK  status: ('A' for Active; 'I' for Inactive)
REMARK    1  A    between atoms: C_2  and  N_3 
REMARK    2  A    between atoms: C_2  and  C_20 
REMARK    3  A    between atoms: N_3  and  C_4 
REMARK    4  A    between atoms: C_7  and  O_8 
REMARK    5  A    between atoms: O_8  and  C_9 
REMARK    6  A    between atoms: C_9  and  C_10 
REMARK       I    between atoms: C_20  and  N_22 
REMARK       I    between atoms: N_22  and  C_23 
REMARK       I    between atoms: C_23  and  N_24 
ROOT
ATOM      1  C   UNL d   1       2.727   1.285   2.270  0.00  0.00     0.031 A 
ATOM      2  C   UNL d   1       1.468   1.891   2.380  0.00  0.00     0.032 A 
ATOM      3  C   UNL d   1       1.207   2.967   3.242  0.00  0.00     0.042 A 
ATOM      4  C   UNL d   1       2.212   3.468   4.052  0.00  0.00     0.107 A 
ATOM      5  C   UNL d   1       3.475   2.880   3.953  0.00  0.00     0.151 A 
ATOM      6  F   UNL d   1       4.504   3.300   4.704  0.00  0.00    -0.203 F 
ATOM      7  C   UNL d   1       3.731   1.819   3.077  0.00  0.00     0.074 A 
ENDROOT
BRANCH   1   8
ATOM      8  N   UNL d   1       3.034   0.223   1.431  0.00  0.00    -0.377 N 
ATOM      9  H   UNL d   1       3.647  -0.485   1.827  0.00  0.00     0.160 HD
BRANCH   8  10
ATOM     10  C   UNL d   1       2.570   0.027   0.043  0.00  0.00     0.170 C 
ATOM     11  C   UNL d   1       1.047   0.016  -0.071  0.00  0.00     0.042 C 
BRANCH  10  12
ATOM     12  C   UNL d   1       3.031  -1.341  -0.546  0.00  0.00     0.247 C 
ATOM     13  O   UNL d   1       2.207  -2.176  -0.935  0.00  0.00    -0.271 OA
ATOM     14  N   UNL d   1       4.391  -1.574  -0.657  0.00  0.00    -0.278 N 
ATOM     15  C   UNL d   1       4.973  -2.703  -1.184  0.00  0.00     0.320 C 
ATOM     16  H   UNL d   1       5.055  -0.875  -0.356  0.00  0.00     0.173 HD
ATOM     17  N   UNL d   1       4.142  -3.672  -1.627  0.00  0.00    -0.352 N 
ATOM     18  O   UNL d   1       6.195  -2.832  -1.251  0.00  0.00    -0.247 OA
ATOM     19  H   UNL d   1       3.133  -3.542  -1.572  0.00  0.00     0.160 HD
ATOM     20  H   UNL d   1       4.500  -4.528  -2.024  0.00  0.00     0.160 HD
ENDBRANCH  10  12
ENDBRANCH   8  10
ENDBRANCH   1   8
BRANCH   4  21
ATOM     21  O   UNL d   1       1.832   4.488   4.885  0.00  0.00    -0.344 OA
BRANCH  21  22
ATOM     22  C   UNL d   1       2.871   4.986   5.720  0.00  0.00     0.214 C 
BRANCH  22  23
ATOM     23  C   UNL d   1       2.384   6.141   6.550  0.00  0.00    -0.031 A 
ATOM     24  C   UNL d   1       1.572   5.939   7.675  0.00  0.00     0.009 A 
ATOM     25  C   UNL d   1       1.210   7.021   8.483  0.00  0.00     0.004 A 
ATOM     26  C   UNL d   1       1.645   8.307   8.162  0.00  0.00     0.042 A 
ATOM     27  C   UNL d   1       2.431   8.504   7.034  0.00  0.00     0.117 A 
ATOM     28  F   UNL d   1       2.857   9.736   6.727  0.00  0.00    -0.206 F 
ATOM     29  C   UNL d   1       2.798   7.439   6.226  0.00  0.00     0.051 A 
ENDBRANCH  22  23
ENDBRANCH  21  22
ENDBRANCH   4  21
TORSDOF 6
