REMARK  11 active torsions:
REMARK  status: ('A' for Active; 'I' for Inactive)
REMARK    1  A    between atoms: O_2  and  C_3 
REMARK    2  A    between atoms: C_6  and  N_7 
REMARK    3  A    between atoms: N_7  and  C_8 
REMARK    4  A    between atoms: C_10  and  C_11 
REMARK       I    between atoms: C_11  and  N_13 
REMARK    5  A    between atoms: N_13  and  C_14 
REMARK    6  A    between atoms: C_14  and  C_15 
REMARK    7  A    between atoms: N_16  and  C_15 
REMARK    8  A    between atoms: N_16  and  C_18 
REMARK    9  A    between atoms: C_18  and  C_19 
REMARK   10  A    between atoms: C_19  and  C_20 
REMARK   11  A    between atoms: C_33  and  O_34 
ROOT
ATOM      1  C   UNL d   1      -3.062  -6.439   7.891  0.00  0.00     0.115 C 
ATOM      2  C   UNL d   1      -3.560  -5.249   7.495  0.00  0.00     0.111 C 
ATOM      3  C   UNL d   1      -2.623  -4.183   7.516  0.00  0.00     0.035 C 
ATOM      4  C   UNL d   1      -2.282  -3.638   8.724  0.00  0.00     0.005 C 
ATOM      5  C   UNL d   1      -1.967  -2.213   8.788  0.00  0.00     0.014 C 
ATOM      6  C   UNL d   1      -1.563  -1.559   9.928  0.00  0.00     0.001 C 
ATOM      7  C   UNL d   1      -1.592  -2.337  11.055  0.00  0.00     0.002 C 
ATOM      8  C   UNL d   1      -1.858  -3.784  10.940  0.00  0.00     0.032 C 
ATOM      9  C   UNL d   1      -2.187  -4.607   9.698  0.00  0.00     0.069 C 
ATOM     10  N   UNL d   1      -2.502  -6.113   9.157  0.00  0.00    -0.234 NA
ENDROOT
BRANCH   3  11
ATOM     11  C   UNL d   1      -1.417  -4.177   6.645  0.00  0.00     0.249 C 
ATOM     12  O   UNL d   1      -0.496  -3.324   6.766  0.00  0.00    -0.268 OA
ATOM     13  N   UNL d   1      -1.297  -5.119   5.688  0.00  0.00    -0.355 N 
ATOM     14  H   UNL d   1      -1.925  -5.933   5.705  0.00  0.00     0.162 HD
BRANCH  13  15
ATOM     15  C   UNL d   1      -0.214  -4.945   4.749  0.00  0.00     0.150 C 
BRANCH  15  16
ATOM     16  C   UNL d   1      -0.216  -6.029   3.723  0.00  0.00     0.254 C 
BRANCH  16  17
ATOM     17  N   UNL d   1       0.494  -5.995   2.441  0.00  0.00    -0.073 N 
ATOM     18  C   UNL d   1       1.815  -5.418   2.767  0.00  0.00     0.269 C 
ATOM     19  H   UNL d   1       0.605  -6.961   2.094  0.00  0.00     0.279 HD
BRANCH  17  20
ATOM     20  C   UNL d   1      -0.270  -5.232   1.373  0.00  0.00     0.239 C 
BRANCH  20  21
ATOM     21  C   UNL d   1      -1.610  -5.853   0.881  0.00  0.00     0.066 C 
BRANCH  21  22
ATOM     22  C   UNL d   1      -2.263  -4.985  -0.165  0.00  0.00    -0.057 A 
ATOM     23  C   UNL d   1      -1.991  -3.608  -0.198  0.00  0.00     0.007 A 
ATOM     24  C   UNL d   1      -2.631  -2.768  -1.088  0.00  0.00     0.001 A 
ATOM     25  C   UNL d   1      -3.513  -3.305  -2.010  0.00  0.00     0.000 A 
ATOM     26  C   UNL d   1      -3.830  -4.664  -1.973  0.00  0.00     0.001 A 
ATOM     27  C   UNL d   1      -3.229  -5.504  -1.034  0.00  0.00     0.007 A 
ENDBRANCH  21  22
ENDBRANCH  20  21
ENDBRANCH  17  20
ENDBRANCH  16  17
ENDBRANCH  15  16
ENDBRANCH  13  15
ENDBRANCH   3  11
BRANCH   1  28
ATOM     28  N   UNL d   1      -3.929  -7.675   7.431  0.00  0.00    -0.342 N 
ATOM     29  H   UNL d   1      -4.788  -7.625   7.976  0.00  0.00     0.167 HD
BRANCH  28  30
ATOM     30  C   UNL d   1      -4.207  -8.515   6.211  0.00  0.00     0.067 A 
ATOM     31  C   UNL d   1      -5.185  -9.545   6.144  0.00  0.00     0.035 A 
ATOM     32  C   UNL d   1      -5.249 -10.575   5.086  0.00  0.00     0.039 A 
ATOM     33  C   UNL d   1      -4.410 -10.593   3.985  0.00  0.00     0.070 A 
ATOM     34  C   UNL d   1      -3.497  -9.595   4.003  0.00  0.00     0.075 A 
ATOM     35  C   UNL d   1      -3.418  -8.602   5.073  0.00  0.00     0.097 A 
BRANCH  33  36
ATOM     36  O   UNL d   1      -4.548 -11.484   2.960  0.00  0.00    -0.356 OA
ATOM     37  C   UNL d   1      -3.384 -11.807   2.172  0.00  0.00     0.210 C 
ENDBRANCH  33  36
BRANCH  35  38
ATOM     38  O   UNL d   1      -2.512  -7.620   4.934  0.00  0.00    -0.354 OA
ATOM     39  C   UNL d   1      -2.428  -7.386   3.565  0.00  0.00     0.210 C 
ENDBRANCH  35  38
ENDBRANCH  28  30
ENDBRANCH   1  28
TORSDOF 11
