REMARK  5 active torsions:
REMARK  status: ('A' for Active; 'I' for Inactive)
REMARK    1  A    between atoms: C_2  and  C_4 
REMARK    2  A    between atoms: C_2  and  C_11 
REMARK    3  A    between atoms: C_2  and  O_3 
REMARK    4  A    between atoms: C_4  and  N_5 
REMARK       I    between atoms: N_5  and  C_6 
REMARK    5  A    between atoms: C_6  and  C_8 
ROOT
ATOM      1  C   UNL d   1       3.031  -1.121  -0.850  0.00  0.00     0.053 C 
ATOM      2  C   UNL d   1       2.555   0.022   0.056  0.00  0.00     0.097 C 
ENDROOT
BRANCH   2   3
ATOM      3  C   UNL d   1       3.025   1.377  -0.537  0.00  0.00     0.165 C 
BRANCH   3   4
ATOM      4  N   UNL d   1       2.594   1.631  -1.898  0.00  0.00    -0.358 N 
ATOM      5  C   UNL d   1       2.957   2.799  -2.513  0.00  0.00     0.221 C 
ATOM      6  O   UNL d   1       3.662   3.655  -1.987  0.00  0.00    -0.273 OA
ATOM      7  H   UNL d   1       1.929   1.000  -2.332  0.00  0.00     0.162 HD
BRANCH   5   8
ATOM      8  C   UNL d   1       2.448   2.966  -3.897  0.00  0.00     0.078 A 
ATOM      9  C   UNL d   1       3.007   4.079  -4.761  0.00  0.00     0.015 A 
ATOM     10  C   UNL d   1       3.349   2.651  -5.072  0.00  0.00     0.015 A 
ENDBRANCH   5   8
ENDBRANCH   3   4
ENDBRANCH   2   3
BRANCH   2  11
ATOM     11  C   UNL d   1       3.003  -0.165   1.509  0.00  0.00    -0.023 A 
ATOM     12  C   UNL d   1       3.091  -1.445   2.087  0.00  0.00     0.010 A 
ATOM     13  C   UNL d   1       3.372  -1.608   3.444  0.00  0.00     0.001 A 
ATOM     14  C   UNL d   1       3.654  -0.500   4.235  0.00  0.00     0.000 A 
ATOM     15  C   UNL d   1       3.612   0.772   3.681  0.00  0.00     0.001 A 
ATOM     16  C   UNL d   1       3.280   0.937   2.338  0.00  0.00     0.010 A 
ENDBRANCH   2  11
BRANCH   2  17
ATOM     17  O   UNL d   1       1.117   0.010   0.040  0.00  0.00    -0.384 OA
ATOM     18  H   UNL d   1       0.820   0.679   0.683  0.00  0.00     0.211 HD
ENDBRANCH   2  17
TORSDOF 5
