@<TRIPOS>MOLECULE
*****
 40 41 0 0 0
SMALL
GASTEIGER

@<TRIPOS>ATOM
      1 C           2.6588    1.6355   -4.9449 C.3     1  UNL1       -0.0397
      2 C           1.8122    1.5386   -3.7132 C.ar    1  UNL1       -0.0497
      3 C           1.4645    0.3092   -3.1522 C.ar    1  UNL1       -0.0588
      4 C           0.6589    0.2638   -2.0140 C.ar    1  UNL1       -0.0608
      5 C           0.1977    1.4522   -1.4299 C.ar    1  UNL1       -0.0496
      6 C           0.5485    2.6980   -1.9816 C.ar    1  UNL1        0.0384
      7 C           0.0767    3.9723   -1.3576 C.2     1  UNL1        0.2602
      8 O          -0.6179    3.9427   -0.3379 O.2     1  UNL1       -0.2687
      9 N           0.4617    5.1790   -1.9490 N.am    1  UNL1       -0.2292
     10 N           0.0234    6.3516   -1.3307 N.am    1  UNL1       -0.2179
     11 C           0.3169    7.6079   -1.7811 C.2     1  UNL1        0.3164
     12 O           1.0276    7.8048   -2.7724 O.2     1  UNL1       -0.2513
     13 N          -0.2619    8.6732   -1.1377 N.am    1  UNL1       -0.2917
     14 C          -1.1130    8.7694    0.0688 C.3     1  UNL1        0.0471
     15 C          -1.9743    7.5244    0.2911 C.3     1  UNL1       -0.0424
     16 C          -2.0356   10.0021    0.0397 C.ar    1  UNL1       -0.0246
     17 C          -1.5494   11.3127    0.0770 C.ar    1  UNL1       -0.0387
     18 C          -2.4655   12.3660    0.0993 C.ar    1  UNL1        0.0279
     19 N          -3.8096   12.2186    0.1151 N.ar    1  UNL1       -0.2632
     20 C          -4.2681   10.9602    0.0942 C.ar    1  UNL1        0.0279
     21 C          -3.4388    9.8569    0.0435 C.ar    1  UNL1       -0.0387
     22 C           1.3540    2.7210   -3.1220 C.ar    1  UNL1       -0.0467
     23 H           2.9627    0.6486   -5.3022 H       1  UNL1        0.0278
     24 H           3.5615    2.2174   -4.7313 H       1  UNL1        0.0278
     25 H           2.0939    2.1312   -5.7415 H       1  UNL1        0.0278
     26 H           1.8162   -0.6175   -3.6010 H       1  UNL1        0.0620
     27 H           0.3920   -0.7016   -1.5872 H       1  UNL1        0.0618
     28 H          -0.4346    1.3897   -0.5449 H       1  UNL1        0.0625
     29 H           1.0423    5.2991   -2.7706 H       1  UNL1        0.1732
     30 H          -0.2421    6.1688   -0.3809 H       1  UNL1        0.1744
     31 H           0.0523    9.5535   -1.5299 H       1  UNL1        0.1509
     32 H          -0.4297    8.8818    0.9222 H       1  UNL1        0.0546
     33 H          -2.4782    7.2589   -0.6494 H       1  UNL1        0.0251
     34 H          -2.7151    7.6514    1.0821 H       1  UNL1        0.0251
     35 H          -1.4116    6.6806    0.6701 H       1  UNL1        0.0251
     36 H          -0.4880   11.5359    0.1020 H       1  UNL1        0.0636
     37 H          -2.1350   13.4009    0.1110 H       1  UNL1        0.0829
     38 H          -5.3463   10.8303    0.1236 H       1  UNL1        0.0829
     39 H          -3.9331    8.8922    0.0292 H       1  UNL1        0.0636
     40 H           1.6474    3.6538   -3.5860 H       1  UNL1        0.0628
@<TRIPOS>BOND
     1     1     2    1
     2     2     3   ar
     3     3     4   ar
     4     4     5   ar
     5     5     6   ar
     6     6     7    1
     7     7     8    2
     8     7     9   am
     9     9    10    1
    10    10    11   am
    11    11    12    2
    12    11    13   am
    13    14    16    1
    14    16    17   ar
    15    17    18   ar
    16    18    19   ar
    17    19    20   ar
    18    20    21   ar
    19    16    21   ar
    20     6    22   ar
    21     2    22   ar
    22    14    15    1
    23    14    13    1
    24     1    23    1
    25     1    24    1
    26     1    25    1
    27     3    26    1
    28     4    27    1
    29     5    28    1
    30     9    29    1
    31    10    30    1
    32    13    31    1
    33    14    32    1
    34    15    33    1
    35    15    34    1
    36    15    35    1
    37    17    36    1
    38    18    37    1
    39    20    38    1
    40    21    39    1
    41    22    40    1
