@<TRIPOS>MOLECULE
*****
 45 46 0 0 0
SMALL
GASTEIGER

@<TRIPOS>ATOM
      1 O           0.9977    0.0177    0.0648 O.2     1  UNL1       -0.2685
      2 C           2.2166    0.0434    0.0516 C.2     1  UNL1        0.2636
      3 N           2.9820   -0.4017    1.1218 N.am    1  UNL1       -0.2310
      4 N           2.3630   -0.8348    2.3373 N.am    1  UNL1       -0.2456
      5 C           3.1750   -1.2204    3.3949 C.2     1  UNL1        0.1468
      6 S           4.8578   -1.1902    3.2822 S.2     1  UNL1       -0.0174
      7 N           2.5186   -1.6226    4.5419 N.am    1  UNL1       -0.3254
      8 C           3.2559   -2.0859    5.7428 C.3     1  UNL1        0.0119
      9 C           2.3244   -2.4018    6.8669 C.3     1  UNL1       -0.0246
     10 C           2.8753   -3.0393    8.1468 C.3     1  UNL1        0.0005
     11 N           1.8453   -3.4453    9.1378 N.3     1  UNL1       -0.2979
     12 C           1.3267   -4.8122    8.9108 C.3     1  UNL1        0.0224
     13 C           0.4500   -4.9192    7.6597 C.3     1  UNL1        0.0604
     14 O          -0.6626   -4.0064    7.7073 O.3     1  UNL1       -0.3772
     15 C          -0.2952   -2.6478    7.9902 C.3     1  UNL1        0.0604
     16 C           0.6808   -2.5291    9.1907 C.3     1  UNL1        0.0224
     17 C           2.9832    0.5411   -1.1484 C.ar    1  UNL1        0.0795
     18 C           4.0429   -0.2024   -1.6965 C.ar    1  UNL1       -0.0460
     19 C           4.6870    0.2295   -2.8688 C.ar    1  UNL1       -0.0608
     20 C           4.2894    1.4088   -3.4989 C.ar    1  UNL1       -0.0583
     21 C           3.2444    2.1604   -2.9615 C.ar    1  UNL1       -0.0194
     22 C           2.5955    1.7254   -1.7960 C.ar    1  UNL1        0.1290
     23 O           1.5927    2.4900   -1.2675 O.3     1  UNL1       -0.5060
     24 H           3.9947   -0.3261    1.1520 H       1  UNL1        0.1731
     25 H           1.3435   -0.8124    2.3462 H       1  UNL1        0.1718
     26 H           1.5024   -1.6760    4.5423 H       1  UNL1        0.1478
     27 H           3.9260   -1.2886    6.0667 H       1  UNL1        0.0462
     28 H           3.8151   -2.9855    5.4723 H       1  UNL1        0.0462
     29 H           1.6133   -3.0715    6.3990 H       1  UNL1        0.0293
     30 H           1.8455   -1.4550    7.1356 H       1  UNL1        0.0293
     31 H           3.5226   -2.3025    8.6392 H       1  UNL1        0.0427
     32 H           3.5260   -3.8929    7.9183 H       1  UNL1        0.0427
     33 H           0.7139   -5.1006    9.7767 H       1  UNL1        0.0449
     34 H           2.1516   -5.5339    8.8761 H       1  UNL1        0.0449
     35 H           0.0394   -5.9275    7.5657 H       1  UNL1        0.0572
     36 H           1.0491   -4.7972    6.7530 H       1  UNL1        0.0572
     37 H          -1.1890   -2.0494    8.1861 H       1  UNL1        0.0572
     38 H           0.0475   -2.2037    7.0566 H       1  UNL1        0.0572
     39 H           0.1065   -2.7733   10.0944 H       1  UNL1        0.0449
     40 H           1.0274   -1.4983    9.3395 H       1  UNL1        0.0449
     41 H           4.3566   -1.1415   -1.2481 H       1  UNL1        0.0626
     42 H           5.4919   -0.3612   -3.3042 H       1  UNL1        0.0618
     43 H           4.7910    1.7391   -4.4080 H       1  UNL1        0.0619
     44 H           2.9511    3.0798   -3.4625 H       1  UNL1        0.0654
     45 H           1.3647    3.2110   -1.8747 H       1  UNL1        0.2922
@<TRIPOS>BOND
     1     1     2    2
     2     2     3   am
     3     3     4    1
     4     4     5    1
     5     5     6    2
     6     5     7    1
     7     7     8    1
     8     8     9    1
     9     9    10    1
    10    10    11    1
    11    11    12    1
    12    12    13    1
    13    13    14    1
    14    14    15    1
    15    15    16    1
    16    11    16    1
    17     2    17    1
    18    17    18   ar
    19    18    19   ar
    20    19    20   ar
    21    20    21   ar
    22    21    22   ar
    23    17    22   ar
    24    22    23    1
    25     3    24    1
    26     4    25    1
    27     7    26    1
    28     8    27    1
    29     8    28    1
    30     9    29    1
    31     9    30    1
    32    10    31    1
    33    10    32    1
    34    12    33    1
    35    12    34    1
    36    13    35    1
    37    13    36    1
    38    15    37    1
    39    15    38    1
    40    16    39    1
    41    16    40    1
    42    18    41    1
    43    19    42    1
    44    20    43    1
    45    21    44    1
    46    23    45    1
