REMARK  6 active torsions:
REMARK  status: ('A' for Active; 'I' for Inactive)
REMARK    1  A    between atoms: N_1  and  S_2 
REMARK    2  A    between atoms: S_2  and  C_5 
REMARK    3  A    between atoms: C_5  and  C_6 
REMARK    4  A    between atoms: C_10  and  N_11 
REMARK       I    between atoms: N_11  and  C_12 
REMARK    5  A    between atoms: C_12  and  C_14 
REMARK    6  A    between atoms: C_16  and  N_17 
ROOT
ATOM      1  N   UNL d   1       7.688   3.993  -0.475  0.00  0.00    -0.323 N 
ATOM      2  C   UNL d   1       7.149   5.245  -0.648  0.00  0.00     0.259 C 
ATOM      3  O   UNL d   1       5.935   5.466  -0.680  0.00  0.00    -0.267 OA
ATOM      4  H   UNL d   1       8.679   3.925  -0.298  0.00  0.00     0.169 HD
ENDROOT
BRANCH   1   5
ATOM      5  C   UNL d   1       6.943   2.777  -0.462  0.00  0.00     0.035 C 
ATOM      6  C   UNL d   1       7.672   1.593  -0.341  0.00  0.00     0.029 C 
ATOM      7  C   UNL d   1       7.032   0.359  -0.398  0.00  0.00     0.003 C 
ATOM      8  C   UNL d   1       5.659   0.290  -0.604  0.00  0.00     0.008 C 
ATOM      9  C   UNL d   1       4.871   1.445  -0.598  0.00  0.00    -0.041 C 
ATOM     10  C   UNL d   1       5.540   2.686  -0.572  0.00  0.00     0.037 C 
BRANCH   9  11
ATOM     11  C   UNL d   1       3.352   1.425  -0.619  0.00  0.00     0.195 C 
BRANCH  11  12
ATOM     12  S   UNL d   1       2.733  -0.123   0.104  0.00  0.00     0.211 S 
ATOM     13  O   UNL d   1       3.089  -0.202   1.504  0.00  0.00    -0.211 OA
ATOM     14  O   UNL d   1       2.976  -1.227  -0.800  0.00  0.00    -0.211 OA
BRANCH  12  15
ATOM     15  N   UNL d   1       1.064   0.027   0.065  0.00  0.00    -0.229 NA
ATOM     16  H   UNL d   1       0.692  -0.801   0.545  0.00  0.00     0.136 HD
ATOM     17  H   UNL d   1       0.720   0.030  -0.896  0.00  0.00     0.136 HD
ENDBRANCH  12  15
ENDBRANCH  11  12
ENDBRANCH   9  11
ENDBRANCH   1   5
BRANCH   2  18
ATOM     18  C   UNL d   1       8.027   6.466  -0.615  0.00  0.00     0.070 C 
ATOM     19  C   UNL d   1       7.318   7.438   0.262  0.00  0.00     0.056 C 
ATOM     20  C   UNL d   1       7.676   8.785   0.398  0.00  0.00     0.106 C 
ATOM     21  C   UNL d   1       8.829   9.206  -0.182  0.00  0.00     0.075 C 
ATOM     22  C   UNL d   1       9.534   8.340  -0.983  0.00  0.00     0.105 C 
ATOM     23  C   UNL d   1       9.212   6.910  -1.304  0.00  0.00     0.118 C 
ATOM     24  O   UNL d   1      10.601   9.107  -1.534  0.00  0.00    -0.346 OA
ATOM     25  O   UNL d   1      10.161   6.157  -2.367  0.00  0.00    -0.345 OA
ATOM     26  C   UNL d   1      11.473   7.047  -3.071  0.00  0.00     0.202 C 
ATOM     27  C   UNL d   1      11.015   8.105  -2.267  0.00  0.00     0.202 C 
BRANCH  20  28
ATOM     28  N   UNL d   1       6.858   9.832   1.032  0.00  0.00    -0.116 N 
ATOM     29  O   UNL d   1       5.804   9.505   1.585  0.00  0.00    -0.532 OA
ATOM     30  O   UNL d   1       7.271  11.002   0.945  0.00  0.00    -0.532 OA
ENDBRANCH  20  28
ENDBRANCH   2  18
TORSDOF 6
