REMARK  10 active torsions:
REMARK  status: ('A' for Active; 'I' for Inactive)
REMARK    1  A    between atoms: O_2  and  C_3 
REMARK    2  A    between atoms: C_6  and  C_7 
REMARK    3  A    between atoms: C_7  and  S_8 
REMARK    4  A    between atoms: S_8  and  C_9 
REMARK    5  A    between atoms: N_17  and  C_18 
REMARK    6  A    between atoms: C_18  and  C_19 
REMARK       I    between atoms: C_19  and  N_21 
REMARK    7  A    between atoms: N_21  and  C_22 
REMARK    8  A    between atoms: C_22  and  C_23 
REMARK    9  A    between atoms: C_26  and  O_27 
REMARK   10  A    between atoms: C_29  and  O_30 
ROOT
ATOM      1  C   UNL d   1       5.671   4.048   6.460  0.00  0.00     0.082 C 
ATOM      2  N   UNL d   1       6.117   3.568   7.617  0.00  0.00    -0.360 N 
ATOM      3  C   UNL d   1       6.290   4.261   8.742  0.00  0.00     0.091 C 
ATOM      4  C   UNL d   1       6.184   5.642   8.754  0.00  0.00     0.047 C 
ATOM      5  C   UNL d   1       5.869   6.232   7.528  0.00  0.00     0.049 A 
ATOM      6  C   UNL d   1       5.582   5.438   6.398  0.00  0.00     0.026 A 
ATOM      7  C   UNL d   1       5.181   6.311   5.370  0.00  0.00     0.034 A 
ATOM      8  C   UNL d   1       5.314   7.580   5.841  0.00  0.00     0.093 A 
ATOM      9  N   UNL d   1       5.709   7.563   7.149  0.00  0.00    -0.347 N 
ATOM     10  H   UNL d   1       6.250   2.558   7.630  0.00  0.00     0.166 HD
ENDROOT
BRANCH   9  11
ATOM     11  C   UNL d   1       5.935   8.744   8.001  0.00  0.00     0.231 C 
BRANCH  11  12
ATOM     12  C   UNL d   1       5.737  10.089   7.308  0.00  0.00     0.236 C 
ATOM     13  O   UNL d   1       5.380  10.251   6.136  0.00  0.00    -0.272 OA
ATOM     14  N   UNL d   1       5.968  11.213   8.043  0.00  0.00    -0.355 N 
ATOM     15  H   UNL d   1       6.319  11.181   8.989  0.00  0.00     0.162 HD
BRANCH  14  16
ATOM     16  C   UNL d   1       5.758  12.477   7.369  0.00  0.00     0.161 C 
BRANCH  16  17
ATOM     17  C   UNL d   1       5.933  13.669   8.248  0.00  0.00    -0.038 A 
ATOM     18  C   UNL d   1       5.677  13.616   9.618  0.00  0.00     0.012 A 
ATOM     19  C   UNL d   1       5.642  14.783  10.364  0.00  0.00     0.040 A 
ATOM     20  C   UNL d   1       5.925  16.019   9.773  0.00  0.00     0.101 A 
ATOM     21  C   UNL d   1       6.184  16.085   8.392  0.00  0.00     0.102 A 
ATOM     22  C   UNL d   1       6.195  14.906   7.645  0.00  0.00     0.048 A 
BRANCH  20  23
ATOM     23  O   UNL d   1       5.905  17.052  10.675  0.00  0.00    -0.353 OA
ATOM     24  C   UNL d   1       6.320  18.328  10.205  0.00  0.00     0.210 C 
ENDBRANCH  20  23
BRANCH  21  25
ATOM     25  O   UNL d   1       6.372  17.314   7.829  0.00  0.00    -0.353 OA
ATOM     26  C   UNL d   1       6.582  17.407   6.432  0.00  0.00     0.210 C 
ENDBRANCH  21  25
ENDBRANCH  16  17
ENDBRANCH  14  16
ENDBRANCH  11  12
ENDBRANCH   9  11
BRANCH   1  27
ATOM     27  S   UNL d   1       4.773   2.962   5.438  0.00  0.00    -0.107 SA
BRANCH  27  28
ATOM     28  C   UNL d   1       5.510   3.044   3.755  0.00  0.00     0.119 C 
BRANCH  28  29
ATOM     29  C   UNL d   1       4.697   2.257   2.731  0.00  0.00    -0.048 A 
ATOM     30  C   UNL d   1       5.151   2.137   1.408  0.00  0.00     0.011 A 
ATOM     31  C   UNL d   1       4.362   1.502   0.431  0.00  0.00     0.037 A 
ATOM     32  C   UNL d   1       3.139   0.915   0.768  0.00  0.00     0.068 A 
ATOM     33  C   UNL d   1       2.695   1.003   2.077  0.00  0.00     0.037 A 
ATOM     34  C   UNL d   1       3.459   1.665   3.035  0.00  0.00     0.011 A 
BRANCH  32  35
ATOM     35  O   UNL d   1       2.503   0.204  -0.211  0.00  0.00    -0.356 OA
ATOM     36  C   UNL d   1       1.084   0.104  -0.097  0.00  0.00     0.210 C 
ENDBRANCH  32  35
ENDBRANCH  28  29
ENDBRANCH  27  28
ENDBRANCH   1  27
TORSDOF 10
