@<TRIPOS>MOLECULE
*****
 41 42 0 0 0
SMALL
GASTEIGER

@<TRIPOS>ATOM
      1 C           1.1110   -0.0600   -0.0781 C.3     1  UNL1        0.0817
      2 O           2.5479   -0.0768   -0.0702 O.3     1  UNL1       -0.4668
      3 C           3.0988   -1.1974    0.4804 C.2     1  UNL1        0.3242
      4 O           2.4497   -2.1363    0.9422 O.2     1  UNL1       -0.2491
      5 C           4.6293   -1.1561    0.4623 C.3     1  UNL1        0.1093
      6 N           5.2092   -2.3711    1.0574 N.am    1  UNL1       -0.3008
      7 C           6.5706   -2.5323    1.2142 C.2     1  UNL1        0.2445
      8 O           7.3828   -1.6705    0.8659 O.2     1  UNL1       -0.2702
      9 C           7.0816   -3.8137    1.7943 C.ar    1  UNL1        0.0368
     10 C           8.2634   -3.8441    2.5565 C.ar    1  UNL1       -0.0479
     11 C           8.8820   -5.0716    2.9230 C.ar    1  UNL1       -0.0397
     12 C           8.2912   -6.2980    2.5872 C.ar    1  UNL1        0.0348
     13 N           8.8544   -7.5534    3.0288 N.am    1  UNL1       -0.2692
     14 C           8.2464   -8.7851    2.8042 C.2     1  UNL1        0.3081
     15 O           7.1888   -8.9181    2.1899 O.2     1  UNL1       -0.2522
     16 N           8.8780   -9.9080    3.3304 N.am    1  UNL1       -0.2692
     17 C           8.3402  -11.2108    3.0540 C.ar    1  UNL1        0.0362
     18 C           8.2605  -12.2074    4.0321 C.ar    1  UNL1       -0.0390
     19 C           7.7634  -13.4856    3.7024 C.ar    1  UNL1       -0.0402
     20 C           7.3095  -13.7672    2.4082 C.ar    1  UNL1        0.0594
     21 CL          6.6369  -15.3279    2.0925 Cl      1  UNL1       -0.0820
     22 C           7.3931  -12.7820    1.4275 C.ar    1  UNL1        0.0610
     23 CL          6.9408  -13.0608   -0.2174 Cl      1  UNL1       -0.0820
     24 C           7.9002  -11.5212    1.7559 C.ar    1  UNL1       -0.0207
     25 C           7.1152   -6.2288    1.8219 C.ar    1  UNL1       -0.0397
     26 C           6.5061   -5.0236    1.4407 C.ar    1  UNL1       -0.0479
     27 H           0.7712    0.8747   -0.5374 H       1  UNL1        0.0661
     28 H           0.7169   -0.0977    0.9431 H       1  UNL1        0.0661
     29 H           0.7165   -0.8915   -0.6718 H       1  UNL1        0.0661
     30 H           4.9810   -0.2916    1.0346 H       1  UNL1        0.0577
     31 H           4.9830   -1.0826   -0.5717 H       1  UNL1        0.0577
     32 H           4.5547   -3.0622    1.4128 H       1  UNL1        0.1496
     33 H           8.7173   -2.9001    2.8579 H       1  UNL1        0.0626
     34 H           9.8352   -5.0247    3.4458 H       1  UNL1        0.0636
     35 H           9.6954   -7.5119    3.5889 H       1  UNL1        0.1564
     36 H           9.5208   -9.8126    4.1030 H       1  UNL1        0.1564
     37 H           8.5051  -12.0040    5.0716 H       1  UNL1        0.0636
     38 H           7.7244  -14.2664    4.4606 H       1  UNL1        0.0633
     39 H           7.9637  -10.7718    0.9703 H       1  UNL1        0.0651
     40 H           6.6208   -7.1144    1.4456 H       1  UNL1        0.0636
     41 H           5.6155   -5.0767    0.8225 H       1  UNL1        0.0626
@<TRIPOS>BOND
     1     1     2    1
     2     2     3    1
     3     3     4    2
     4     3     5    1
     5     5     6    1
     6     6     7   am
     7     7     8    2
     8     7     9    1
     9     9    10   ar
    10    10    11   ar
    11    11    12   ar
    12    12    13    1
    13    13    14   am
    14    14    15    2
    15    14    16   am
    16    16    17    1
    17    17    18   ar
    18    18    19   ar
    19    19    20   ar
    20    20    21    1
    21    20    22   ar
    22    22    23    1
    23    22    24   ar
    24    17    24   ar
    25    12    25   ar
    26    25    26   ar
    27     9    26   ar
    28     1    27    1
    29     1    28    1
    30     1    29    1
    31     5    30    1
    32     5    31    1
    33     6    32    1
    34    10    33    1
    35    11    34    1
    36    13    35    1
    37    16    36    1
    38    18    37    1
    39    19    38    1
    40    24    39    1
    41    25    40    1
    42    26    41    1
