REMARK  4 active torsions:
REMARK  status: ('A' for Active; 'I' for Inactive)
REMARK    1  A    between atoms: C_2  and  C_13 
REMARK    2  A    between atoms: C_2  and  N_3 
REMARK       I    between atoms: N_3  and  C_4 
REMARK    3  A    between atoms: C_4  and  C_6 
REMARK       I    between atoms: C_13  and  N_15 
REMARK    4  A    between atoms: N_15  and  C_16 
ROOT
ATOM      1  C   UNL d   1       3.004  -1.232  -0.658  0.00  0.00     0.042 C 
ATOM      2  C   UNL d   1       2.502   0.080  -0.059  0.00  0.00     0.173 C 
ENDROOT
BRANCH   2   3
ATOM      3  C   UNL d   1       2.955   1.281  -0.931  0.00  0.00     0.244 C 
ATOM      4  O   UNL d   1       2.120   1.981  -1.511  0.00  0.00    -0.271 OA
ATOM      5  N   UNL d   1       4.337   1.474  -1.067  0.00  0.00    -0.324 N 
ATOM      6  H   UNL d   1       4.979   0.724  -0.843  0.00  0.00     0.169 HD
BRANCH   5   7
ATOM      7  C   UNL d   1       4.827   2.555  -1.844  0.00  0.00     0.052 A 
ATOM      8  C   UNL d   1       4.273   3.824  -1.684  0.00  0.00     0.032 A 
ATOM      9  C   UNL d   1       4.664   4.872  -2.507  0.00  0.00     0.021 A 
ATOM     10  C   UNL d   1       5.624   4.620  -3.470  0.00  0.00     0.116 A 
ATOM     11  N   UNL d   1       6.232   3.421  -3.626  0.00  0.00    -0.271 NA
ATOM     12  C   UNL d   1       5.828   2.416  -2.802  0.00  0.00     0.145 A 
ENDBRANCH   5   7
ENDBRANCH   2   3
BRANCH   2  13
ATOM     13  N   UNL d   1       1.028   0.029   0.053  0.00  0.00    -0.344 N 
ATOM     14  C   UNL d   1       0.343   0.857   0.926  0.00  0.00     0.252 C 
ATOM     15  O   UNL d   1       0.906   1.605   1.724  0.00  0.00    -0.268 OA
ATOM     16  H   UNL d   1       0.514  -0.324  -0.746  0.00  0.00     0.163 HD
BRANCH  14  17
ATOM     17  C   UNL d   1      -1.153   0.795   0.896  0.00  0.00     0.032 A 
ATOM     18  C   UNL d   1      -1.804  -0.436   0.741  0.00  0.00     0.018 A 
ATOM     19  C   UNL d   1      -3.201  -0.514   0.814  0.00  0.00     0.025 A 
ATOM     20  C   UNL d   1      -3.955   0.637   1.036  0.00  0.00     0.034 A 
ATOM     21 CL   UNL d   1      -5.671   0.528   1.121  0.00  0.00    -0.084 Cl
ATOM     22  C   UNL d   1      -3.322   1.869   1.199  0.00  0.00     0.025 A 
ATOM     23  C   UNL d   1      -1.921   1.947   1.135  0.00  0.00     0.018 A 
ENDBRANCH  14  17
ENDBRANCH   2  13
TORSDOF 4
