@<TRIPOS>MOLECULE
*****
 34 35 0 0 0
SMALL
GASTEIGER

@<TRIPOS>ATOM
      1 C           0.9884    0.0507    0.0279 C.3     1  UNL1        0.0125
      2 C           2.4899   -0.0084    0.1016 C.2     1  UNL1        0.2141
      3 O           3.0304   -0.7227    0.9450 O.2     1  UNL1       -0.2758
      4 N           3.1711    0.7956   -0.8020 N.am    1  UNL1       -0.2857
      5 C           4.5835    0.8009   -0.8803 C.ar    1  UNL1        0.0341
      6 C           5.2934    1.9745   -1.1459 C.ar    1  UNL1       -0.0404
      7 C           6.6841    1.9303   -1.3062 C.ar    1  UNL1       -0.0593
      8 C           7.3651    0.7221   -1.1631 C.ar    1  UNL1       -0.0495
      9 C           6.6528   -0.4622   -0.9336 C.ar    1  UNL1        0.0388
     10 C           7.3873   -1.7489   -0.9856 C.2     1  UNL1        0.2483
     11 O           8.5697   -1.7188   -1.3203 O.2     1  UNL1       -0.2699
     12 N           6.6920   -2.9322   -0.7551 N.am    1  UNL1       -0.2804
     13 C           7.3469   -4.1788   -0.6266 C.ar    1  UNL1        0.0511
     14 C           6.7586   -5.3085   -1.2201 C.ar    1  UNL1       -0.0392
     15 C           7.3223   -6.5750   -1.0334 C.ar    1  UNL1       -0.0599
     16 C           8.5008   -6.7116   -0.3039 C.ar    1  UNL1       -0.0604
     17 C           9.0859   -5.5948    0.2915 C.ar    1  UNL1       -0.0425
     18 C           8.5201   -4.3246    0.1381 C.ar    1  UNL1        0.0729
     19 C           9.1255   -3.2303    0.8408 C.1     1  UNL1        0.1010
     20 N           9.6081   -2.3346    1.4174 N.1     1  UNL1       -0.1908
     21 C           5.2730   -0.4064   -0.7663 C.ar    1  UNL1       -0.0284
     22 H           0.5857   -0.5884    0.8237 H       1  UNL1        0.0323
     23 H           0.6289   -0.3362   -0.9280 H       1  UNL1        0.0323
     24 H           0.6280    1.0671    0.1976 H       1  UNL1        0.0323
     25 H           2.6666    1.4641   -1.3717 H       1  UNL1        0.1548
     26 H           4.7993    2.9418   -1.1585 H       1  UNL1        0.0636
     27 H           7.2458    2.8282   -1.5551 H       1  UNL1        0.0618
     28 H           8.4523    0.7012   -1.2477 H       1  UNL1        0.0625
     29 H           5.6816   -2.9535   -0.7518 H       1  UNL1        0.1552
     30 H           5.9030   -5.2156   -1.8873 H       1  UNL1        0.0636
     31 H           6.8490   -7.4592   -1.4562 H       1  UNL1        0.0618
     32 H           8.9702   -7.6865   -0.1992 H       1  UNL1        0.0618
     33 H           9.9796   -5.7150    0.8991 H       1  UNL1        0.0631
     34 H           4.7015   -1.3074   -0.5977 H       1  UNL1        0.0644
@<TRIPOS>BOND
     1     1     2    1
     2     2     3    2
     3     2     4   am
     4     4     5    1
     5     5     6   ar
     6     6     7   ar
     7     7     8   ar
     8     8     9   ar
     9     9    10    1
    10    10    11    2
    11    10    12   am
    12    12    13    1
    13    13    14   ar
    14    14    15   ar
    15    15    16   ar
    16    16    17   ar
    17    17    18   ar
    18    13    18   ar
    19    18    19    1
    20    19    20    3
    21     9    21   ar
    22     5    21   ar
    23     1    22    1
    24     1    23    1
    25     1    24    1
    26     4    25    1
    27     6    26    1
    28     7    27    1
    29     8    28    1
    30    12    29    1
    31    14    30    1
    32    15    31    1
    33    16    32    1
    34    17    33    1
    35    21    34    1
