@<TRIPOS>MOLECULE
*****
 61 64 0 0 0
SMALL
GASTEIGER

@<TRIPOS>ATOM
      1 C           1.0846   -0.0417   -0.0730 C.3     1  UNL1       -0.0208
      2 C           2.5908    0.1670   -0.0877 C.ar    1  UNL1        0.0594
      3 C           3.4294    1.2517   -0.0499 C.ar    1  UNL1        0.1212
      4 N           3.2571    2.6673   -0.0413 N.am    1  UNL1       -0.2795
      5 C           2.0294    3.2772   -0.0478 C.2     1  UNL1        0.2232
      6 O           1.0608    2.5227   -0.0391 O.2     1  UNL1       -0.2751
      7 C           1.7011    4.7853   -0.0510 C.3     1  UNL1        0.0671
      8 C           0.1358    5.0399   -0.0437 C.ar    1  UNL1        0.0593
      9 C          -0.9012    4.1093   -0.0411 C.ar    1  UNL1        0.0007
     10 S          -2.4481    4.8213   -0.0208 S.2     1  UNL1       -0.0602
     11 C          -1.6958    6.3432   -0.0285 C.ar    1  UNL1        0.1658
     12 N          -2.6156    7.3691   -0.0321 N.am    1  UNL1       -0.2485
     13 C          -2.1957    8.6648   -0.0599 C.2     1  UNL1        0.3055
     14 O          -1.0181    9.0096   -0.0508 O.2     1  UNL1       -0.2524
     15 N          -3.2110    9.6170   -0.1183 N.am    1  UNL1       -0.2963
     16 C          -2.7905   11.0205   -0.0264 C.3     1  UNL1        0.0246
     17 C          -3.7962   12.0674   -0.5347 C.3     1  UNL1       -0.0345
     18 C          -3.1827   13.4798   -0.4566 C.3     1  UNL1       -0.0514
     19 C          -2.7057   13.8226    0.9539 C.3     1  UNL1       -0.0529
     20 C          -1.7389   12.7659    1.4717 C.3     1  UNL1       -0.0514
     21 C          -2.3560   11.3724    1.4074 C.3     1  UNL1       -0.0345
     22 N          -0.3741    6.3485   -0.0378 N.ar    1  UNL1       -0.2290
     23 C           4.8297    0.6180    0.0045 C.ar    1  UNL1        0.2934
     24 O           5.8695    1.2636   -0.0168 O.2     1  UNL1       -0.2638
     25 N           4.6532   -0.7764    0.0470 N.ar    1  UNL1       -0.2156
     26 C           5.6604   -1.7569   -0.0973 C.ar    1  UNL1        0.0674
     27 C           6.6494   -1.8669    0.8838 C.ar    1  UNL1       -0.0362
     28 C           7.6544   -2.8345    0.7723 C.ar    1  UNL1       -0.0598
     29 C           7.6395   -3.7474   -0.2820 C.ar    1  UNL1       -0.0616
     30 C           6.6385   -3.6736   -1.2470 C.ar    1  UNL1       -0.0598
     31 C           5.6578   -2.6796   -1.1578 C.ar    1  UNL1       -0.0362
     32 N           3.3123   -1.0410   -0.1728 N.ar    1  UNL1       -0.2823
     33 C           2.7686   -2.3865   -0.0223 C.3     1  UNL1        0.0292
     34 H           0.3887    0.7800   -0.0721 H       1  UNL1        0.0293
     35 H           0.7956   -0.5977    0.8262 H       1  UNL1        0.0293
     36 H           0.7821   -0.6106   -0.9569 H       1  UNL1        0.0293
     37 H           4.1107    3.2233   -0.0462 H       1  UNL1        0.1550
     38 H           2.1227    5.2574   -0.9461 H       1  UNL1        0.0423
     39 H           2.1291    5.2583    0.8404 H       1  UNL1        0.0423
     40 H          -0.8847    3.0332   -0.0464 H       1  UNL1        0.0712
     41 H          -3.5880    7.1077   -0.0242 H       1  UNL1        0.1583
     42 H          -4.1736    9.3625    0.0552 H       1  UNL1        0.1505
     43 H          -1.9155   11.1014   -0.6844 H       1  UNL1        0.0499
     44 H          -4.7196   12.0412    0.0564 H       1  UNL1        0.0283
     45 H          -4.0735   11.8590   -1.5743 H       1  UNL1        0.0283
     46 H          -3.9074   14.2310   -0.7891 H       1  UNL1        0.0266
     47 H          -2.3263   13.5431   -1.1416 H       1  UNL1        0.0266
     48 H          -3.5681   13.8970    1.6273 H       1  UNL1        0.0265
     49 H          -2.2131   14.8025    0.9578 H       1  UNL1        0.0265
     50 H          -1.4493   12.9959    2.5024 H       1  UNL1        0.0266
     51 H          -0.8221   12.7851    0.8685 H       1  UNL1        0.0266
     52 H          -3.2204   11.3174    2.0814 H       1  UNL1        0.0283
     53 H          -1.6242   10.6501    1.7836 H       1  UNL1        0.0283
     54 H           6.6158   -1.2334    1.7665 H       1  UNL1        0.0639
     55 H           8.4544   -2.8709    1.5073 H       1  UNL1        0.0618
     56 H           8.4088   -4.5132   -0.3506 H       1  UNL1        0.0618
     57 H           6.6313   -4.3759   -2.0775 H       1  UNL1        0.0618
     58 H           4.8923   -2.6287   -1.9280 H       1  UNL1        0.0639
     59 H           3.5248   -3.1714    0.0353 H       1  UNL1        0.0472
     60 H           2.1534   -2.6155   -0.8993 H       1  UNL1        0.0472
     61 H           2.1611   -2.4923    0.8812 H       1  UNL1        0.0472
@<TRIPOS>BOND
     1     1     2    1
     2     2     3   ar
     3     3     4    1
     4     4     5   am
     5     5     6    2
     6     5     7    1
     7     7     8    1
     8     8     9   ar
     9     9    10   ar
    10    10    11   ar
    11    11    12    1
    12    12    13   am
    13    13    14    2
    14    13    15   am
    15    15    16    1
    16    16    17    1
    17    17    18    1
    18    18    19    1
    19    19    20    1
    20    20    21    1
    21    16    21    1
    22    11    22   ar
    23     8    22   ar
    24     3    23   ar
    25    23    24    2
    26    23    25   ar
    27    25    26    1
    28    26    27   ar
    29    27    28   ar
    30    28    29   ar
    31    29    30   ar
    32    30    31   ar
    33    26    31   ar
    34    25    32   ar
    35     2    32   ar
    36    32    33    1
    37     1    34    1
    38     1    35    1
    39     1    36    1
    40     4    37    1
    41     7    38    1
    42     7    39    1
    43     9    40    1
    44    12    41    1
    45    15    42    1
    46    16    43    1
    47    17    44    1
    48    17    45    1
    49    18    46    1
    50    18    47    1
    51    19    48    1
    52    19    49    1
    53    20    50    1
    54    20    51    1
    55    21    52    1
    56    21    53    1
    57    27    54    1
    58    28    55    1
    59    29    56    1
    60    30    57    1
    61    31    58    1
    62    33    59    1
    63    33    60    1
    64    33    61    1
