@<TRIPOS>MOLECULE
*****
 68 69 0 0 0
SMALL
GASTEIGER

@<TRIPOS>ATOM
      1 C           6.5344  -14.3826   -5.0877 C.3     1  UNL1       -0.0653
      2 C           7.2530  -13.1404   -4.5934 C.3     1  UNL1       -0.0559
      3 C           8.3537  -13.5121   -3.6043 C.3     1  UNL1       -0.0532
      4 C           9.0808  -12.2680   -3.1068 C.3     1  UNL1       -0.0500
      5 C          10.1914  -12.6350   -2.1259 C.3     1  UNL1       -0.0186
      6 C          10.9159  -11.3824   -1.6381 C.3     1  UNL1        0.0896
      7 O          11.9953  -11.7737   -0.7882 O.3     1  UNL1       -0.4920
      8 C          12.6603  -10.7526   -0.1634 C.ar    1  UNL1        0.1205
      9 C          14.0237  -10.9394    0.0334 C.ar    1  UNL1       -0.0192
     10 C          14.7594   -9.9996    0.7708 C.ar    1  UNL1       -0.0462
     11 C          14.1673   -8.8178    1.2768 C.ar    1  UNL1        0.0373
     12 C          15.0725   -7.8131    1.9437 C.2     1  UNL1        0.2495
     13 O          16.2600   -8.1334    1.9900 O.2     1  UNL1       -0.2698
     14 N          14.5727   -6.5757    2.4194 N.am    1  UNL1       -0.2636
     15 C          15.3185   -5.4990    2.9518 C.2     1  UNL1        0.1401
     16 S          16.9811   -5.5312    3.2382 S.2     1  UNL1       -0.0183
     17 N          14.5657   -4.3145    3.1717 N.am    1  UNL1       -0.2988
     18 C          15.2357   -2.9856    3.1318 C.3     1  UNL1        0.0301
     19 C          14.2596   -1.9961    2.5196 C.3     1  UNL1        0.0274
     20 N          13.0409   -1.9214    3.2979 N.am    1  UNL1       -0.3123
     21 C          12.4756   -3.0183    3.8980 C.2     1  UNL1        0.2341
     22 O          11.3752   -2.9100    4.4398 O.2     1  UNL1       -0.2738
     23 C          13.3440   -4.2971    4.0466 C.3     1  UNL1        0.1113
     24 C          13.7737   -4.3246    5.5218 C.3     1  UNL1        0.0720
     25 C          13.6184   -5.6691    6.1485 C.2     1  UNL1        0.3096
     26 O          13.1535   -6.6244    5.5230 O.2     1  UNL1       -0.2508
     27 O          14.0526   -5.8231    7.4203 O.3     1  UNL1       -0.4616
     28 C          14.6100   -4.8135    8.3119 C.3     1  UNL1        0.1000
     29 C          15.7974   -4.0597    7.7228 C.3     1  UNL1       -0.0277
     30 C          15.1442   -5.5526    9.5517 C.3     1  UNL1       -0.0188
     31 C          14.0670   -6.2848   10.3287 C.3     1  UNL1       -0.0619
     32 C          12.7973   -8.6491    1.0817 C.ar    1  UNL1       -0.0462
     33 C          12.0526   -9.6142    0.3725 C.ar    1  UNL1       -0.0192
     34 H           5.7471  -14.1105   -5.7963 H       1  UNL1        0.0230
     35 H           6.0749  -14.9224   -4.2535 H       1  UNL1        0.0230
     36 H           7.2319  -15.0592   -5.5917 H       1  UNL1        0.0230
     37 H           6.5317  -12.4671   -4.1154 H       1  UNL1        0.0263
     38 H           7.6827  -12.6033   -5.4472 H       1  UNL1        0.0263
     39 H           9.0693  -14.1893   -4.0863 H       1  UNL1        0.0265
     40 H           7.9194  -14.0516   -2.7538 H       1  UNL1        0.0265
     41 H           8.3642  -11.5930   -2.6224 H       1  UNL1        0.0266
     42 H           9.5080  -11.7267   -3.9598 H       1  UNL1        0.0266
     43 H          10.9053  -13.3220   -2.5957 H       1  UNL1        0.0298
     44 H           9.7717  -13.1752   -1.2671 H       1  UNL1        0.0298
     45 H          10.1857  -10.7585   -1.1146 H       1  UNL1        0.0696
     46 H          11.3226  -10.8315   -2.4938 H       1  UNL1        0.0696
     47 H          14.5229  -11.8108   -0.3877 H       1  UNL1        0.0654
     48 H          15.8154  -10.2067    0.9504 H       1  UNL1        0.0626
     49 H          13.5918   -6.3979    2.2877 H       1  UNL1        0.1568
     50 H          16.1588   -3.0060    2.5486 H       1  UNL1        0.0480
     51 H          15.4999   -2.6700    4.1518 H       1  UNL1        0.0480
     52 H          13.9870   -2.3311    1.5136 H       1  UNL1        0.0477
     53 H          14.6914   -0.9939    2.4608 H       1  UNL1        0.0477
     54 H          12.4380   -1.1104    3.2188 H       1  UNL1        0.1488
     55 H          12.7073   -5.1389    3.7675 H       1  UNL1        0.0602
     56 H          14.8355   -4.1131    5.5131 H       1  UNL1        0.0401
     57 H          13.2508   -3.5804    6.1369 H       1  UNL1        0.0401
     58 H          13.8081   -4.1266    8.6073 H       1  UNL1        0.0731
     59 H          16.4782   -4.7541    7.2182 H       1  UNL1        0.0265
     60 H          16.3401   -3.4933    8.4819 H       1  UNL1        0.0265
     61 H          15.4832   -3.2954    7.0149 H       1  UNL1        0.0265
     62 H          15.6358   -4.8375   10.2226 H       1  UNL1        0.0298
     63 H          15.9033   -6.2836    9.2426 H       1  UNL1        0.0298
     64 H          13.2989   -5.5866   10.6729 H       1  UNL1        0.0231
     65 H          14.5076   -6.7682   11.2069 H       1  UNL1        0.0231
     66 H          13.5926   -7.0585    9.7190 H       1  UNL1        0.0231
     67 H          12.2643   -7.7961    1.4817 H       1  UNL1        0.0626
     68 H          10.9830   -9.4609    0.2802 H       1  UNL1        0.0654
@<TRIPOS>BOND
     1     1     2    1
     2     2     3    1
     3     3     4    1
     4     4     5    1
     5     5     6    1
     6     6     7    1
     7     7     8    1
     8     8     9   ar
     9     9    10   ar
    10    10    11   ar
    11    11    12    1
    12    12    13    2
    13    12    14   am
    14    14    15    1
    15    15    16    2
    16    15    17    1
    17    17    18    1
    18    18    19    1
    19    19    20    1
    20    20    21   am
    21    21    22    2
    22    21    23    1
    23    17    23    1
    24    24    25    1
    25    25    26    2
    26    25    27    1
    27    28    30    1
    28    30    31    1
    29    11    32   ar
    30    32    33   ar
    31     8    33   ar
    32    23    24    1
    33    28    29    1
    34    28    27    1
    35     1    34    1
    36     1    35    1
    37     1    36    1
    38     2    37    1
    39     2    38    1
    40     3    39    1
    41     3    40    1
    42     4    41    1
    43     4    42    1
    44     5    43    1
    45     5    44    1
    46     6    45    1
    47     6    46    1
    48     9    47    1
    49    10    48    1
    50    14    49    1
    51    18    50    1
    52    18    51    1
    53    19    52    1
    54    19    53    1
    55    20    54    1
    56    23    55    1
    57    24    56    1
    58    24    57    1
    59    28    58    1
    60    29    59    1
    61    29    60    1
    62    29    61    1
    63    30    62    1
    64    30    63    1
    65    31    64    1
    66    31    65    1
    67    31    66    1
    68    32    67    1
    69    33    68    1
