@<TRIPOS>MOLECULE
*****
 57 59 0 0 0
SMALL
GASTEIGER

@<TRIPOS>ATOM
      1 C           0.9720   -0.0904    0.0382 C.3     1  UNL1       -0.0647
      2 C           2.4903   -0.0712    0.1103 C.3     1  UNL1       -0.0493
      3 C           3.0295    1.0458    1.0236 C.3     1  UNL1       -0.0189
      4 C           2.4736    0.9668    2.4416 C.3     1  UNL1       -0.0584
      5 C           4.5534    1.0356    0.9864 C.ar    1  UNL1       -0.0426
      6 C           5.1211    1.6019   -0.1604 C.ar    1  UNL1       -0.0548
      7 C           6.4813    1.7105   -0.2508 C.ar    1  UNL1       -0.0181
      8 C           7.2667    1.3388    0.8348 C.ar    1  UNL1        0.1380
      9 O           8.4546    2.0099    0.7772 O.3     1  UNL1       -0.5049
     10 C           6.8097    0.6178    1.9542 C.ar    1  UNL1        0.0749
     11 N           7.6537    0.0505    3.0239 N.am    1  UNL1       -0.2937
     12 C           9.0651   -0.1321    3.0191 C.2     1  UNL1        0.1411
     13 S          10.0682    0.0753    1.6733 S.2     1  UNL1       -0.0182
     14 N           9.6341   -0.5825    4.2421 N.am    1  UNL1       -0.2636
     15 C          11.0218   -0.6308    4.4634 C.2     1  UNL1        0.2497
     16 O          11.8995   -0.1528    3.7147 O.2     1  UNL1       -0.2698
     17 C          11.6580   -1.2636    5.6191 C.ar    1  UNL1        0.0436
     18 C          12.8750   -0.7192    6.0501 C.ar    1  UNL1       -0.0474
     19 C          13.7266   -1.4429    6.8806 C.ar    1  UNL1       -0.0333
     20 C          13.3933   -2.7262    7.3667 C.ar    1  UNL1        0.1079
     21 N          14.3265   -3.2611    8.2330 N.pl3   1  UNL1       -0.3247
     22 C          14.8657   -4.6116    8.1873 C.3     1  UNL1        0.0124
     23 C          14.6463   -5.1308    9.6045 C.3     1  UNL1       -0.0358
     24 C          14.9056   -3.9012   10.4594 C.3     1  UNL1       -0.0358
     25 C          14.4432   -2.7174    9.5965 C.3     1  UNL1        0.0124
     26 C          12.1669   -3.2720    6.8907 C.ar    1  UNL1        0.2946
     27 N          11.6374   -4.6098    7.2178 N.pl3   1  UNL1        0.0815
     28 O          12.2089   -5.3162    8.0571 O.2     1  UNL1        0.0415
     29 O          10.6031   -4.9716    6.6496 O.co2   1  UNL1       -0.5760
     30 C          11.3110   -2.5380    6.0207 C.ar    1  UNL1        0.0296
     31 C           5.4018    0.4989    2.0137 C.ar    1  UNL1       -0.0335
     32 H           0.6321   -0.8940   -0.6202 H       1  UNL1        0.0230
     33 H           0.5905    0.8604   -0.3481 H       1  UNL1        0.0230
     34 H           0.5287   -0.2678    1.0211 H       1  UNL1        0.0230
     35 H           2.8777    0.0511   -0.9112 H       1  UNL1        0.0268
     36 H           2.8557   -1.0427    0.4623 H       1  UNL1        0.0268
     37 H           2.6928    2.0123    0.6109 H       1  UNL1        0.0346
     38 H           2.7140    0.0024    2.8975 H       1  UNL1        0.0236
     39 H           1.3864    1.0800    2.4585 H       1  UNL1        0.0236
     40 H           2.8881    1.7659    3.0646 H       1  UNL1        0.0236
     41 H           4.5175    2.0331   -0.9558 H       1  UNL1        0.0622
     42 H           6.9449    2.2095   -1.0957 H       1  UNL1        0.0655
     43 H           9.0128    1.4828    0.1714 H       1  UNL1        0.2922
     44 H           7.1231   -0.3645    3.7839 H       1  UNL1        0.1539
     45 H           9.0271   -0.9631    4.9603 H       1  UNL1        0.1568
     46 H          13.2149    0.2389    5.6489 H       1  UNL1        0.0626
     47 H          14.7113   -1.0192    7.0903 H       1  UNL1        0.0638
     48 H          15.9436   -4.5300    7.9989 H       1  UNL1        0.0464
     49 H          14.4622   -5.2418    7.3923 H       1  UNL1        0.0464
     50 H          15.2995   -5.9728    9.8429 H       1  UNL1        0.0281
     51 H          13.6200   -5.4595    9.7861 H       1  UNL1        0.0281
     52 H          15.9758   -3.8242   10.6779 H       1  UNL1        0.0281
     53 H          14.3725   -3.9466   11.4151 H       1  UNL1        0.0281
     54 H          15.1973   -1.9217    9.6316 H       1  UNL1        0.0464
     55 H          13.4947   -2.3124    9.9681 H       1  UNL1        0.0464
     56 H          10.4258   -2.9932    5.5864 H       1  UNL1        0.0693
     57 H           4.9330    0.0284    2.8744 H       1  UNL1        0.0640
@<TRIPOS>UNITY_ATOM_ATTR
27 1
charge 1
29 1
charge -1
@<TRIPOS>BOND
     1     1     2    1
     2     2     3    1
     3     3     4    1
     4     3     5    1
     5     5     6   ar
     6     6     7   ar
     7     7     8   ar
     8     8     9    1
     9     8    10   ar
    10    10    11    1
    11    11    12    1
    12    12    13    2
    13    12    14    1
    14    14    15   am
    15    15    16    2
    16    15    17    1
    17    17    18   ar
    18    18    19   ar
    19    19    20   ar
    20    20    21    1
    21    21    22    1
    22    22    23    1
    23    23    24    1
    24    24    25    1
    25    21    25    1
    26    20    26   ar
    27    26    27    1
    28    27    28    2
    29    27    29    1
    30    26    30   ar
    31    17    30   ar
    32    10    31   ar
    33     5    31   ar
    34     1    32    1
    35     1    33    1
    36     1    34    1
    37     2    35    1
    38     2    36    1
    39     3    37    1
    40     4    38    1
    41     4    39    1
    42     4    40    1
    43     6    41    1
    44     7    42    1
    45     9    43    1
    46    11    44    1
    47    14    45    1
    48    18    46    1
    49    19    47    1
    50    22    48    1
    51    22    49    1
    52    23    50    1
    53    23    51    1
    54    24    52    1
    55    24    53    1
    56    25    54    1
    57    25    55    1
    58    30    56    1
    59    31    57    1
