REMARK  6 active torsions:
REMARK  status: ('A' for Active; 'I' for Inactive)
REMARK    1  A    between atoms: O_2  and  C_3 
REMARK       I    between atoms: C_3  and  N_5 
REMARK    2  A    between atoms: N_5  and  C_6 
REMARK    3  A    between atoms: C_9  and  C_10 
REMARK    4  A    between atoms: C_10  and  N_11 
REMARK       I    between atoms: N_11  and  C_12 
REMARK    5  A    between atoms: C_12  and  C_14 
REMARK       I    between atoms: C_14  and  N_16 
REMARK    6  A    between atoms: N_16  and  C_17 
ROOT
ATOM      1  N   UNL d   1       6.480   6.260  -4.135  0.00  0.00    -0.349 N 
ATOM      2  C   UNL d   1       6.867   7.325  -4.924  0.00  0.00     0.309 C 
ATOM      3  O   UNL d   1       7.771   7.319  -5.746  0.00  0.00    -0.262 OA
ATOM      4  H   UNL d   1       5.670   6.447  -3.555  0.00  0.00     0.163 HD
ENDROOT
BRANCH   1   5
ATOM      5  C   UNL d   1       7.103   4.939  -4.154  0.00  0.00     0.161 C 
BRANCH   5   6
ATOM      6  C   UNL d   1       6.486   3.906  -3.217  0.00  0.00    -0.040 A 
ATOM      7  C   UNL d   1       6.959   2.575  -3.182  0.00  0.00     0.011 A 
ATOM      8  C   UNL d   1       6.295   1.571  -2.430  0.00  0.00     0.030 A 
ATOM      9  C   UNL d   1       5.157   1.896  -1.688  0.00  0.00     0.036 A 
ATOM     10  C   UNL d   1       4.748   3.225  -1.657  0.00  0.00     0.030 A 
ATOM     11  C   UNL d   1       5.398   4.209  -2.397  0.00  0.00     0.011 A 
BRANCH   9  12
ATOM     12  N   UNL d   1       4.409   0.949  -0.950  0.00  0.00    -0.303 N 
ATOM     13  C   UNL d   1       3.028   0.998  -0.895  0.00  0.00     0.364 C 
ATOM     14  O   UNL d   1       2.317   1.758  -1.559  0.00  0.00    -0.238 OA
ATOM     15  H   UNL d   1       4.878   0.175  -0.498  0.00  0.00     0.171 HD
BRANCH  13  16
ATOM     16  O   UNL d   1       2.504   0.070  -0.046  0.00  0.00    -0.309 OA
ATOM     17  C   UNL d   1       1.065   0.082  -0.034  0.00  0.00     0.215 C 
ENDBRANCH  13  16
ENDBRANCH   9  12
ENDBRANCH   5   6
ENDBRANCH   1   5
BRANCH   2  18
ATOM     18  C   UNL d   1       6.023   8.614  -4.678  0.00  0.00     0.313 C 
ATOM     19  O   UNL d   1       5.137   8.563  -3.830  0.00  0.00    -0.262 OA
ATOM     20  N   UNL d   1       6.329   9.701  -5.492  0.00  0.00    -0.319 N 
ATOM     21  H   UNL d   1       6.971   9.536  -6.263  0.00  0.00     0.169 HD
BRANCH  20  22
ATOM     22  C   UNL d   1       5.724  10.974  -5.363  0.00  0.00     0.035 A 
ATOM     23  C   UNL d   1       5.471  11.765  -6.492  0.00  0.00     0.031 A 
ATOM     24  C   UNL d   1       4.916  13.050  -6.350  0.00  0.00     0.026 A 
ATOM     25  C   UNL d   1       4.591  13.534  -5.083  0.00  0.00     0.034 A 
ATOM     26 CL   UNL d   1       3.820  15.063  -4.910  0.00  0.00    -0.084 Cl
ATOM     27  C   UNL d   1       4.859  12.766  -3.956  0.00  0.00     0.026 A 
ATOM     28  C   UNL d   1       5.417  11.491  -4.099  0.00  0.00     0.031 A 
ENDBRANCH  20  22
ENDBRANCH   2  18
TORSDOF 6
