REMARK  10 active torsions:
REMARK  status: ('A' for Active; 'I' for Inactive)
REMARK    1  A    between atoms: C_2  and  C_3 
REMARK       I    between atoms: C_2  and  N_18 
REMARK    2  A    between atoms: C_3  and  N_4 
REMARK    3  A    between atoms: N_4  and  C_5 
REMARK    4  A    between atoms: C_8  and  O_9 
REMARK    5  A    between atoms: O_9  and  C_10 
REMARK    6  A    between atoms: C_11  and  C_10 
REMARK    7  A    between atoms: N_18  and  C_19 
REMARK    8  A    between atoms: C_23  and  C_24 
REMARK       I    between atoms: C_24  and  N_26 
REMARK    9  A    between atoms: N_26  and  C_27 
REMARK   10  A    between atoms: C_31  and  C_32 
ROOT
ATOM      1  C   UNL d   1      15.319  -2.936 -12.664  0.00  0.00     0.035 A 
ATOM      2  C   UNL d   1      16.452  -3.716 -12.446  0.00  0.00     0.029 A 
ATOM      3  C   UNL d   1      16.449  -5.061 -12.830  0.00  0.00     0.003 A 
ATOM      4  C   UNL d   1      15.302  -5.632 -13.390  0.00  0.00     0.017 A 
ATOM      5  C   UNL d   1      14.176  -4.843 -13.650  0.00  0.00     0.034 A 
ATOM      6  C   UNL d   1      14.221  -3.495 -13.314  0.00  0.00     0.046 A 
ENDROOT
BRANCH   1   7
ATOM      7  N   UNL d   1      15.308  -1.576 -12.318  0.00  0.00    -0.326 N 
ATOM      8  C   UNL d   1      14.247  -0.839 -11.821  0.00  0.00     0.239 C 
ATOM      9  O   UNL d   1      14.367   0.383 -11.702  0.00  0.00    -0.271 OA
ATOM     10  H   UNL d   1      16.173  -1.053 -12.414  0.00  0.00     0.169 HD
BRANCH   8  11
ATOM     11  C   UNL d   1      12.981  -1.594 -11.357  0.00  0.00     0.223 C 
BRANCH  11  12
ATOM     12  N   UNL d   1      12.005  -0.720 -10.713  0.00  0.00    -0.381 N 
ATOM     13  H   UNL d   1      12.111   0.274 -10.891  0.00  0.00     0.160 HD
BRANCH  12  14
ATOM     14  C   UNL d   1      10.759  -1.234 -10.377  0.00  0.00     0.028 A 
ATOM     15  C   UNL d   1       9.570  -0.599 -10.749  0.00  0.00     0.032 A 
ATOM     16  C   UNL d   1       8.318  -1.087 -10.317  0.00  0.00     0.039 A 
ATOM     17  C   UNL d   1       8.228  -2.270  -9.579  0.00  0.00     0.069 A 
ATOM     18  C   UNL d   1       9.413  -2.928  -9.250  0.00  0.00     0.039 A 
ATOM     19  C   UNL d   1      10.652  -2.427  -9.662  0.00  0.00     0.032 A 
BRANCH  17  20
ATOM     20  O   UNL d   1       6.967  -2.707  -9.231  0.00  0.00    -0.349 OA
BRANCH  20  21
ATOM     21  C   UNL d   1       6.925  -4.032  -8.674  0.00  0.00     0.207 C 
BRANCH  21  22
ATOM     22  C   UNL d   1       5.513  -4.575  -8.381  0.00  0.00     0.145 C 
ATOM     23  C   UNL d   1       4.415  -4.125  -9.322  0.00  0.00     0.036 C 
ATOM     24  C   UNL d   1       4.427  -5.188 -10.389  0.00  0.00     0.029 C 
ATOM     25  C   UNL d   1       4.793  -6.438  -9.619  0.00  0.00     0.168 C 
ATOM     26  O   UNL d   1       5.555  -6.021  -8.474  0.00  0.00    -0.384 OA
ENDBRANCH  21  22
ENDBRANCH  20  21
ENDBRANCH  17  20
ENDBRANCH  12  14
ENDBRANCH  11  12
ENDBRANCH   8  11
ENDBRANCH   1   7
BRANCH   5  27
ATOM     27  C   UNL d   1      12.990  -5.439 -14.320  0.00  0.00     0.256 C 
ATOM     28  O   UNL d   1      13.044  -6.643 -14.599  0.00  0.00    -0.267 OA
ATOM     29  N   UNL d   1      11.918  -4.611 -14.644  0.00  0.00    -0.323 N 
ATOM     30  H   UNL d   1      11.973  -3.606 -14.567  0.00  0.00     0.169 HD
BRANCH  29  31
ATOM     31  C   UNL d   1      10.745  -5.100 -15.245  0.00  0.00     0.035 A 
ATOM     32  C   UNL d   1      10.076  -4.359 -16.221  0.00  0.00     0.029 A 
ATOM     33  C   UNL d   1       8.902  -4.863 -16.791  0.00  0.00     0.003 A 
ATOM     34  C   UNL d   1       8.407  -6.106 -16.390  0.00  0.00     0.016 A 
ATOM     35  C   UNL d   1       9.052  -6.829 -15.379  0.00  0.00     0.050 A 
ATOM     36  C   UNL d   1      10.222  -6.316 -14.820  0.00  0.00     0.045 A 
BRANCH  35  37
ATOM     37  C   UNL d   1       8.491  -8.121 -14.858  0.00  0.00     0.417 C 
ATOM     38  F   UNL d   1       7.226  -7.967 -14.378  0.00  0.00    -0.166 F 
ATOM     39  F   UNL d   1       8.420  -9.087 -15.812  0.00  0.00    -0.166 F 
ATOM     40  F   UNL d   1       9.210  -8.656 -13.831  0.00  0.00    -0.166 F 
ENDBRANCH  35  37
ENDBRANCH  29  31
ENDBRANCH   5  27
TORSDOF 10
