@<TRIPOS>MOLECULE
*****
 56 59 0 0 0
SMALL
GASTEIGER

@<TRIPOS>ATOM
      1 C           1.0559    0.0223    0.1084 C.3     1  UNL1       -0.0203
      2 C           2.5682   -0.0020    0.0164 C.2     1  UNL1        0.0634
      3 N           3.2624    0.3734   -1.0308 N.2     1  UNL1       -0.1844
      4 N           2.6701    0.8445   -2.1750 N.pl3   1  UNL1       -0.2052
      5 C           3.3679    1.0865   -3.3232 C.ar    1  UNL1        0.2317
      6 N           4.4517    0.5259   -3.8296 N.ar    1  UNL1       -0.1865
      7 C           4.6458    1.1943   -5.0103 C.ar    1  UNL1        0.2105
      8 S           5.9102    0.9030   -6.1692 S.3     1  UNL1       -0.0750
      9 C           6.8159   -0.5507   -5.5571 C.3     1  UNL1        0.0777
     10 C           7.9748   -0.8866   -6.5190 C.2     1  UNL1        0.2236
     11 O           8.2287   -0.2462   -7.5517 O.2     1  UNL1       -0.2749
     12 N           8.7585   -1.9730   -6.1834 N.am    1  UNL1       -0.3105
     13 C           9.8764   -2.3624   -7.0326 C.3     1  UNL1        0.0369
     14 C          10.5761   -3.5850   -6.4957 C.ar    1  UNL1       -0.0303
     15 C          10.2011   -4.8638   -6.9286 C.ar    1  UNL1       -0.0565
     16 C          10.7445   -6.0030   -6.3301 C.ar    1  UNL1       -0.0498
     17 C          11.7211   -5.8877   -5.3297 C.ar    1  UNL1        0.0548
     18 C          12.3455   -7.1313   -4.7459 C.3     1  UNL1        0.4174
     19 F          11.4384   -7.9387   -4.1291 F       1  UNL1       -0.1659
     20 F          12.9415   -7.9010   -5.6993 F       1  UNL1       -0.1659
     21 F          13.3101   -6.8765   -3.8183 F       1  UNL1       -0.1659
     22 C          12.1237   -4.6074   -4.9230 C.ar    1  UNL1       -0.0498
     23 C          11.5560   -3.4674   -5.5002 C.ar    1  UNL1       -0.0565
     24 N           3.7563    2.1636   -5.2564 N.ar    1  UNL1       -0.1443
     25 N           2.9649    2.0809   -4.1788 N.ar    1  UNL1       -0.2446
     26 C           3.3448   -0.4596    1.2544 C.ar    1  UNL1       -0.0019
     27 C           4.4845    0.2838    1.5628 C.ar    1  UNL1       -0.0522
     28 C           5.3105   -0.0942    2.6197 C.ar    1  UNL1       -0.0534
     29 C           4.9987   -1.1876    3.4346 C.ar    1  UNL1       -0.0178
     30 C           5.7643   -1.3974    4.5850 C.ar    1  UNL1       -0.0540
     31 C           5.3638   -2.3388    5.5136 C.ar    1  UNL1       -0.0612
     32 C           4.8386   -3.4729    4.9555 C.ar    1  UNL1       -0.0612
     33 C           3.9226   -3.2777    3.9087 C.ar    1  UNL1       -0.0540
     34 C           3.9281   -2.0486    3.1325 C.ar    1  UNL1       -0.0173
     35 C           3.0602   -1.6165    2.0417 C.ar    1  UNL1       -0.0451
     36 H           0.5693    0.3485   -0.8131 H       1  UNL1        0.0293
     37 H           0.7414    0.7156    0.8951 H       1  UNL1        0.0293
     38 H           0.6832   -0.9790    0.3285 H       1  UNL1        0.0293
     39 H           1.6639    0.9764   -2.2057 H       1  UNL1        0.1774
     40 H           6.1435   -1.4129   -5.5012 H       1  UNL1        0.0475
     41 H           7.2290   -0.3432   -4.5651 H       1  UNL1        0.0475
     42 H           8.5701   -2.5152   -5.3491 H       1  UNL1        0.1490
     43 H          10.5761   -1.5203   -7.1091 H       1  UNL1        0.0512
     44 H           9.5001   -2.5481   -8.0469 H       1  UNL1        0.0512
     45 H           9.4792   -4.9812   -7.7350 H       1  UNL1        0.0621
     46 H          10.4035   -6.9874   -6.6488 H       1  UNL1        0.0623
     47 H          12.8811   -4.4899   -4.1487 H       1  UNL1        0.0623
     48 H          11.8834   -2.4834   -5.1681 H       1  UNL1        0.0621
     49 H           2.2186    2.7556   -4.0669 H       1  UNL1        0.1919
     50 H           4.7441    1.1753    0.9935 H       1  UNL1        0.0624
     51 H           6.2089    0.4851    2.8170 H       1  UNL1        0.0624
     52 H           6.6588   -0.8244    4.7969 H       1  UNL1        0.0624
     53 H           4.5650   -1.9058    6.1740 H       1  UNL1        0.0618
     54 H           5.0832   -4.4123    5.4475 H       1  UNL1        0.0618
     55 H           3.2490   -4.1024    3.6920 H       1  UNL1        0.0624
     56 H           2.1862   -2.2163    1.8022 H       1  UNL1        0.0630
@<TRIPOS>BOND
     1     1     2    1
     2     2     3    2
     3     3     4    1
     4     4     5    1
     5     5     6   ar
     6     6     7   ar
     7     7     8    1
     8     8     9    1
     9     9    10    1
    10    10    11    2
    11    10    12   am
    12    12    13    1
    13    13    14    1
    14    14    15   ar
    15    15    16   ar
    16    16    17   ar
    17    17    18    1
    18    18    19    1
    19    18    20    1
    20    18    21    1
    21    17    22   ar
    22    22    23   ar
    23    14    23   ar
    24     7    24   ar
    25    24    25   ar
    26     5    25   ar
    27     2    26    1
    28    26    27   ar
    29    27    28   ar
    30    28    29   ar
    31    29    30   ar
    32    30    31   ar
    33    31    32   ar
    34    32    33   ar
    35    33    34   ar
    36    29    34   ar
    37    34    35   ar
    38    26    35   ar
    39     1    36    1
    40     1    37    1
    41     1    38    1
    42     4    39    1
    43     9    40    1
    44     9    41    1
    45    12    42    1
    46    13    43    1
    47    13    44    1
    48    15    45    1
    49    16    46    1
    50    22    47    1
    51    23    48    1
    52    25    49    1
    53    27    50    1
    54    28    51    1
    55    30    52    1
    56    31    53    1
    57    32    54    1
    58    33    55    1
    59    35    56    1
