@<TRIPOS>MOLECULE
*****
 50 53 0 0 0
SMALL
GASTEIGER

@<TRIPOS>ATOM
      1 O           1.0446   -0.0369    0.1197 O.2     1  UNL1       -0.2683
      2 C           2.2758   -0.0529    0.0316 C.2     1  UNL1        0.2668
      3 N           2.9844   -0.6311   -1.0219 N.am    1  UNL1       -0.2029
      4 N           2.3054   -1.1730   -2.0775 N.2     1  UNL1       -0.1875
      5 C           2.9837   -1.7322   -3.0291 C.2     1  UNL1        0.0529
      6 C           2.2667   -2.3001   -4.1937 C.ar    1  UNL1       -0.0020
      7 C           2.6324   -3.4998   -4.8038 C.ar    1  UNL1       -0.0529
      8 C           1.9255   -3.9424   -5.9318 C.ar    1  UNL1       -0.0577
      9 C           0.8438   -3.2015   -6.4239 C.ar    1  UNL1       -0.0193
     10 C           0.4868   -1.9980   -5.8100 C.ar    1  UNL1        0.1290
     11 O          -0.5834   -1.3162   -6.3450 O.3     1  UNL1       -0.4560
     12 C          -0.8177   -0.0153   -5.9513 C.ar    1  UNL1        0.1284
     13 C          -2.1283    0.3098   -5.6068 C.ar    1  UNL1       -0.0193
     14 C          -2.4603    1.6332   -5.3139 C.ar    1  UNL1       -0.0583
     15 C          -1.4678    2.6136   -5.2756 C.ar    1  UNL1       -0.0615
     16 C          -0.1497    2.2846   -5.5839 C.ar    1  UNL1       -0.0583
     17 C           0.1678    0.9803   -5.9622 C.ar    1  UNL1       -0.0193
     18 C           1.1891   -1.5709   -4.6846 C.ar    1  UNL1       -0.0107
     19 C           3.0856    0.5102    1.1069 C.ar    1  UNL1        0.0880
     20 C           2.8600    0.4011    2.4969 C.ar    1  UNL1        0.0625
     21 N           3.8536    0.9230    3.2223 N.ar    1  UNL1       -0.1735
     22 N           4.6511    1.5359    2.3133 N.ar    1  UNL1       -0.2273
     23 C           5.7593    2.3078    2.7475 C.ar    1  UNL1        0.0660
     24 C           6.7305    1.7444    3.5835 C.ar    1  UNL1       -0.0363
     25 C           7.7996    2.5338    4.0253 C.ar    1  UNL1       -0.0598
     26 C           7.9215    3.8592    3.6023 C.ar    1  UNL1       -0.0616
     27 C           6.9540    4.4152    2.7699 C.ar    1  UNL1       -0.0598
     28 C           5.8669    3.6468    2.3558 C.ar    1  UNL1       -0.0363
     29 C           4.2104    1.3208    1.0247 C.ar    1  UNL1        0.1593
     30 C           4.9399    1.8373   -0.1333 C.3     1  UNL1        0.4351
     31 F           4.9967    3.1849   -0.1881 F       1  UNL1       -0.1644
     32 F           6.2055    1.3579   -0.1656 F       1  UNL1       -0.1644
     33 F           4.3705    1.4483   -1.3001 F       1  UNL1       -0.1644
     34 H           3.9964   -0.5950   -1.0623 H       1  UNL1        0.1776
     35 H           4.0864   -1.7973   -3.0386 H       1  UNL1        0.0851
     36 H           3.4227   -4.1192   -4.3911 H       1  UNL1        0.0624
     37 H           2.2088   -4.8693   -6.4277 H       1  UNL1        0.0619
     38 H           0.2742   -3.5733   -7.2745 H       1  UNL1        0.0654
     39 H          -2.8884   -0.4651   -5.5637 H       1  UNL1        0.0654
     40 H          -3.4951    1.9016   -5.1209 H       1  UNL1        0.0619
     41 H          -1.7233    3.6351   -5.0066 H       1  UNL1        0.0618
     42 H           0.6271    3.0437   -5.5456 H       1  UNL1        0.0619
     43 H           1.1950    0.7429   -6.2238 H       1  UNL1        0.0654
     44 H           0.9179   -0.6549   -4.1699 H       1  UNL1        0.0661
     45 H           2.0317   -0.0847    3.0043 H       1  UNL1        0.0856
     46 H           6.6936    0.6938    3.8641 H       1  UNL1        0.0639
     47 H           8.5405    2.1209    4.7064 H       1  UNL1        0.0618
     48 H           8.7643    4.4639    3.9292 H       1  UNL1        0.0618
     49 H           7.0292    5.4548    2.4605 H       1  UNL1        0.0618
     50 H           5.0923    4.1300    1.7674 H       1  UNL1        0.0639
@<TRIPOS>BOND
     1     1     2    2
     2     2     3   am
     3     3     4    1
     4     4     5    2
     5     5     6    1
     6     6     7   ar
     7     7     8   ar
     8     8     9   ar
     9     9    10   ar
    10    10    11    1
    11    11    12    1
    12    12    13   ar
    13    13    14   ar
    14    14    15   ar
    15    15    16   ar
    16    16    17   ar
    17    12    17   ar
    18    10    18   ar
    19     6    18   ar
    20     2    19    1
    21    19    20   ar
    22    20    21   ar
    23    21    22   ar
    24    22    23    1
    25    23    24   ar
    26    24    25   ar
    27    25    26   ar
    28    26    27   ar
    29    27    28   ar
    30    23    28   ar
    31    22    29   ar
    32    19    29   ar
    33    29    30    1
    34    30    31    1
    35    30    32    1
    36    30    33    1
    37     3    34    1
    38     5    35    1
    39     7    36    1
    40     8    37    1
    41     9    38    1
    42    13    39    1
    43    14    40    1
    44    15    41    1
    45    16    42    1
    46    17    43    1
    47    18    44    1
    48    20    45    1
    49    24    46    1
    50    25    47    1
    51    26    48    1
    52    27    49    1
    53    28    50    1
