@<TRIPOS>MOLECULE
*****
 72 77 0 0 0
SMALL
GASTEIGER

@<TRIPOS>ATOM
      1 C          -3.1133    1.7031    0.1314 C.3     1  UNL1       -0.0026
      2 C          -2.0212    0.6926   -0.0131 C.ar    1  UNL1        0.1484
      3 O          -0.8775    1.3714   -0.3263 O.2     1  UNL1       -0.4560
      4 C           0.2888    0.7953    0.0318 C.ar    1  UNL1        0.1425
      5 C           1.2914    1.7070    0.2896 C.ar    1  UNL1        0.0238
      6 C           2.5038    1.2965    0.7935 C.ar    1  UNL1        0.1352
      7 O           3.5749    2.2722    0.9552 O.3     1  UNL1       -0.4244
      8 C           3.4958    3.6245    0.4827 C.2     1  UNL1        0.3333
      9 O           2.4600    4.1818    0.1107 O.2     1  UNL1       -0.2483
     10 C           4.8265    4.4173    0.4255 C.3     1  UNL1        0.1276
     11 C           5.6954    4.1290   -0.8245 C.3     1  UNL1        0.0033
     12 C           6.2660    2.7529   -0.8986 C.ar    1  UNL1       -0.0201
     13 C           7.5924    2.3755   -0.8440 C.ar    1  UNL1        0.0060
     14 N           7.6457    1.0049   -0.8158 N.ar    1  UNL1       -0.3604
     15 C           6.3877    0.4836   -0.9949 C.ar    1  UNL1        0.0467
     16 C           5.9294   -0.8381   -1.0156 C.ar    1  UNL1       -0.0378
     17 C           4.5945   -1.0394   -1.3721 C.ar    1  UNL1       -0.0598
     18 C           3.7821    0.0282   -1.7506 C.ar    1  UNL1       -0.0611
     19 C           4.2360    1.3379   -1.6382 C.ar    1  UNL1       -0.0523
     20 C           5.5486    1.5708   -1.2155 C.ar    1  UNL1        0.0029
     21 N           4.4303    5.8695    0.4064 N.am    1  UNL1       -0.2676
     22 C           5.3410    6.8981    0.4754 C.2     1  UNL1        0.4012
     23 O           6.5324    6.7385    0.6052 O.2     1  UNL1       -0.2265
     24 O           4.7321    8.1138    0.3686 O.3     1  UNL1       -0.4456
     25 C           5.6412    9.2418    0.4679 C.3     1  UNL1        0.1191
     26 C           4.8969   10.5678    0.4641 C.ar    1  UNL1       -0.0103
     27 C           5.5774   11.7926    0.3209 C.ar    1  UNL1       -0.0554
     28 C           4.8965   13.0087    0.4768 C.ar    1  UNL1       -0.0614
     29 C           3.5199   13.0174    0.6928 C.ar    1  UNL1       -0.0617
     30 C           2.8325   11.8139    0.8071 C.ar    1  UNL1       -0.0614
     31 C           3.5184   10.6038    0.7078 C.ar    1  UNL1       -0.0554
     32 C           2.7211   -0.1022    0.8932 C.ar    1  UNL1       -0.0183
     33 C           1.7251   -1.0366    0.4641 C.ar    1  UNL1       -0.0438
     34 C           0.4596   -0.5657    0.1388 C.ar    1  UNL1        0.0679
     35 C          -0.7507   -1.4024   -0.0018 C.ar    1  UNL1        0.2348
     36 O          -0.6676   -2.6228   -0.0724 O.2     1  UNL1       -0.2831
     37 C          -2.0724   -0.6607    0.0930 C.ar    1  UNL1        0.2130
     38 O          -3.1859   -1.4598    0.3394 O.3     1  UNL1       -0.4488
     39 C          -4.4452   -0.9153    0.3083 C.ar    1  UNL1        0.1288
     40 C          -5.2175   -0.9825    1.4650 C.ar    1  UNL1       -0.0193
     41 C          -6.4790   -0.3850    1.4827 C.ar    1  UNL1       -0.0583
     42 C          -6.9013    0.3959    0.4052 C.ar    1  UNL1       -0.0615
     43 C          -6.1215    0.4702   -0.7449 C.ar    1  UNL1       -0.0583
     44 C          -4.9411   -0.2709   -0.8284 C.ar    1  UNL1       -0.0193
     45 H          -2.7206    2.7207    0.2204 H       1  UNL1        0.0309
     46 H          -3.7221    1.5263    1.0195 H       1  UNL1        0.0309
     47 H          -3.6888    1.7384   -0.7917 H       1  UNL1        0.0309
     48 H           1.0449    2.7284    0.0581 H       1  UNL1        0.0691
     49 H           5.3749    4.2588    1.3567 H       1  UNL1        0.0619
     50 H           6.5422    4.8260   -0.8437 H       1  UNL1        0.0337
     51 H           5.1350    4.3394   -1.7456 H       1  UNL1        0.0337
     52 H           8.4992    2.9659   -0.8333 H       1  UNL1        0.0810
     53 H           8.4895    0.4511   -0.7810 H       1  UNL1        0.1653
     54 H           6.5626   -1.6773   -0.7501 H       1  UNL1        0.0638
     55 H           4.1514   -2.0279   -1.2676 H       1  UNL1        0.0618
     56 H           2.7215   -0.1226   -1.9387 H       1  UNL1        0.0618
     57 H           3.5345    2.1605   -1.7464 H       1  UNL1        0.0624
     58 H           3.4517    6.0958    0.2473 H       1  UNL1        0.1529
     59 H           6.3440    9.2141   -0.3731 H       1  UNL1        0.0749
     60 H           6.1914    9.1786    1.4162 H       1  UNL1        0.0749
     61 H           6.6430   11.8209    0.0987 H       1  UNL1        0.0621
     62 H           5.4373   13.9526    0.4445 H       1  UNL1        0.0618
     63 H           2.9816   13.9582    0.7735 H       1  UNL1        0.0618
     64 H           1.7629   11.8074    0.9953 H       1  UNL1        0.0618
     65 H           2.9634    9.6779    0.8290 H       1  UNL1        0.0621
     66 H           3.7129   -0.4932    1.1163 H       1  UNL1        0.0654
     67 H           1.9504   -2.0966    0.3206 H       1  UNL1        0.0627
     68 H          -4.8303   -1.4685    2.3565 H       1  UNL1        0.0654
     69 H          -7.1272   -0.5111    2.3448 H       1  UNL1        0.0619
     70 H          -7.8359    0.9477    0.4637 H       1  UNL1        0.0618
     71 H          -6.4063    1.1315   -1.5601 H       1  UNL1        0.0619
     72 H          -4.3258   -0.1976   -1.7224 H       1  UNL1        0.0654
@<TRIPOS>BOND
     1     1     2    1
     2     2     3   ar
     3     3     4   ar
     4     4     5   ar
     5     5     6   ar
     6     6     7    1
     7     7     8    1
     8     8     9    2
     9     8    10    1
    10    10    11    1
    11    11    12    1
    12    12    13   ar
    13    13    14   ar
    14    14    15   ar
    15    15    16   ar
    16    16    17   ar
    17    17    18   ar
    18    18    19   ar
    19    19    20   ar
    20    12    20   ar
    21    15    20   ar
    22    10    21    1
    23    21    22   am
    24    22    23    2
    25    22    24    1
    26    24    25    1
    27    25    26    1
    28    26    27   ar
    29    27    28   ar
    30    28    29   ar
    31    29    30   ar
    32    30    31   ar
    33    26    31   ar
    34     6    32   ar
    35    32    33   ar
    36    33    34   ar
    37     4    34   ar
    38    34    35   ar
    39    35    36    2
    40    35    37   ar
    41     2    37   ar
    42    37    38    1
    43    38    39    1
    44    39    40   ar
    45    40    41   ar
    46    41    42   ar
    47    42    43   ar
    48    43    44   ar
    49    39    44   ar
    50     1    45    1
    51     1    46    1
    52     1    47    1
    53     5    48    1
    54    10    49    1
    55    11    50    1
    56    11    51    1
    57    13    52    1
    58    14    53    1
    59    16    54    1
    60    17    55    1
    61    18    56    1
    62    19    57    1
    63    21    58    1
    64    25    59    1
    65    25    60    1
    66    27    61    1
    67    28    62    1
    68    29    63    1
    69    30    64    1
    70    31    65    1
    71    32    66    1
    72    33    67    1
    73    40    68    1
    74    41    69    1
    75    42    70    1
    76    43    71    1
    77    44    72    1
