REMARK  9 active torsions:
REMARK  status: ('A' for Active; 'I' for Inactive)
REMARK    1  A    between atoms: C_2  and  C_3 
REMARK       I    between atoms: C_2  and  N_30 
REMARK    2  A    between atoms: C_3  and  S_4 
REMARK    3  A    between atoms: C_5  and  S_4 
REMARK    4  A    between atoms: N_15  and  N_16 
REMARK       I    between atoms: N_16  and  C_17 
REMARK    5  A    between atoms: C_17  and  C_19 
REMARK    6  A    between atoms: C_19  and  C_20 
REMARK    7  A    between atoms: C_20  and  C_21 
REMARK    8  A    between atoms: N_30  and  C_31 
REMARK    9  A    between atoms: C_32  and  C_31 
ROOT
ATOM      1  C   UNL d   1       5.575 -12.530  -4.477  0.00  0.00     0.274 C 
ATOM      2  N   UNL d   1       4.202 -12.953  -4.670  0.00  0.00    -0.358 N 
ATOM      3  C   UNL d   1       3.337 -12.941  -3.587  0.00  0.00     0.046 A 
ATOM      4  C   UNL d   1       1.950 -12.921  -3.733  0.00  0.00     0.030 A 
ATOM      5  C   UNL d   1       1.109 -12.963  -2.606  0.00  0.00     0.002 A 
ATOM      6  C   UNL d   1       1.639 -13.051  -1.321  0.00  0.00     0.001 A 
ATOM      7  C   UNL d   1       3.012 -13.049  -1.160  0.00  0.00     0.019 A 
ATOM      8  C   UNL d   1       3.838 -12.970  -2.285  0.00  0.00     0.060 A 
ATOM      9  C   UNL d   1       5.285 -12.928  -2.082  0.00  0.00     0.277 C 
ATOM     10  O   UNL d   1       5.682 -12.716  -0.934  0.00  0.00    -0.266 OA
ATOM     11  N   UNL d   1       6.074 -13.069  -3.220  0.00  0.00    -0.221 N 
ATOM     12  H   UNL d   1       3.830 -12.965  -5.610  0.00  0.00     0.162 HD
ENDROOT
BRANCH  11  13
ATOM     13  N   UNL d   1       7.500 -13.310  -3.117  0.00  0.00    -0.262 N 
ATOM     14  C   UNL d   1       7.997 -14.000  -2.015  0.00  0.00     0.236 C 
ATOM     15  O   UNL d   1       7.365 -14.377  -1.035  0.00  0.00    -0.272 OA
ATOM     16  H   UNL d   1       7.998 -13.373  -4.002  0.00  0.00     0.190 HD
BRANCH  14  17
ATOM     17  C   UNL d   1       9.457 -14.353  -2.068  0.00  0.00     0.109 C 
BRANCH  17  18
ATOM     18  C   UNL d   1       9.843 -14.850  -0.659  0.00  0.00     0.046 C 
BRANCH  18  19
ATOM     19  C   UNL d   1      11.249 -15.300  -0.530  0.00  0.00    -0.050 A 
ATOM     20  C   UNL d   1      11.892 -15.551   0.613  0.00  0.00    -0.006 A 
ATOM     21  C   UNL d   1      11.530 -15.503   1.990  0.00  0.00     0.014 A 
ATOM     22  C   UNL d   1      13.242 -15.957   0.187  0.00  0.00     0.038 A 
ATOM     23  C   UNL d   1      12.460 -15.827   2.901  0.00  0.00     0.001 A 
ATOM     24  C   UNL d   1      13.808 -16.218   2.510  0.00  0.00     0.002 A 
ATOM     25  C   UNL d   1      14.222 -16.293   1.230  0.00  0.00     0.030 A 
ATOM     26  N   UNL d   1      13.373 -15.952  -1.085  0.00  0.00    -0.385 N 
ATOM     27  C   UNL d   1      12.115 -15.543  -1.721  0.00  0.00     0.155 A 
ATOM     28  H   UNL d   1      14.235 -16.193  -1.567  0.00  0.00     0.160 HD
ENDBRANCH  18  19
ENDBRANCH  17  18
ENDBRANCH  14  17
ENDBRANCH  11  13
BRANCH   1  29
ATOM     29  S   UNL d   1       5.718 -10.729  -4.723  0.00  0.00    -0.112 SA
BRANCH  29  30
ATOM     30  C   UNL d   1       6.402 -10.098  -3.141  0.00  0.00     0.180 C 
BRANCH  30  31
ATOM     31  C   UNL d   1       6.531  -8.565  -3.149  0.00  0.00     0.227 C 
ATOM     32  O   UNL d   1       6.199  -7.845  -4.089  0.00  0.00    -0.273 OA
ATOM     33  N   UNL d   1       7.064  -7.965  -2.034  0.00  0.00    -0.358 N 
ATOM     34  H   UNL d   1       7.161  -6.955  -2.106  0.00  0.00     0.162 HD
BRANCH  33  35
ATOM     35  C   UNL d   1       7.554  -8.622  -0.835  0.00  0.00     0.154 C 
BRANCH  35  36
ATOM     36  C   UNL d   1       8.211  -7.661   0.174  0.00  0.00     0.139 C 
ATOM     37  C   UNL d   1       8.848  -8.425   1.328  0.00  0.00     0.035 C 
ATOM     38  C   UNL d   1      10.272  -8.617   0.867  0.00  0.00     0.029 C 
ATOM     39  C   UNL d   1      10.536  -7.363   0.066  0.00  0.00     0.168 C 
ATOM     40  O   UNL d   1       9.278  -6.936  -0.470  0.00  0.00    -0.384 OA
ENDBRANCH  35  36
ENDBRANCH  33  35
ENDBRANCH  30  31
ENDBRANCH  29  30
ENDBRANCH   1  29
TORSDOF 9
