REMARK  7 active torsions:
REMARK  status: ('A' for Active; 'I' for Inactive)
REMARK    1  A    between atoms: C_5  and  C_6 
REMARK    2  A    between atoms: C_6  and  C_7 
REMARK    3  A    between atoms: C_6  and  N_14 
REMARK       I    between atoms: C_7  and  N_9 
REMARK    4  A    between atoms: N_9  and  C_10 
REMARK       I    between atoms: N_14  and  C_15 
REMARK    5  A    between atoms: N_14  and  C_26 
REMARK    6  A    between atoms: C_15  and  C_17 
REMARK    7  A    between atoms: C_21  and  N_22 
ROOT
ATOM      1  N   UNL d   1      -2.117  -3.262   0.108  0.00  0.00    -0.296 N 
ATOM      2  C   UNL d   1      -0.797  -3.900   0.201  0.00  0.00     0.259 C 
ATOM      3  O   UNL d   1      -0.632  -5.125  -0.025  0.00  0.00    -0.267 OA
ENDROOT
BRANCH   1   4
ATOM      4  C   UNL d   1      -2.499  -1.726  -0.138  0.00  0.00     0.219 C 
BRANCH   4   5
ATOM      5  C   UNL d   1      -1.355  -0.722  -0.249  0.00  0.00    -0.020 C 
ATOM      6  C   UNL d   1      -0.324  -1.136  -1.058  0.00  0.00     0.011 C 
ATOM      7  C   UNL d   1       0.867  -0.433  -1.089  0.00  0.00     0.007 C 
ATOM      8  C   UNL d   1       1.019   0.821  -0.537  0.00  0.00    -0.061 C 
ATOM      9  C   UNL d   1       2.368   1.464  -0.414  0.00  0.00     0.048 C 
ATOM     10  C   UNL d   1      -0.136   1.411  -0.071  0.00  0.00     0.014 C 
ATOM     11  C   UNL d   1      -1.315   0.643   0.105  0.00  0.00    -0.053 C 
ATOM     12  C   UNL d   1      -2.540   1.421   0.446  0.00  0.00     0.049 C 
ENDBRANCH   4   5
BRANCH   4  13
ATOM     13  C   UNL d   1      -3.221  -1.463  -1.515  0.00  0.00     0.246 C 
ATOM     14  O   UNL d   1      -3.126  -2.253  -2.447  0.00  0.00    -0.271 OA
ATOM     15  N   UNL d   1      -3.849  -0.234  -1.657  0.00  0.00    -0.351 N 
ATOM     16  H   UNL d   1      -3.886   0.414  -0.906  0.00  0.00     0.163 HD
BRANCH  15  17
ATOM     17  C   UNL d   1      -4.551   0.243  -2.833  0.00  0.00     0.022 C 
ATOM     18  C   UNL d   1      -3.708   0.003  -4.085  0.00  0.00     0.037 C 
ATOM     19  C   UNL d   1      -5.899  -0.468  -2.829  0.00  0.00     0.037 C 
ATOM     20  C   UNL d   1      -4.785   1.770  -2.712  0.00  0.00     0.037 C 
ENDBRANCH  15  17
ENDBRANCH   4  13
ENDBRANCH   1   4
BRANCH   1  21
ATOM     21  C   UNL d   1      -3.285  -4.207   0.046  0.00  0.00     0.040 A 
ATOM     22  C   UNL d   1      -3.260  -5.404   0.779  0.00  0.00     0.030 A 
ATOM     23  C   UNL d   1      -4.249  -6.397   0.631  0.00  0.00     0.004 A 
ATOM     24  C   UNL d   1      -5.329  -6.211  -0.224  0.00  0.00     0.024 A 
ATOM     25  C   UNL d   1      -5.416  -5.022  -0.915  0.00  0.00     0.036 A 
ATOM     26 CL   UNL d   1      -6.692  -4.773  -2.053  0.00  0.00    -0.084 Cl
ATOM     27  C   UNL d   1      -4.446  -4.025  -0.733  0.00  0.00     0.053 A 
ENDBRANCH   1  21
BRANCH   2  28
ATOM     28  C   UNL d   1       0.528  -3.231   0.542  0.00  0.00     0.035 A 
ATOM     29  C   UNL d   1       1.671  -3.405  -0.301  0.00  0.00     0.017 A 
ATOM     30  C   UNL d   1       2.849  -2.636  -0.117  0.00  0.00     0.003 A 
ATOM     31  C   UNL d   1       2.890  -1.649   0.891  0.00  0.00     0.036 A 
ATOM     32  C   UNL d   1       1.742  -1.439   1.694  0.00  0.00     0.103 A 
ATOM     33  C   UNL d   1       0.603  -2.269   1.556  0.00  0.00     0.053 A 
BRANCH  32  34
ATOM     34  N   UNL d   1       1.555  -0.149   2.425  0.00  0.00    -0.116 N 
ATOM     35  O   UNL d   1       2.525   0.599   2.569  0.00  0.00    -0.532 OA
ATOM     36  O   UNL d   1       0.402   0.124   2.821  0.00  0.00    -0.532 OA
ENDBRANCH  32  34
ENDBRANCH   2  28
TORSDOF 7
