REMARK  11 active torsions:
REMARK  status: ('A' for Active; 'I' for Inactive)
REMARK    1  A    between atoms: C_6  and  O_7 
REMARK    2  A    between atoms: O_7  and  C_8 
REMARK    3  A    between atoms: C_10  and  C_8 
REMARK    4  A    between atoms: C_10  and  N_21 
REMARK    5  A    between atoms: C_10  and  C_11 
REMARK    6  A    between atoms: C_11  and  C_12 
REMARK       I    between atoms: N_21  and  C_22 
REMARK    7  A    between atoms: C_22  and  O_24 
REMARK    8  A    between atoms: O_24  and  C_25 
REMARK    9  A    between atoms: C_25  and  C_26 
REMARK   10  A    between atoms: C_37  and  O_38 
REMARK   11  A    between atoms: O_38  and  C_39 
ROOT
ATOM      1  C   UNL d   1       4.791   4.540   0.271  0.00  0.00     0.191 C 
ENDROOT
BRANCH   1   2
ATOM      2  N   UNL d   1       4.361   5.936   0.324  0.00  0.00    -0.323 N 
ATOM      3  C   UNL d   1       5.281   6.935   0.511  0.00  0.00     0.361 C 
ATOM      4  O   UNL d   1       6.478   6.742   0.720  0.00  0.00    -0.238 OA
ATOM      5  H   UNL d   1       3.388   6.190   0.216  0.00  0.00     0.165 HD
BRANCH   3   6
ATOM      6  O   UNL d   1       4.717   8.152   0.380  0.00  0.00    -0.299 OA
BRANCH   6   7
ATOM      7  C   UNL d   1       5.643   9.257   0.477  0.00  0.00     0.219 C 
BRANCH   7   8
ATOM      8  C   UNL d   1       4.899  10.578   0.468  0.00  0.00    -0.034 A 
ATOM      9  C   UNL d   1       5.579  11.800   0.322  0.00  0.00     0.009 A 
ATOM     10  C   UNL d   1       4.896  13.013   0.476  0.00  0.00     0.001 A 
ATOM     11  C   UNL d   1       3.519  13.021   0.693  0.00  0.00     0.000 A 
ATOM     12  C   UNL d   1       2.831  11.818   0.807  0.00  0.00     0.001 A 
ATOM     13  C   UNL d   1       3.519  10.611   0.709  0.00  0.00     0.009 A 
ENDBRANCH   7   8
ENDBRANCH   6   7
ENDBRANCH   3   6
ENDBRANCH   1   2
BRANCH   1  14
ATOM     14  C   UNL d   1       3.633   3.494   0.257  0.00  0.00     0.076 C 
BRANCH  14  15
ATOM     15  C   UNL d   1       4.078   2.040   0.434  0.00  0.00    -0.028 A 
ATOM     16  C   UNL d   1       5.359   1.570   0.687  0.00  0.00     0.096 A 
ATOM     17  N   UNL d   1       5.370   0.208   0.589  0.00  0.00    -0.365 N 
ATOM     18  C   UNL d   1       4.099  -0.251   0.365  0.00  0.00     0.042 A 
ATOM     19  H   UNL d   1       6.199  -0.368   0.647  0.00  0.00     0.165 HD
ATOM     20  C   UNL d   1       3.635  -1.564   0.235  0.00  0.00     0.030 A 
ATOM     21  C   UNL d   1       3.269   0.869   0.257  0.00  0.00    -0.002 A 
ATOM     22  C   UNL d   1       2.273  -1.739  -0.015  0.00  0.00     0.002 A 
ATOM     23  C   UNL d   1       1.418  -0.645  -0.136  0.00  0.00     0.001 A 
ATOM     24  C   UNL d   1       1.903   0.661  -0.010  0.00  0.00     0.014 A 
ENDBRANCH  14  15
ENDBRANCH   1  14
BRANCH   1  25
ATOM     25  C   UNL d   1       5.639   4.250  -0.976  0.00  0.00     0.287 C 
ATOM     26  O   UNL d   1       5.742   3.105  -1.395  0.00  0.00    -0.262 OA
BRANCH  25  27
ATOM     27  O   UNL d   1       6.295   5.342  -1.543  0.00  0.00    -0.277 OA
BRANCH  27  28
ATOM     28  C   UNL d   1       7.197   5.130  -2.610  0.00  0.00     0.082 A 
ATOM     29  C   UNL d   1       7.464   3.874  -3.117  0.00  0.00     0.075 A 
ATOM     30  C   UNL d   1       8.353   3.682  -4.140  0.00  0.00     0.092 A 
ATOM     31  O   UNL d   1       8.451   2.386  -4.494  0.00  0.00    -0.311 OA
ATOM     32  C   UNL d   1       9.033   4.723  -4.707  0.00  0.00     0.051 A 
ATOM     33  C   UNL d   1       9.459   1.997  -5.320  0.00  0.00     0.087 C 
ATOM     34  C   UNL d   1       9.459   0.498  -5.330  0.00  0.00     0.080 C 
ATOM     35  C   UNL d   1      10.262   2.868  -5.981  0.00  0.00     0.156 C 
ATOM     36  C   UNL d   1      10.021   4.356  -5.742  0.00  0.00     0.221 C 
ATOM     37  O   UNL d   1      10.627   5.235  -6.343  0.00  0.00    -0.284 OA
ATOM     38  C   UNL d   1       8.762   6.021  -4.244  0.00  0.00     0.021 A 
ATOM     39  C   UNL d   1       7.850   6.223  -3.179  0.00  0.00     0.038 A 
BRANCH  35  40
ATOM     40  O   UNL d   1      11.318   2.566  -6.843  0.00  0.00    -0.304 OA
BRANCH  40  41
ATOM     41  C   UNL d   1      11.544   1.270  -7.244  0.00  0.00     0.076 C 
ATOM     42  C   UNL d   1      12.755   0.669  -6.903  0.00  0.00     0.037 C 
ATOM     43  C   UNL d   1      12.987  -0.663  -7.260  0.00  0.00     0.003 C 
ATOM     44  C   UNL d   1      11.965  -1.429  -7.823  0.00  0.00     0.000 C 
ATOM     45  C   UNL d   1      10.755  -0.828  -8.154  0.00  0.00     0.003 C 
ATOM     46  C   UNL d   1      10.585   0.545  -7.957  0.00  0.00     0.037 C 
ENDBRANCH  40  41
ENDBRANCH  35  40
ENDBRANCH  27  28
ENDBRANCH  25  27
ENDBRANCH   1  25
TORSDOF 11
