REMARK  5 active torsions:
REMARK  status: ('A' for Active; 'I' for Inactive)
REMARK    1  A    between atoms: O_2  and  C_3 
REMARK    2  A    between atoms: C_8  and  C_9 
REMARK       I    between atoms: C_9  and  N_11 
REMARK    3  A    between atoms: N_11  and  C_12 
REMARK    4  A    between atoms: C_12  and  N_14 
REMARK    5  A    between atoms: N_14  and  C_15 
ROOT
ATOM      1  C   UNL d   1      -2.554   0.588  -2.906  0.00  0.00     0.055 A 
ATOM      2  C   UNL d   1      -2.881   1.840  -3.466  0.00  0.00     0.031 A 
ATOM      3  C   UNL d   1      -4.143   2.054  -4.055  0.00  0.00     0.002 A 
ATOM      4  C   UNL d   1      -5.058   1.010  -4.159  0.00  0.00     0.002 A 
ATOM      5  C   UNL d   1      -4.763  -0.219  -3.579  0.00  0.00     0.025 A 
ATOM      6  C   UNL d   1      -3.542  -0.424  -2.916  0.00  0.00     0.071 A 
ATOM      7  C   UNL d   1      -3.357  -1.680  -2.253  0.00  0.00     0.102 C 
ATOM      8  N   UNL d   1      -3.197  -2.711  -1.725  0.00  0.00    -0.191 NA
ENDROOT
BRANCH   1   9
ATOM      9  N   UNL d   1      -1.222   0.359  -2.386  0.00  0.00    -0.332 N 
ATOM     10  H   UNL d   1      -0.860   1.118  -1.814  0.00  0.00     0.168 HD
BRANCH   9  11
ATOM     11  C   UNL d   1      -0.394  -0.708  -2.841  0.00  0.00     0.179 C 
ATOM     12  S   UNL d   1      -0.798  -1.739  -4.115  0.00  0.00    -0.040 SA
BRANCH  11  13
ATOM     13  N   UNL d   1       0.845  -0.836  -2.195  0.00  0.00    -0.299 N 
ATOM     14  C   UNL d   1       1.505  -2.063  -1.937  0.00  0.00     0.260 C 
ATOM     15  O   UNL d   1       1.169  -3.143  -2.418  0.00  0.00    -0.267 OA
ATOM     16  H   UNL d   1       1.274  -0.003  -1.813  0.00  0.00     0.171 HD
BRANCH  14  17
ATOM     17  C   UNL d   1       2.667  -2.143  -0.998  0.00  0.00     0.065 A 
ATOM     18  C   UNL d   1       3.443  -3.333  -1.064  0.00  0.00     0.020 A 
ATOM     19  C   UNL d   1       4.591  -3.518  -0.293  0.00  0.00     0.001 A 
ATOM     20  C   UNL d   1       4.996  -2.501   0.554  0.00  0.00     0.003 A 
ATOM     21  C   UNL d   1       4.188  -1.363   0.709  0.00  0.00     0.038 A 
ATOM     22  C   UNL d   1       3.013  -1.178  -0.054  0.00  0.00     0.084 A 
BRANCH  22  23
ATOM     23  O   UNL d   1       2.373   0.023   0.090  0.00  0.00    -0.355 OA
ATOM     24  C   UNL d   1       0.992  -0.019   0.460  0.00  0.00     0.210 C 
ENDBRANCH  22  23
ENDBRANCH  14  17
ENDBRANCH  11  13
ENDBRANCH   9  11
ENDBRANCH   1   9
TORSDOF 5
