@<TRIPOS>MOLECULE
*****
 65 67 0 0 0
SMALL
GASTEIGER

@<TRIPOS>ATOM
      1 C           2.5213    0.0955    1.5302 C.3     1  UNL1       -0.0605
      2 C           3.9951   -0.0025    1.7828 C.3     1  UNL1       -0.0153
      3 C           4.6448   -1.2070    1.1530 C.3     1  UNL1       -0.0317
      4 N           6.1389   -1.3106    1.2971 N.4     1  UNL1        0.2405
      5 C           6.8175   -0.9553    2.6422 C.3     1  UNL1        0.0011
      6 C           6.6504    0.4638    3.1390 C.ar    1  UNL1        0.0813
      7 C           5.7494    0.9579    4.1640 C.ar    1  UNL1        0.0723
      8 C           4.7053    0.1965    4.9684 C.3     1  UNL1       -0.0200
      9 N           5.7749    2.2993    4.2346 N.ar    1  UNL1       -0.1680
     10 N           6.6542    2.7053    3.2827 N.ar    1  UNL1       -0.1995
     11 C           6.8315    4.0829    2.9320 C.ar    1  UNL1        0.0691
     12 C           7.3366    4.9799    3.8795 C.ar    1  UNL1       -0.0361
     13 C           7.6427    6.2946    3.4886 C.ar    1  UNL1       -0.0598
     14 C           7.4747    6.7217    2.1727 C.ar    1  UNL1       -0.0616
     15 C           6.9608    5.8371    1.2283 C.ar    1  UNL1       -0.0598
     16 C           6.6340    4.5364    1.6212 C.ar    1  UNL1       -0.0361
     17 C           7.2584    1.6260    2.6316 C.ar    1  UNL1        0.2324
     18 O           8.1344    1.9048    1.6522 O.3     1  UNL1       -0.4338
     19 C           8.7093    0.9637    0.8450 C.ar    1  UNL1        0.1717
     20 C          10.0238    0.6151    1.1415 C.ar    1  UNL1       -0.0156
     21 C          10.6710   -0.4242    0.4753 C.ar    1  UNL1       -0.0581
     22 C           9.9819   -1.1397   -0.4989 C.ar    1  UNL1       -0.0581
     23 C           8.7559   -0.6713   -0.9137 C.ar    1  UNL1       -0.0163
     24 C           8.0935    0.3817   -0.2761 C.ar    1  UNL1        0.1622
     25 O           6.8253    0.5323   -0.7625 O.3     1  UNL1       -0.4914
     26 C           6.0027    1.5513   -0.2402 C.3     1  UNL1        0.0790
     27 C           6.6924   -2.6034    0.6479 C.3     1  UNL1       -0.0050
     28 C           6.2594   -2.8055   -0.8516 C.3     1  UNL1        0.0946
     29 O           4.8400   -2.9620   -0.9672 O.3     1  UNL1       -0.3865
     30 C           6.9064   -4.0395   -1.5008 C.3     1  UNL1       -0.0247
     31 C           8.4259   -4.0552   -1.5543 C.3     1  UNL1       -0.0627
     32 H           2.1762    1.0687    1.8953 H       1  UNL1        0.0232
     33 H           2.0141   -0.6920    2.0877 H       1  UNL1        0.0232
     34 H           2.3048    0.0213    0.4638 H       1  UNL1        0.0232
     35 H           4.1069   -0.1139    2.8339 H       1  UNL1        0.0314
     36 H           4.3864    0.9679    1.5129 H       1  UNL1        0.0314
     37 H           4.4521   -1.1182    0.0850 H       1  UNL1        0.0814
     38 H           4.2308   -2.1292    1.5638 H       1  UNL1        0.0814
     39 H           6.4719   -0.5926    0.6599 H       1  UNL1        0.2038
     40 H           7.8932   -1.1175    2.4869 H       1  UNL1        0.0869
     41 H           6.4948   -1.7053    3.3702 H       1  UNL1        0.0869
     42 H           4.7213   -0.8760    4.7286 H       1  UNL1        0.0293
     43 H           3.6860    0.5441    4.7269 H       1  UNL1        0.0293
     44 H           4.8243    0.2972    6.0473 H       1  UNL1        0.0293
     45 H           7.5559    4.6572    4.8891 H       1  UNL1        0.0639
     46 H           8.0368    6.9984    4.2225 H       1  UNL1        0.0618
     47 H           7.7363    7.7354    1.8765 H       1  UNL1        0.0618
     48 H           6.8150    6.1644    0.2021 H       1  UNL1        0.0618
     49 H           6.1811    3.9081    0.8683 H       1  UNL1        0.0639
     50 H          10.5668    1.1571    1.9197 H       1  UNL1        0.0655
     51 H          11.6999   -0.6790    0.6842 H       1  UNL1        0.0619
     52 H          10.4233   -2.0270   -0.9423 H       1  UNL1        0.0619
     53 H           8.2660   -1.1812   -1.7445 H       1  UNL1        0.0655
     54 H           4.9720    1.4254   -0.5857 H       1  UNL1        0.0660
     55 H           6.3781    2.5337   -0.4801 H       1  UNL1        0.0660
     56 H           5.9563    1.4347    0.8230 H       1  UNL1        0.0660
     57 H           6.3328   -3.4328    1.2601 H       1  UNL1        0.0840
     58 H           7.7795   -2.5473    0.7364 H       1  UNL1        0.0840
     59 H           6.4696   -1.9291   -1.4650 H       1  UNL1        0.0647
     60 H           4.5432   -3.7107   -0.4253 H       1  UNL1        0.2100
     61 H           6.5237   -4.1504   -2.5246 H       1  UNL1        0.0289
     62 H           6.5645   -4.9262   -0.9582 H       1  UNL1        0.0289
     63 H           8.8114   -3.2805   -2.2230 H       1  UNL1        0.0231
     64 H           8.7840   -5.0122   -1.9458 H       1  UNL1        0.0231
     65 H           8.8684   -3.9303   -0.5632 H       1  UNL1        0.0231
@<TRIPOS>UNITY_ATOM_ATTR
4 1
charge 1
@<TRIPOS>BOND
     1     1     2    1
     2     2     3    1
     3     3     4    1
     4     4     5    1
     5     5     6    1
     6     6     7   ar
     7     7     8    1
     8     7     9   ar
     9     9    10   ar
    10    10    11    1
    11    11    12   ar
    12    12    13   ar
    13    13    14   ar
    14    14    15   ar
    15    15    16   ar
    16    11    16   ar
    17    10    17   ar
    18     6    17   ar
    19    17    18    1
    20    18    19    1
    21    19    20   ar
    22    20    21   ar
    23    21    22   ar
    24    22    23   ar
    25    23    24   ar
    26    19    24   ar
    27    24    25    1
    28    25    26    1
    29     4    27    1
    30    28    30    1
    31    30    31    1
    32    28    29    1
    33    28    27    1
    34     1    32    1
    35     1    33    1
    36     1    34    1
    37     2    35    1
    38     2    36    1
    39     3    37    1
    40     3    38    1
    41     4    39    1
    42     5    40    1
    43     5    41    1
    44     8    42    1
    45     8    43    1
    46     8    44    1
    47    12    45    1
    48    13    46    1
    49    14    47    1
    50    15    48    1
    51    16    49    1
    52    20    50    1
    53    21    51    1
    54    22    52    1
    55    23    53    1
    56    26    54    1
    57    26    55    1
    58    26    56    1
    59    27    57    1
    60    27    58    1
    61    28    59    1
    62    29    60    1
    63    30    61    1
    64    30    62    1
    65    31    63    1
    66    31    64    1
    67    31    65    1
