REMARK  9 active torsions:
REMARK  status: ('A' for Active; 'I' for Inactive)
REMARK    1  A    between atoms: O_2  and  C_3 
REMARK    2  A    between atoms: C_3  and  C_5 
REMARK    3  A    between atoms: C_8  and  N_9 
REMARK    4  A    between atoms: N_9  and  C_10 
REMARK    5  A    between atoms: C_10  and  C_11 
REMARK       I    between atoms: C_11  and  N_13 
REMARK    6  A    between atoms: N_13  and  C_14 
REMARK    7  A    between atoms: C_17  and  C_18 
REMARK       I    between atoms: C_18  and  N_20 
REMARK    8  A    between atoms: N_20  and  C_21 
REMARK    9  A    between atoms: C_21  and  C_23 
ROOT
ATOM      1  C   UNL d   1      13.350  -0.915  -0.939  0.00  0.00     0.034 A 
ATOM      2  C   UNL d   1      14.217  -1.712  -1.691  0.00  0.00     0.030 A 
ATOM      3  C   UNL d   1      15.613  -1.553  -1.562  0.00  0.00     0.019 A 
ATOM      4  C   UNL d   1      16.163  -0.580  -0.704  0.00  0.00     0.032 A 
ATOM      5  C   UNL d   1      15.287   0.187   0.063  0.00  0.00     0.019 A 
ATOM      6  C   UNL d   1      13.901   0.022  -0.062  0.00  0.00     0.030 A 
ENDROOT
BRANCH   1   7
ATOM      7  N   UNL d   1      11.942  -1.079  -1.020  0.00  0.00    -0.326 N 
ATOM      8  C   UNL d   1      11.057   0.001  -0.955  0.00  0.00     0.239 C 
ATOM      9  O   UNL d   1      11.414   1.180  -0.895  0.00  0.00    -0.271 OA
ATOM     10  H   UNL d   1      11.595  -1.999  -1.263  0.00  0.00     0.169 HD
BRANCH   8  11
ATOM     11  C   UNL d   1       9.554  -0.357  -0.992  0.00  0.00     0.223 C 
BRANCH  11  12
ATOM     12  N   UNL d   1       8.733   0.864  -1.083  0.00  0.00    -0.381 N 
ATOM     13  H   UNL d   1       9.251   1.727  -0.909  0.00  0.00     0.160 HD
BRANCH  12  14
ATOM     14  C   UNL d   1       7.356   0.880  -0.930  0.00  0.00     0.028 A 
ATOM     15  C   UNL d   1       6.660   2.098  -0.862  0.00  0.00     0.030 A 
ATOM     16  C   UNL d   1       5.260   2.139  -0.702  0.00  0.00     0.020 A 
ATOM     17  C   UNL d   1       4.514   0.955  -0.689  0.00  0.00     0.039 A 
ATOM     18  C   UNL d   1       5.186  -0.262  -0.801  0.00  0.00     0.020 A 
ATOM     19  C   UNL d   1       6.585  -0.289  -0.927  0.00  0.00     0.030 A 
BRANCH  17  20
ATOM     20  C   UNL d   1       3.030   1.016  -0.713  0.00  0.00     0.292 C 
ATOM     21  O   UNL d   1       2.416   1.869  -1.353  0.00  0.00    -0.259 OA
BRANCH  20  22
ATOM     22  O   UNL d   1       2.468   0.040   0.041  0.00  0.00    -0.323 OA
ATOM     23  C   UNL d   1       1.032   0.054   0.045  0.00  0.00     0.213 C 
ENDBRANCH  20  22
ENDBRANCH  17  20
ENDBRANCH  12  14
ENDBRANCH  11  12
ENDBRANCH   8  11
ENDBRANCH   1   7
BRANCH   4  24
ATOM     24  C   UNL d   1      17.653  -0.385  -0.686  0.00  0.00     0.252 C 
ATOM     25  O   UNL d   1      18.355  -1.122  -1.373  0.00  0.00    -0.268 OA
ATOM     26  N   UNL d   1      18.180   0.646   0.075  0.00  0.00    -0.349 N 
ATOM     27  H   UNL d   1      17.587   1.242   0.631  0.00  0.00     0.163 HD
BRANCH  26  28
ATOM     28  C   UNL d   1      19.612   0.976   0.087  0.00  0.00     0.114 C 
ATOM     29  C   UNL d   1      20.100   1.338  -1.323  0.00  0.00     0.037 C 
BRANCH  28  30
ATOM     30  C   UNL d   1      19.853   2.120   1.077  0.00  0.00    -0.036 A 
ATOM     31  C   UNL d   1      19.777   1.892   2.460  0.00  0.00     0.009 A 
ATOM     32  C   UNL d   1      19.753   2.970   3.353  0.00  0.00     0.001 A 
ATOM     33  C   UNL d   1      19.898   4.277   2.890  0.00  0.00     0.000 A 
ATOM     34  C   UNL d   1      20.059   4.514   1.533  0.00  0.00     0.001 A 
ATOM     35  C   UNL d   1      20.036   3.446   0.640  0.00  0.00     0.009 A 
ENDBRANCH  28  30
ENDBRANCH  26  28
ENDBRANCH   4  24
TORSDOF 9
