@<TRIPOS>MOLECULE
*****
 62 65 0 0 0
SMALL
GASTEIGER

@<TRIPOS>ATOM
      1 C           0.9054   -0.0670    0.0686 C.3     1  UNL1       -0.0307
      2 C           2.4318   -0.0792    0.0990 C.3     1  UNL1        0.0870
      3 O           2.9738    0.6127   -1.0135 O.3     1  UNL1       -0.4886
      4 C           2.7714    1.9643   -1.0157 C.ar    1  UNL1        0.1623
      5 C           2.9829    2.4982   -2.2773 C.ar    1  UNL1       -0.0077
      6 C           2.5977    3.8105   -2.5576 C.ar    1  UNL1       -0.0018
      7 C           2.6807    4.1419   -4.0643 C.2     1  UNL1        0.0529
      8 N           2.2921    5.1584   -4.9886 N.2     1  UNL1       -0.1874
      9 N           2.9975    6.8244   -5.4846 N.am    1  UNL1       -0.2016
     10 C           2.9335    8.2590   -5.5633 C.2     1  UNL1        0.2854
     11 O           2.6983    9.0201   -4.6059 O.2     1  UNL1       -0.2666
     12 C           3.3333    8.7831   -6.9741 C.ar    1  UNL1        0.1773
     13 N           3.9418    9.9819   -7.2755 N.ar    1  UNL1       -0.1239
     14 N           4.0814   10.0904   -8.6085 N.ar    1  UNL1       -0.0581
     15 N           3.4684    9.0411   -9.2110 N.ar    1  UNL1       -0.1868
     16 C           3.1298    8.8985  -10.5991 C.ar    1  UNL1        0.2404
     17 N           4.0513    8.9424  -11.5628 N.ar    1  UNL1       -0.0272
     18 O           3.3465    8.5465  -12.7196 O.2     1  UNL1       -0.2388
     19 N           2.0190    8.2356  -12.4253 N.ar    1  UNL1       -0.0319
     20 C           1.8885    8.4694  -11.1249 C.ar    1  UNL1        0.2064
     21 N           0.7509    8.2746  -10.4244 N.pl3   1  UNL1       -0.3375
     22 C           3.0873    8.1541   -8.2068 C.ar    1  UNL1        0.1234
     23 C           2.5629    6.8224   -8.5801 C.3     1  UNL1        0.0139
     24 N           2.3457    6.0039   -7.3928 N.4     1  UNL1        0.2396
     25 C           0.9640    6.8337   -6.5548 C.3     1  UNL1       -0.0315
     26 C           0.4968    6.2517   -5.1943 C.3     1  UNL1       -0.0125
     27 C           1.5887    6.5376   -3.6779 C.3     1  UNL1       -0.0481
     28 C           3.5653    6.1729   -3.6672 C.3     1  UNL1       -0.0481
     29 C           4.3874    5.1959   -5.2496 C.3     1  UNL1       -0.0125
     30 C           4.0793    5.6575   -6.9105 C.3     1  UNL1       -0.0315
     31 C           2.2647    4.6378   -1.4697 C.ar    1  UNL1       -0.0494
     32 C           2.0717    4.1302   -0.1963 C.ar    1  UNL1       -0.0159
     33 C           2.3016    2.7868    0.0216 C.ar    1  UNL1        0.1585
     34 O           2.0376    2.3020    1.2681 O.3     1  UNL1       -0.5033
     35 H           0.5097   -0.5457    0.9646 H       1  UNL1        0.0262
     36 H           0.5402   -0.5754   -0.8280 H       1  UNL1        0.0262
     37 H           0.4693    0.9369    0.0109 H       1  UNL1        0.0262
     38 H           2.7862   -1.1102    0.0318 H       1  UNL1        0.0694
     39 H           2.8781    0.3057    1.0188 H       1  UNL1        0.0694
     40 H           3.3831    1.8338   -3.0449 H       1  UNL1        0.0662
     41 H           3.4413    3.3802   -4.3850 H       1  UNL1        0.0851
     42 H           3.9896    6.9044   -5.2964 H       1  UNL1        0.1776
     43 H          -0.1112    8.0906  -10.9357 H       1  UNL1        0.1439
     44 H           0.5917    8.6751   -9.5060 H       1  UNL1        0.1439
     45 H           3.2580    6.2864   -9.2322 H       1  UNL1        0.0883
     46 H           1.5929    6.8432   -9.0401 H       1  UNL1        0.0883
     47 H           1.9463    5.0769   -7.5624 H       1  UNL1        0.2037
     48 H           0.2154    6.9864   -7.3363 H       1  UNL1        0.0814
     49 H           1.1713    7.8792   -6.3543 H       1  UNL1        0.0814
     50 H           0.3469    5.1680   -5.4205 H       1  UNL1        0.0317
     51 H          -0.5263    6.5566   -4.9604 H       1  UNL1        0.0317
     52 H           1.0599    5.7775   -3.0791 H       1  UNL1        0.0267
     53 H           1.3053    7.4884   -3.2126 H       1  UNL1        0.0267
     54 H           3.9484    5.7573   -2.7376 H       1  UNL1        0.0267
     55 H           4.0131    7.1848   -3.5869 H       1  UNL1        0.0267
     56 H           3.8897    4.2714   -5.6503 H       1  UNL1        0.0317
     57 H           5.3501    4.7619   -5.0167 H       1  UNL1        0.0317
     58 H           4.3850    4.9041   -7.6395 H       1  UNL1        0.0814
     59 H           4.6500    6.5751   -7.0910 H       1  UNL1        0.0814
     60 H           2.1612    5.7142   -1.5374 H       1  UNL1        0.0625
     61 H           1.7098    4.7900    0.5878 H       1  UNL1        0.0655
     62 H           1.6090    2.9744    1.8197 H       1  UNL1        0.2923
@<TRIPOS>UNITY_ATOM_ATTR
24 1
charge 1
@<TRIPOS>BOND
     1     1     2    1
     2     2     3    1
     3     3     4    1
     4     4     5   ar
     5     5     6   ar
     6     6     7    1
     7     7     8    2
     8     8     9    1
     9     9    10   am
    10    10    11    2
    11    10    12    1
    12    12    13   ar
    13    13    14   ar
    14    14    15   ar
    15    15    16    1
    16    16    17   ar
    17    17    18   ar
    18    18    19   ar
    19    19    20   ar
    20    16    20   ar
    21    20    21    1
    22    15    22   ar
    23    12    22   ar
    24    22    23    1
    25    23    24    1
    26    24    25    1
    27    25    26    1
    28    26    27    1
    29    27    28    1
    30    28    29    1
    31    29    30    1
    32    24    30    1
    33     6    31   ar
    34    31    32   ar
    35    32    33   ar
    36     4    33   ar
    37    33    34    1
    38     1    35    1
    39     1    36    1
    40     1    37    1
    41     2    38    1
    42     2    39    1
    43     5    40    1
    44     7    41    1
    45     9    42    1
    46    21    43    1
    47    21    44    1
    48    23    45    1
    49    23    46    1
    50    24    47    1
    51    25    48    1
    52    25    49    1
    53    26    50    1
    54    26    51    1
    55    27    52    1
    56    27    53    1
    57    28    54    1
    58    28    55    1
    59    29    56    1
    60    29    57    1
    61    30    58    1
    62    30    59    1
    63    31    60    1
    64    32    61    1
    65    34    62    1
