REMARK  6 active torsions:
REMARK  status: ('A' for Active; 'I' for Inactive)
REMARK    1  A    between atoms: C_2  and  C_16 
REMARK    2  A    between atoms: N_3  and  N_4 
REMARK       I    between atoms: N_4  and  C_5 
REMARK    3  A    between atoms: C_5  and  C_7 
REMARK    4  A    between atoms: C_7  and  O_8 
REMARK    5  A    between atoms: O_8  and  C_9 
REMARK    6  A    between atoms: C_19  and  O_20 
ROOT
ATOM      1  N   UNL d   1       2.566   1.411   1.926  0.00  0.00    -0.245 N 
ATOM      2  C   UNL d   1       3.337   2.098   2.872  0.00  0.00     0.261 C 
ATOM      3  O   UNL d   1       4.572   2.101   2.867  0.00  0.00    -0.269 OA
ATOM      4  H   UNL d   1       1.558   1.469   1.954  0.00  0.00     0.192 HD
ENDROOT
BRANCH   1   5
ATOM      5  N   UNL d   1       3.194   0.704   0.914  0.00  0.00    -0.176 NA
ATOM      6  C   UNL d   1       2.520   0.094  -0.022  0.00  0.00     0.061 C 
ATOM      7  C   UNL d   1       1.007   0.034  -0.106  0.00  0.00     0.073 C 
BRANCH   6   8
ATOM      8  C   UNL d   1       3.275  -0.618  -1.130  0.00  0.00    -0.010 A 
ATOM      9  C   UNL d   1       2.849  -0.528  -2.467  0.00  0.00     0.016 A 
ATOM     10  C   UNL d   1       3.592  -1.113  -3.507  0.00  0.00     0.037 A 
ATOM     11  C   UNL d   1       4.757  -1.809  -3.209  0.00  0.00     0.065 A 
ATOM     12  C   UNL d   1       5.171  -1.946  -1.889  0.00  0.00     0.037 A 
ATOM     13  C   UNL d   1       4.438  -1.348  -0.849  0.00  0.00     0.016 A 
BRANCH  11  14
ATOM     14  O   UNL d   1       5.535  -2.369  -4.180  0.00  0.00    -0.361 OA
ATOM     15  H   UNL d   1       5.178  -2.151  -5.056  0.00  0.00     0.217 HD
ENDBRANCH  11  14
ENDBRANCH   6   8
ENDBRANCH   1   5
BRANCH   2  16
ATOM     16  C   UNL d   1       2.524   2.854   3.951  0.00  0.00     0.280 C 
BRANCH  16  17
ATOM     17  O   UNL d   1       3.408   3.532   4.861  0.00  0.00    -0.342 OA
BRANCH  17  18
ATOM     18  C   UNL d   1       2.810   4.233   5.872  0.00  0.00     0.069 A 
ATOM     19  C   UNL d   1       1.812   3.699   6.686  0.00  0.00     0.038 A 
ATOM     20  C   UNL d   1       1.227   4.482   7.687  0.00  0.00     0.026 A 
ATOM     21  C   UNL d   1       1.662   5.790   7.893  0.00  0.00     0.034 A 
ATOM     22 CL   UNL d   1       0.893   6.767   9.082  0.00  0.00    -0.084 Cl
ATOM     23  C   UNL d   1       2.713   6.305   7.138  0.00  0.00     0.026 A 
ATOM     24  C   UNL d   1       3.296   5.518   6.137  0.00  0.00     0.038 A 
ENDBRANCH  17  18
ENDBRANCH  16  17
ENDBRANCH   2  16
TORSDOF 6
