REMARK  11 active torsions:
REMARK  status: ('A' for Active; 'I' for Inactive)
REMARK    1  A    between atoms: O_2  and  C_3 
REMARK    2  A    between atoms: C_6  and  C_7 
REMARK    3  A    between atoms: C_7  and  C_8 
REMARK    4  A    between atoms: C_8  and  N_9 
REMARK       I    between atoms: N_9  and  C_10 
REMARK    5  A    between atoms: C_10  and  C_12 
REMARK    6  A    between atoms: C_12  and  C_13 
REMARK    7  A    between atoms: C_13  and  C_14 
REMARK       I    between atoms: C_14  and  N_16 
REMARK    8  A    between atoms: N_16  and  N_17 
REMARK       I    between atoms: N_17  and  C_18 
REMARK    9  A    between atoms: C_18  and  C_20 
REMARK   10  A    between atoms: C_20  and  C_21 
REMARK   11  A    between atoms: C_34  and  O_35 
ROOT
ATOM      1  C   UNL d   1       5.742   5.749  10.948  0.00  0.00     0.236 C 
ATOM      2  O   UNL d   1       6.818   6.290  10.638  0.00  0.00    -0.272 OA
ATOM      3  N   UNL d   1       5.179   5.888  12.254  0.00  0.00    -0.268 N 
ATOM      4  H   UNL d   1       4.299   5.443  12.512  0.00  0.00     0.190 HD
ENDROOT
BRANCH   1   5
ATOM      5  C   UNL d   1       4.966   4.884   9.874  0.00  0.00     0.114 C 
BRANCH   5   6
ATOM      6  C   UNL d   1       5.645   4.784   8.459  0.00  0.00     0.112 C 
BRANCH   6   7
ATOM      7  C   UNL d   1       4.848   3.942   7.450  0.00  0.00     0.217 C 
ATOM      8  N   UNL d   1       5.401   3.813   6.179  0.00  0.00    -0.361 N 
ATOM      9  H   UNL d   1       6.276   4.261   5.941  0.00  0.00     0.162 HD
ATOM     10  O   UNL d   1       3.779   3.407   7.747  0.00  0.00    -0.274 OA
BRANCH   8  11
ATOM     11  C   UNL d   1       4.707   3.024   5.169  0.00  0.00     0.127 C 
BRANCH  11  12
ATOM     12  C   UNL d   1       5.388   2.921   3.787  0.00  0.00     0.058 C 
BRANCH  12  13
ATOM     13  C   UNL d   1       4.589   2.124   2.766  0.00  0.00    -0.054 A 
ATOM     14  C   UNL d   1       5.017   1.982   1.447  0.00  0.00     0.010 A 
ATOM     15  C   UNL d   1       4.193   1.340   0.495  0.00  0.00     0.040 A 
ATOM     16  C   UNL d   1       2.957   0.739   0.840  0.00  0.00     0.101 A 
ATOM     17  C   UNL d   1       2.548   0.852   2.180  0.00  0.00     0.102 A 
ATOM     18  C   UNL d   1       3.365   1.537   3.096  0.00  0.00     0.046 A 
BRANCH  16  19
ATOM     19  O   UNL d   1       2.474  -0.100  -0.141  0.00  0.00    -0.353 OA
ATOM     20  C   UNL d   1       1.135  -0.039  -0.626  0.00  0.00     0.210 C 
ENDBRANCH  16  19
BRANCH  17  21
ATOM     21  O   UNL d   1       1.469   0.369   2.879  0.00  0.00    -0.353 OA
ATOM     22  C   UNL d   1       0.488  -0.236   2.101  0.00  0.00     0.210 C 
ENDBRANCH  17  21
ENDBRANCH  12  13
ENDBRANCH  11  12
ENDBRANCH   8  11
ENDBRANCH   6   7
ENDBRANCH   5   6
ENDBRANCH   1   5
BRANCH   3  23
ATOM     23  N   UNL d   1       5.812   6.844  13.373  0.00  0.00    -0.267 N 
ATOM     24  C   UNL d   1       5.185   7.119  14.700  0.00  0.00     0.237 C 
ATOM     25  O   UNL d   1       4.175   6.417  15.008  0.00  0.00    -0.272 OA
ATOM     26  H   UNL d   1       6.730   7.179  13.068  0.00  0.00     0.190 HD
BRANCH  24  27
ATOM     27  C   UNL d   1       5.907   8.321  15.795  0.00  0.00     0.122 C 
BRANCH  27  28
ATOM     28  C   UNL d   1       5.449   8.903  17.519  0.00  0.00     0.034 C 
ATOM     29  C   UNL d   1       6.477   8.202  18.109  0.00  0.00     0.046 C 
ATOM     30  C   UNL d   1       7.814   8.906  17.957  0.00  0.00     0.036 C 
ATOM     31  N   UNL d   1       5.602   7.698  19.076  0.00  0.00    -0.280 NA
ATOM     32  C   UNL d   1       5.546   8.686  20.014  0.00  0.00     0.022 C 
ATOM     33  H   UNL d   1       4.665   7.372  18.858  0.00  0.00     0.128 HD
ATOM     34  C   UNL d   1       5.558   8.492  21.416  0.00  0.00    -0.040 C 
ATOM     35  C   UNL d   1       5.595   9.788  19.146  0.00  0.00    -0.024 C 
ATOM     36  C   UNL d   1       5.412   7.097  21.930  0.00  0.00     0.050 C 
ATOM     37  C   UNL d   1       5.789   9.528  22.304  0.00  0.00     0.015 C 
ATOM     38  C   UNL d   1       6.238  10.727  21.778  0.00  0.00    -0.061 C 
ATOM     39  C   UNL d   1       6.766  11.647  22.965  0.00  0.00     0.048 C 
ATOM     40  C   UNL d   1       6.205  10.882  20.194  0.00  0.00     0.016 C 
ENDBRANCH  27  28
ENDBRANCH  24  27
ENDBRANCH   3  23
TORSDOF 11
