@<TRIPOS>MOLECULE
*****
 59 60 0 0 0
SMALL
GASTEIGER

@<TRIPOS>ATOM
      1 C           0.8707    0.1816   -0.1009 C.3     1  UNL1       -0.0653
      2 C           2.3638    0.4103   -0.0991 C.3     1  UNL1       -0.0559
      3 C           2.9554    0.4714   -1.4956 C.3     1  UNL1       -0.0532
      4 C           4.4715    0.6479   -1.4297 C.3     1  UNL1       -0.0500
      5 C           5.0547    0.7438   -2.8323 C.3     1  UNL1       -0.0186
      6 C           6.5642    0.9502   -2.8055 C.3     1  UNL1        0.0896
      7 O           6.9847    0.7537   -4.1597 O.3     1  UNL1       -0.4912
      8 C           8.3228    0.5955   -4.3738 C.ar    1  UNL1        0.1326
      9 C           8.8707    1.4970   -5.3150 C.ar    1  UNL1       -0.0192
     10 C          10.2040    1.4053   -5.7167 C.ar    1  UNL1       -0.0583
     11 C          11.0219    0.4550   -5.1220 C.ar    1  UNL1       -0.0608
     12 C          10.4788   -0.4540   -4.1968 C.ar    1  UNL1       -0.0460
     13 C           9.1077   -0.4387   -3.8440 C.ar    1  UNL1        0.0797
     14 C           8.6200   -1.5166   -2.8939 C.2     1  UNL1        0.2637
     15 O           9.4229   -2.0581   -2.1375 O.2     1  UNL1       -0.2685
     16 N           7.2600   -1.8603   -2.8736 N.am    1  UNL1       -0.2303
     17 N           6.6977   -2.3296   -1.6168 N.am    1  UNL1       -0.2341
     18 C           5.3109   -2.4759   -1.4956 C.2     1  UNL1        0.2295
     19 O           4.5389   -2.1656   -2.3802 O.2     1  UNL1       -0.2743
     20 C           4.8147   -3.0939   -0.1836 C.3     1  UNL1        0.0336
     21 C           3.3312   -2.8240    0.1444 C.3     1  UNL1        0.0326
     22 C           2.6961   -3.8448    1.0605 C.2     1  UNL1        0.2177
     23 O           3.3386   -4.8214    1.4342 O.2     1  UNL1       -0.2755
     24 N           1.3948   -3.5594    1.4801 N.am    1  UNL1       -0.2843
     25 C           0.8031   -4.2378    2.5850 C.ar    1  UNL1        0.0520
     26 C          -0.5394   -4.6532    2.5012 C.ar    1  UNL1       -0.0377
     27 C          -1.1666   -5.2628    3.6025 C.ar    1  UNL1       -0.0415
     28 C          -0.4448   -5.5034    4.7693 C.ar    1  UNL1        0.0425
     29 CL         -1.1780   -6.3082    6.1008 Cl      1  UNL1       -0.0835
     30 C           0.8769   -5.0944    4.8707 C.ar    1  UNL1       -0.0232
     31 C           1.4952   -4.4497    3.7981 C.ar    1  UNL1        0.0635
     32 CL          3.0592   -3.7835    4.1494 Cl      1  UNL1       -0.0816
     33 H           0.5275   -0.0075    0.9213 H       1  UNL1        0.0230
     34 H           0.5994   -0.6928   -0.7038 H       1  UNL1        0.0230
     35 H           0.3577    1.0598   -0.4949 H       1  UNL1        0.0230
     36 H           2.7952   -0.4075    0.4366 H       1  UNL1        0.0263
     37 H           2.6541    1.2765    0.4989 H       1  UNL1        0.0263
     38 H           2.5229    1.3169   -2.0360 H       1  UNL1        0.0265
     39 H           2.6902   -0.4345   -2.0589 H       1  UNL1        0.0265
     40 H           4.9258   -0.1632   -0.8522 H       1  UNL1        0.0266
     41 H           4.7271    1.5527   -0.8739 H       1  UNL1        0.0266
     42 H           4.5935    1.5740   -3.3750 H       1  UNL1        0.0298
     43 H           4.7982   -0.1344   -3.4412 H       1  UNL1        0.0298
     44 H           7.0250    0.2639   -2.0951 H       1  UNL1        0.0696
     45 H           6.8286    1.9485   -2.4525 H       1  UNL1        0.0696
     46 H           8.2505    2.2817   -5.7470 H       1  UNL1        0.0654
     47 H          10.5997    2.0667   -6.4871 H       1  UNL1        0.0619
     48 H          12.0781    0.4119   -5.3862 H       1  UNL1        0.0618
     49 H          11.1449   -1.1998   -3.7662 H       1  UNL1        0.0626
     50 H           6.6023   -1.3798   -3.4865 H       1  UNL1        0.1731
     51 H           7.3598   -2.7597   -0.9764 H       1  UNL1        0.1728
     52 H           5.4144   -2.7405    0.6654 H       1  UNL1        0.0363
     53 H           4.9728   -4.1654   -0.3023 H       1  UNL1        0.0363
     54 H           2.6984   -2.6594   -0.7353 H       1  UNL1        0.0363
     55 H           3.3569   -1.9555    0.7869 H       1  UNL1        0.0363
     56 H           0.7977   -2.9536    0.9253 H       1  UNL1        0.1548
     57 H          -1.1041   -4.5719    1.5739 H       1  UNL1        0.0637
     58 H          -2.2141   -5.5556    3.5492 H       1  UNL1        0.0633
     59 H           1.4265   -5.2403    5.7959 H       1  UNL1        0.0647
@<TRIPOS>BOND
     1     1     2    1
     2     2     3    1
     3     3     4    1
     4     4     5    1
     5     5     6    1
     6     6     7    1
     7     7     8    1
     8     8     9   ar
     9     9    10   ar
    10    10    11   ar
    11    11    12   ar
    12    12    13   ar
    13     8    13   ar
    14    13    14    1
    15    14    15    2
    16    14    16   am
    17    16    17    1
    18    17    18   am
    19    18    19    2
    20    18    20    1
    21    20    21    1
    22    21    22    1
    23    22    23    2
    24    22    24   am
    25    24    25    1
    26    25    26   ar
    27    26    27   ar
    28    27    28   ar
    29    28    29    1
    30    28    30   ar
    31    30    31   ar
    32    25    31   ar
    33    31    32    1
    34     1    33    1
    35     1    34    1
    36     1    35    1
    37     2    36    1
    38     2    37    1
    39     3    38    1
    40     3    39    1
    41     4    40    1
    42     4    41    1
    43     5    42    1
    44     5    43    1
    45     6    44    1
    46     6    45    1
    47     9    46    1
    48    10    47    1
    49    11    48    1
    50    12    49    1
    51    16    50    1
    52    17    51    1
    53    20    52    1
    54    20    53    1
    55    21    54    1
    56    21    55    1
    57    24    56    1
    58    26    57    1
    59    27    58    1
    60    30    59    1
