REMARK  3 active torsions:
REMARK  status: ('A' for Active; 'I' for Inactive)
REMARK    1  A    between atoms: C_5  and  C_6 
REMARK       I    between atoms: C_6  and  N_8 
REMARK    2  A    between atoms: N_8  and  N_9 
REMARK    3  A    between atoms: N_9  and  C_10 
ROOT
ATOM      1  C   UNL d   1      -2.479   1.731   0.058  0.00  0.00     0.293 C 
ATOM      2  O   UNL d   1      -2.242   2.944   0.016  0.00  0.00    -0.264 OA
ATOM      3  N   UNL d   1      -3.803   1.258   0.159  0.00  0.00    -0.264 N 
ATOM      4  H   UNL d   1      -4.017   0.282  -0.007  0.00  0.00     0.190 HD
ENDROOT
BRANCH   3   5
ATOM      5  N   UNL d   1      -4.862   2.155  -0.059  0.00  0.00    -0.298 N 
ATOM      6  H   UNL d   1      -4.645   3.154  -0.031  0.00  0.00     0.187 HD
BRANCH   5   7
ATOM      7  C   UNL d   1      -6.197   1.726   0.060  0.00  0.00     0.049 A 
ATOM      8  C   UNL d   1      -6.609   0.676   0.894  0.00  0.00     0.031 A 
ATOM      9  C   UNL d   1      -7.949   0.252   0.928  0.00  0.00     0.004 A 
ATOM     10  C   UNL d   1      -8.897   0.846   0.098  0.00  0.00     0.024 A 
ATOM     11  C   UNL d   1      -8.502   1.877  -0.747  0.00  0.00     0.036 A 
ATOM     12 CL   UNL d   1      -9.660   2.590  -1.805  0.00  0.00    -0.084 Cl
ATOM     13  C   UNL d   1      -7.174   2.325  -0.755  0.00  0.00     0.054 A 
ENDBRANCH   5   7
ENDBRANCH   3   5
BRANCH   1  14
ATOM     14  C   UNL d   1      -1.442   0.692   0.020  0.00  0.00     0.144 A 
ATOM     15  C   UNL d   1      -1.524  -0.692   0.001  0.00  0.00     0.045 A 
ATOM     16  C   UNL d   1      -0.205  -1.203  -0.006  0.00  0.00     0.035 A 
ATOM     17  C   UNL d   1       0.637  -0.116  -0.001  0.00  0.00     0.050 A 
ATOM     18  C   UNL d   1       2.119  -0.013  -0.001  0.00  0.00     0.076 C 
ATOM     19  O   UNL d   1      -0.101   1.041   0.009  0.00  0.00    -0.310 OA
ENDBRANCH   1  14
TORSDOF 3
