@<TRIPOS>MOLECULE
*****
 39 40 0 0 0
SMALL
GASTEIGER

@<TRIPOS>ATOM
      1 C           0.9595   -0.0797   -0.0426 C.3     1  UNL1       -0.0622
      2 C           2.4952   -0.1096   -0.0186 C.3     1  UNL1       -0.0384
      3 C           2.9352   -0.8690    1.2379 C.3     1  UNL1       -0.0622
      4 C           3.0885   -0.7412   -1.3061 C.3     1  UNL1        0.0277
      5 C           4.6279   -0.7030   -1.3511 C.2     1  UNL1        0.2293
      6 O           5.3146   -0.1567   -0.4858 O.2     1  UNL1       -0.2743
      7 N           5.2306   -1.3297   -2.4319 N.am    1  UNL1       -0.2341
      8 N           6.6627   -1.3609   -2.4770 N.am    1  UNL1       -0.2278
      9 C           7.3491   -1.8404   -3.5967 C.2     1  UNL1        0.2954
     10 O           6.7241   -2.2602   -4.5789 O.2     1  UNL1       -0.2653
     11 C           8.8126   -1.8527   -3.4852 C.ar    1  UNL1        0.1914
     12 C           9.6199   -2.2052   -2.4148 C.ar    1  UNL1       -0.0106
     13 C          10.9638   -2.0964   -2.8392 C.ar    1  UNL1       -0.0151
     14 C          10.9427   -1.6693   -4.1498 C.ar    1  UNL1        0.1359
     15 C          12.0474   -1.3859   -5.0757 C.ar    1  UNL1        0.0174
     16 C          13.0365   -2.3623   -5.3101 C.ar    1  UNL1       -0.0497
     17 C          14.1817   -2.0779   -6.0709 C.ar    1  UNL1       -0.0427
     18 C          14.3605   -0.8033   -6.5972 C.ar    1  UNL1        0.0410
     19 CL         15.7725   -0.4442   -7.5155 Cl      1  UNL1       -0.0835
     20 C          13.4022    0.1829   -6.3705 C.ar    1  UNL1       -0.0427
     21 C          12.2517   -0.1074   -5.6138 C.ar    1  UNL1       -0.0497
     22 O           9.6342   -1.5268   -4.5627 O.2     1  UNL1       -0.4502
     23 H           0.5684    0.3958    0.8667 H       1  UNL1        0.0232
     24 H           0.5417   -1.0917   -0.0858 H       1  UNL1        0.0232
     25 H           0.5783    0.4861   -0.8978 H       1  UNL1        0.0232
     26 H           2.8464    0.9279    0.0582 H       1  UNL1        0.0300
     27 H           2.5799   -1.9040    1.2109 H       1  UNL1        0.0232
     28 H           2.5385   -0.3922    2.1406 H       1  UNL1        0.0232
     29 H           4.0210   -0.8941    1.3475 H       1  UNL1        0.0232
     30 H           2.7093   -0.1934   -2.1784 H       1  UNL1        0.0361
     31 H           2.7461   -1.7795   -1.3933 H       1  UNL1        0.0361
     32 H           4.7310   -1.7310   -3.2232 H       1  UNL1        0.1728
     33 H           7.1335   -0.9213   -1.6862 H       1  UNL1        0.1732
     34 H           9.2757   -2.5440   -1.4486 H       1  UNL1        0.0657
     35 H          11.8581   -2.2976   -2.2656 H       1  UNL1        0.0656
     36 H          12.9333   -3.3598   -4.8875 H       1  UNL1        0.0625
     37 H          14.9306   -2.8493   -6.2377 H       1  UNL1        0.0632
     38 H          13.5518    1.1842   -6.7683 H       1  UNL1        0.0632
     39 H          11.5398    0.6901   -5.4153 H       1  UNL1        0.0625
@<TRIPOS>BOND
     1     1     2    1
     2     2     3    1
     3     2     4    1
     4     4     5    1
     5     5     6    2
     6     5     7   am
     7     7     8    1
     8     8     9   am
     9     9    10    2
    10     9    11    1
    11    11    12   ar
    12    12    13   ar
    13    13    14   ar
    14    14    15    1
    15    15    16   ar
    16    16    17   ar
    17    17    18   ar
    18    18    19    1
    19    18    20   ar
    20    20    21   ar
    21    15    21   ar
    22    14    22   ar
    23    11    22   ar
    24     1    23    1
    25     1    24    1
    26     1    25    1
    27     2    26    1
    28     3    27    1
    29     3    28    1
    30     3    29    1
    31     4    30    1
    32     4    31    1
    33     7    32    1
    34     8    33    1
    35    12    34    1
    36    13    35    1
    37    16    36    1
    38    17    37    1
    39    20    38    1
    40    21    39    1
