REMARK  5 active torsions:
REMARK  status: ('A' for Active; 'I' for Inactive)
REMARK       I    between atoms: C_2  and  N_3 
REMARK       I    between atoms: C_2  and  N_12 
REMARK    1  A    between atoms: N_3  and  O_4 
REMARK    2  A    between atoms: O_4  and  C_5 
REMARK    3  A    between atoms: C_5  and  C_6 
REMARK    4  A    between atoms: C_13  and  N_12 
REMARK    5  A    between atoms: C_15  and  C_16 
ROOT
ATOM      1  O   UNL d   1       2.463   0.121   2.920  0.00  0.00    -0.245 OA
ATOM      2  C   UNL d   1       3.414  -0.516   3.384  0.00  0.00     0.340 C 
ATOM      3  N   UNL d   1       3.520  -0.838   4.718  0.00  0.00    -0.216 N 
ATOM      4  N   UNL d   1       4.469  -0.949   2.574  0.00  0.00    -0.336 N 
ATOM      5  H   UNL d   1       4.234  -1.421   5.124  0.00  0.00     0.199 HD
ATOM      6  H   UNL d   1       5.133  -1.617   2.940  0.00  0.00     0.164 HD
ENDROOT
BRANCH   3   7
ATOM      7  O   UNL d   1       2.433  -0.397   5.536  0.00  0.00    -0.272 OA
BRANCH   7   8
ATOM      8  C   UNL d   1       2.627  -0.768   6.907  0.00  0.00     0.240 C 
BRANCH   8   9
ATOM      9  C   UNL d   1       1.497  -0.275   7.791  0.00  0.00    -0.032 A 
ATOM     10  C   UNL d   1       0.792  -1.174   8.610  0.00  0.00     0.009 A 
ATOM     11  C   UNL d   1      -0.287  -0.742   9.389  0.00  0.00     0.001 A 
ATOM     12  C   UNL d   1      -0.621   0.609   9.430  0.00  0.00     0.000 A 
ATOM     13  C   UNL d   1       0.096   1.521   8.658  0.00  0.00     0.001 A 
ATOM     14  C   UNL d   1       1.142   1.082   7.837  0.00  0.00     0.009 A 
ENDBRANCH   8   9
ENDBRANCH   7   8
ENDBRANCH   3   7
BRANCH   4  15
ATOM     15  C   UNL d   1       4.325  -0.801   1.138  0.00  0.00     0.095 A 
ATOM     16  C   UNL d   1       5.252   0.083   0.343  0.00  0.00     0.037 A 
ATOM     17  C   UNL d   1       5.163  -1.391   0.017  0.00  0.00     0.043 A 
BRANCH  17  18
ATOM     18  C   UNL d   1       4.425  -1.867  -1.243  0.00  0.00    -0.049 A 
ATOM     19  C   UNL d   1       4.556  -3.190  -1.711  0.00  0.00     0.008 A 
ATOM     20  C   UNL d   1       3.921  -3.627  -2.884  0.00  0.00     0.004 A 
ATOM     21  C   UNL d   1       3.075  -2.771  -3.581  0.00  0.00     0.042 A 
ATOM     22  C   UNL d   1       2.916  -1.472  -3.131  0.00  0.00     0.116 A 
ATOM     23  F   UNL d   1       2.127  -0.625  -3.806  0.00  0.00    -0.206 F 
ATOM     24  C   UNL d   1       3.581  -1.023  -1.993  0.00  0.00     0.049 A 
ENDBRANCH  17  18
ENDBRANCH   4  15
TORSDOF 5
