REMARK  5 active torsions:
REMARK  status: ('A' for Active; 'I' for Inactive)
REMARK       I    between atoms: C_2  and  N_4 
REMARK    1  A    between atoms: N_4  and  C_5 
REMARK    2  A    between atoms: C_8  and  C_9 
REMARK    3  A    between atoms: C_9  and  N_10 
REMARK    4  A    between atoms: C_18  and  C_19 
REMARK    5  A    between atoms: C_21  and  C_22 
ROOT
ATOM      1  N   UNL d   1       9.524  -0.181  -1.006  0.00  0.00    -0.391 N 
ATOM      2  C   UNL d   1       9.470  -0.553   0.431  0.00  0.00     0.177 C 
ATOM      3  C   UNL d   1       9.087  -1.933   0.694  0.00  0.00     0.050 A 
ATOM      4  N   UNL d   1       8.661  -2.473   1.890  0.00  0.00    -0.353 N 
ATOM      5  C   UNL d   1       8.347  -3.759   1.725  0.00  0.00     0.181 A 
ATOM      6  N   UNL d   1       8.501  -4.022   0.421  0.00  0.00    -0.354 N 
ATOM      7  C   UNL d   1       8.907  -2.889  -0.262  0.00  0.00     0.036 A 
ATOM      8  C   UNL d   1       9.103  -2.703  -1.715  0.00  0.00     0.092 C 
ATOM      9  C   UNL d   1       9.183  -1.179  -2.134  0.00  0.00     0.165 C 
ATOM     10  H   UNL d   1       8.570  -1.961   2.768  0.00  0.00     0.166 HD
ATOM     11  H   UNL d   1       8.318  -4.929  -0.000  0.00  0.00     0.166 HD
ENDROOT
BRANCH   9  12
ATOM     12  C   UNL d   1       7.983  -0.865  -3.130  0.00  0.00     0.196 C 
ATOM     13  N   UNL d   1       6.675  -1.083  -3.027  0.00  0.00    -0.202 NA
ATOM     14  C   UNL d   1       6.116  -0.329  -4.063  0.00  0.00     0.189 C 
ATOM     15  N   UNL d   1       7.057   0.078  -4.933  0.00  0.00    -0.105 NA
ATOM     16  O   UNL d   1       8.281  -0.249  -4.317  0.00  0.00    -0.194 OA
BRANCH  14  17
ATOM     17  C   UNL d   1       4.652  -0.088  -4.262  0.00  0.00     0.016 A 
ATOM     18  C   UNL d   1       3.912   0.915  -3.594  0.00  0.00     0.018 A 
ATOM     19  C   UNL d   1       2.514   1.075  -3.761  0.00  0.00     0.045 A 
ATOM     20  C   UNL d   1       1.849   0.310  -4.703  0.00  0.00     0.138 A 
ATOM     21  F   UNL d   1       0.539   0.522  -4.911  0.00  0.00    -0.204 F 
ATOM     22  C   UNL d   1       2.562  -0.632  -5.434  0.00  0.00     0.073 A 
ATOM     23 CL   UNL d   1       1.757  -1.576  -6.628  0.00  0.00    -0.081 Cl
ATOM     24  C   UNL d   1       3.941  -0.836  -5.208  0.00  0.00     0.042 A 
ENDBRANCH  14  17
ENDBRANCH   9  12
BRANCH   1  25
ATOM     25  C   UNL d   1       8.965   1.182  -1.103  0.00  0.00     0.156 C 
BRANCH  25  26
ATOM     26  C   UNL d   1       7.467   1.230  -0.852  0.00  0.00    -0.041 C 
ATOM     27  C   UNL d   1       6.767   2.425  -0.759  0.00  0.00     0.011 C 
ATOM     28  C   UNL d   1       5.375   2.406  -0.533  0.00  0.00     0.030 C 
ATOM     29  C   UNL d   1       4.668   1.196  -0.478  0.00  0.00     0.034 C 
ATOM     30  C   UNL d   1       5.362   0.019  -0.587  0.00  0.00     0.030 C 
ATOM     31  C   UNL d   1       6.727   0.056  -0.659  0.00  0.00     0.011 C 
BRANCH  29  32
ATOM     32  N   UNL d   1       3.265   1.136  -0.430  0.00  0.00    -0.328 N 
ATOM     33  C   UNL d   1       2.591   0.040   0.108  0.00  0.00     0.218 C 
ATOM     34  C   UNL d   1       1.097   0.118  -0.014  0.00  0.00     0.117 C 
ATOM     35  O   UNL d   1       3.110  -0.905   0.678  0.00  0.00    -0.274 OA
ATOM     36  H   UNL d   1       2.747   1.921  -0.798  0.00  0.00     0.169 HD
ENDBRANCH  29  32
ENDBRANCH  25  26
ENDBRANCH   1  25
TORSDOF 5
