@<TRIPOS>MOLECULE
*****
 66 69 0 0 0
SMALL
GASTEIGER

@<TRIPOS>ATOM
      1 C           0.9930   -0.1213    0.0628 C.3     1  UNL1        0.0788
      2 O           2.4127   -0.1209    0.1476 O.3     1  UNL1       -0.4950
      3 C           3.0393   -1.2462   -0.3178 C.ar    1  UNL1        0.1243
      4 C           4.1943   -1.6358    0.3720 C.ar    1  UNL1        0.0218
      5 C           5.0021   -2.6676   -0.1158 C.ar    1  UNL1        0.1243
      6 O           6.1861   -2.8811    0.5403 O.3     1  UNL1       -0.4950
      7 C           7.0961   -3.7857   -0.0911 C.3     1  UNL1        0.0788
      8 C           4.5907   -3.3747   -1.2416 C.ar    1  UNL1       -0.0061
      9 C           3.4468   -2.9849   -1.9464 C.ar    1  UNL1        0.0630
     10 C           3.1431   -3.6968   -3.2242 C.2     1  UNL1        0.3408
     11 O           3.8639   -4.6177   -3.5736 O.2     1  UNL1       -0.2483
     12 N           2.0592   -3.2199   -3.9299 N.am    1  UNL1        0.0006
     13 C           1.7006   -3.8337   -5.0198 C.2     1  UNL1        0.3842
     14 N           0.6086   -3.3658   -5.7064 N.pl3   1  UNL1       -0.2767
     15 C          -0.2159   -2.2767   -5.2533 C.3     1  UNL1        0.0684
     16 C          -1.3558   -2.0315   -6.2232 C.3     1  UNL1        0.0059
     17 C          -2.3156   -0.9406   -5.8630 C.2     1  UNL1        0.0106
     18 C          -3.3273   -0.6467   -6.6781 C.ar    1  UNL1        0.0510
     19 C          -3.7031   -1.2147   -7.9212 C.ar    1  UNL1       -0.0482
     20 C          -4.6810   -0.6252   -8.6135 C.ar    1  UNL1       -0.0608
     21 C          -5.4333    0.4859   -8.0525 C.ar    1  UNL1       -0.0555
     22 C          -5.1651    1.0495   -6.8542 C.ar    1  UNL1        0.0098
     23 C          -4.0343    0.4891   -6.0806 C.ar    1  UNL1        0.2086
     24 N          -3.5246    0.8148   -4.9521 N.2     1  UNL1       -0.2369
     25 C          -2.3261   -0.0380   -4.6617 C.3     1  UNL1        0.1661
     26 N           2.2775   -4.9654   -5.5440 N.pl3   1  UNL1       -0.2450
     27 C           2.1058   -5.5557   -6.8050 C.ar    1  UNL1        0.1003
     28 C           2.1025   -6.9489   -6.9424 C.ar    1  UNL1       -0.0203
     29 C           1.8520   -7.5375   -8.1911 C.ar    1  UNL1       -0.0470
     30 C           2.0584   -9.0028   -8.4322 C.3     1  UNL1       -0.0396
     31 C           1.4874   -6.7294   -9.2739 C.ar    1  UNL1       -0.0557
     32 C           1.5323   -5.3433   -9.1614 C.ar    1  UNL1       -0.0470
     33 C           1.2578   -4.4465  -10.3232 C.3     1  UNL1       -0.0396
     34 C           1.8870   -4.7743   -7.9411 C.ar    1  UNL1       -0.0203
     35 C           2.6730   -1.9133   -1.4869 C.ar    1  UNL1       -0.0061
     36 H           0.6383    0.8543    0.4114 H       1  UNL1        0.0660
     37 H           0.5759   -0.8900    0.7196 H       1  UNL1        0.0660
     38 H           0.6239   -0.2422   -0.9600 H       1  UNL1        0.0660
     39 H           4.4755   -1.1168    1.2864 H       1  UNL1        0.0691
     40 H           8.0448   -3.7647    0.4523 H       1  UNL1        0.0660
     41 H           7.3085   -3.4990   -1.1295 H       1  UNL1        0.0660
     42 H           6.7045   -4.8070   -0.0426 H       1  UNL1        0.0660
     43 H           5.1640   -4.2195   -1.6098 H       1  UNL1        0.0662
     44 H           0.2628   -3.9431   -6.4640 H       1  UNL1        0.2577
     45 H           0.3898   -1.3686   -5.1812 H       1  UNL1        0.0658
     46 H          -0.6335   -2.5142   -4.2713 H       1  UNL1        0.0658
     47 H          -1.9331   -2.9605   -6.3419 H       1  UNL1        0.0343
     48 H          -0.9383   -1.8096   -7.2180 H       1  UNL1        0.0343
     49 H          -3.1723   -2.0816   -8.2986 H       1  UNL1        0.0626
     50 H          -4.9204   -0.9891   -9.6089 H       1  UNL1        0.0618
     51 H          -6.2675    0.8259   -8.6638 H       1  UNL1        0.0620
     52 H          -5.7618    1.8769   -6.4886 H       1  UNL1        0.0683
     53 H          -3.9161    1.5517   -4.3655 H       1  UNL1        0.4459
     54 H          -2.4903   -0.5789   -3.7254 H       1  UNL1        0.1077
     55 H          -1.4441    0.6079   -4.5964 H       1  UNL1        0.1077
     56 H           3.1160   -5.2843   -5.0505 H       1  UNL1        0.2646
     57 H           2.2823   -7.5810   -6.0741 H       1  UNL1        0.0655
     58 H           2.3855   -9.5229   -7.5278 H       1  UNL1        0.0278
     59 H           2.8486   -9.1220   -9.1842 H       1  UNL1        0.0278
     60 H           1.1433   -9.4717   -8.8038 H       1  UNL1        0.0278
     61 H           1.2188   -7.1908  -10.2221 H       1  UNL1        0.0623
     62 H           1.0126   -5.0192  -11.2209 H       1  UNL1        0.0278
     63 H           2.1464   -3.8419  -10.5299 H       1  UNL1        0.0278
     64 H           0.4165   -3.7855  -10.0910 H       1  UNL1        0.0278
     65 H           1.9840   -3.6931   -7.8710 H       1  UNL1        0.0655
     66 H           1.8222   -1.5898   -2.0730 H       1  UNL1        0.0662
@<TRIPOS>UNITY_ATOM_ATTR
24 1
charge 1
@<TRIPOS>BOND
     1     1     2    1
     2     2     3    1
     3     3     4   ar
     4     4     5   ar
     5     5     6    1
     6     6     7    1
     7     5     8   ar
     8     8     9   ar
     9     9    10    1
    10    10    11    2
    11    10    12    1
    12    12    13    2
    13    13    14    1
    14    14    15    1
    15    15    16    1
    16    16    17    1
    17    17    18    2
    18    18    19   ar
    19    19    20   ar
    20    20    21   ar
    21    21    22   ar
    22    22    23   ar
    23    18    23   ar
    24    23    24    2
    25    24    25    1
    26    17    25    1
    27    13    26    1
    28    26    27    1
    29    27    28   ar
    30    28    29   ar
    31    29    30    1
    32    29    31   ar
    33    31    32   ar
    34    32    33    1
    35    32    34   ar
    36    27    34   ar
    37     9    35   ar
    38     3    35   ar
    39     1    36    1
    40     1    37    1
    41     1    38    1
    42     4    39    1
    43     7    40    1
    44     7    41    1
    45     7    42    1
    46     8    43    1
    47    14    44    1
    48    15    45    1
    49    15    46    1
    50    16    47    1
    51    16    48    1
    52    19    49    1
    53    20    50    1
    54    21    51    1
    55    22    52    1
    56    24    53    1
    57    25    54    1
    58    25    55    1
    59    26    56    1
    60    28    57    1
    61    30    58    1
    62    30    59    1
    63    30    60    1
    64    31    61    1
    65    33    62    1
    66    33    63    1
    67    33    64    1
    68    34    65    1
    69    35    66    1
