REMARK  6 active torsions:
REMARK  status: ('A' for Active; 'I' for Inactive)
REMARK    1  A    between atoms: S_2  and  C_3 
REMARK    2  A    between atoms: C_7  and  N_8 
REMARK       I    between atoms: N_8  and  C_9 
REMARK    3  A    between atoms: C_11  and  C_9 
REMARK    4  A    between atoms: C_11  and  N_13 
REMARK    5  A    between atoms: N_13  and  C_14 
REMARK    6  A    between atoms: C_19  and  C_20 
REMARK       I    between atoms: C_20  and  N_21 
ROOT
ATOM      1  C   UNL d   1      -0.218   5.852   0.820  0.00  0.00     0.170 C 
ATOM      2  C   UNL d   1       0.716   4.696   0.493  0.00  0.00     0.042 C 
ENDROOT
BRANCH   1   3
ATOM      3  N   UNL d   1      -1.523   5.381   1.304  0.00  0.00    -0.377 N 
ATOM      4  H   UNL d   1      -1.540   4.448   1.700  0.00  0.00     0.160 HD
BRANCH   3   5
ATOM      5  C   UNL d   1      -2.499   6.262   1.775  0.00  0.00     0.029 A 
ATOM      6  C   UNL d   1      -3.167   6.008   2.972  0.00  0.00     0.029 A 
ATOM      7  C   UNL d   1      -4.273   6.778   3.350  0.00  0.00     0.010 A 
ATOM      8  C   UNL d   1      -4.686   7.895   2.601  0.00  0.00    -0.046 A 
ATOM      9  C   UNL d   1      -5.808   8.713   3.150  0.00  0.00     0.049 C 
ATOM     10  C   UNL d   1      -4.005   8.205   1.415  0.00  0.00     0.039 A 
ATOM     11  C   UNL d   1      -2.906   7.396   1.054  0.00  0.00     0.046 A 
BRANCH  10  12
ATOM     12  C   UNL d   1      -4.367   9.283   0.424  0.00  0.00     0.249 C 
ATOM     13  N   UNL d   1      -5.443  10.098   0.621  0.00  0.00    -0.366 N 
ATOM     14  H   UNL d   1      -6.048  10.118   1.419  0.00  0.00     0.159 HD
ATOM     15  H   UNL d   1      -5.640  10.786  -0.093  0.00  0.00     0.159 HD
ATOM     16  O   UNL d   1      -3.717   9.443  -0.615  0.00  0.00    -0.268 OA
ENDBRANCH  10  12
ENDBRANCH   3   5
ENDBRANCH   1   3
BRANCH   1  17
ATOM     17  C   UNL d   1      -0.317   6.739  -0.410  0.00  0.00     0.244 C 
ATOM     18  N   UNL d   1      -0.944   6.205  -1.545  0.00  0.00    -0.325 N 
ATOM     19  H   UNL d   1      -1.356   5.281  -1.473  0.00  0.00     0.169 HD
ATOM     20  O   UNL d   1       0.164   7.869  -0.295  0.00  0.00    -0.271 OA
BRANCH  18  21
ATOM     21  C   UNL d   1      -1.173   6.936  -2.744  0.00  0.00     0.036 A 
ATOM     22  C   UNL d   1      -1.819   6.375  -3.845  0.00  0.00     0.029 A 
ATOM     23  C   UNL d   1      -2.039   7.160  -4.993  0.00  0.00     0.004 A 
ATOM     24  C   UNL d   1      -1.577   8.485  -5.061  0.00  0.00     0.018 A 
ATOM     25  C   UNL d   1      -0.953   9.064  -3.963  0.00  0.00     0.002 A 
ATOM     26  C   UNL d   1      -0.776   8.270  -2.840  0.00  0.00     0.048 A 
BRANCH  25  27
ATOM     27  S   UNL d   1      -0.482  10.793  -3.948  0.00  0.00    -0.134 SA
ATOM     28  C   UNL d   1       0.727  10.897  -2.568  0.00  0.00     0.095 C 
ENDBRANCH  25  27
ENDBRANCH  18  21
ENDBRANCH   1  17
TORSDOF 6
