REMARK  8 active torsions:
REMARK  status: ('A' for Active; 'I' for Inactive)
REMARK       I    between atoms: C_2  and  N_3 
REMARK    1  A    between atoms: C_27  and  C_2 
REMARK    2  A    between atoms: N_3  and  C_4 
REMARK    3  A    between atoms: C_7  and  C_8 
REMARK    4  A    between atoms: C_8  and  C_9 
REMARK    5  A    between atoms: C_12  and  N_13 
REMARK       I    between atoms: N_13  and  C_14 
REMARK    6  A    between atoms: C_16  and  C_14 
REMARK    7  A    between atoms: C_21  and  O_22 
REMARK    8  A    between atoms: C_25  and  O_26 
ROOT
ATOM      1  C   UNL d   1      10.719   5.922   4.560  0.00  0.00     0.077 C 
ENDROOT
BRANCH   1   2
ATOM      2  C   UNL d   1      10.064   6.537   3.337  0.00  0.00    -0.051 A 
ATOM      3  C   UNL d   1      10.785   6.634   2.140  0.00  0.00     0.010 A 
ATOM      4  C   UNL d   1      10.185   7.160   0.984  0.00  0.00     0.033 A 
ATOM      5  C   UNL d   1       8.866   7.627   1.025  0.00  0.00     0.068 A 
ATOM      6  C   UNL d   1       8.134   7.489   2.204  0.00  0.00     0.092 A 
ATOM      7  C   UNL d   1       8.737   7.001   3.351  0.00  0.00     0.046 A 
BRANCH   5   8
ATOM      8  N   UNL d   1       8.300   8.281  -0.095  0.00  0.00    -0.323 N 
ATOM      9  C   UNL d   1       7.671   9.514   0.079  0.00  0.00     0.251 C 
ATOM     10  O   UNL d   1       7.629  10.126   1.150  0.00  0.00    -0.270 OA
ATOM     11  H   UNL d   1       8.632   8.031  -1.016  0.00  0.00     0.169 HD
BRANCH   9  12
ATOM     12  C   UNL d   1       7.072  10.142  -1.196  0.00  0.00     0.213 C 
ATOM     13  C   UNL d   1       5.923  11.074  -0.822  0.00  0.00     0.044 C 
ATOM     14  C   UNL d   1       6.607  12.410  -0.659  0.00  0.00     0.029 C 
ATOM     15  C   UNL d   1       7.705  12.341  -1.695  0.00  0.00     0.168 C 
ATOM     16  O   UNL d   1       8.040  10.953  -1.883  0.00  0.00    -0.376 OA
ENDBRANCH   9  12
ENDBRANCH   5   8
BRANCH   6  17
ATOM     17  O   UNL d   1       6.787   7.748   2.216  0.00  0.00    -0.358 OA
ATOM     18  H   UNL d   1       6.502   7.855   3.138  0.00  0.00     0.217 HD
ENDBRANCH   6  17
ENDBRANCH   1   2
BRANCH   1  19
ATOM     19  C   UNL d   1       9.803   5.789   5.753  0.00  0.00    -0.051 A 
ATOM     20  C   UNL d   1       8.627   5.026   5.727  0.00  0.00     0.010 A 
ATOM     21  C   UNL d   1       7.684   5.114   6.772  0.00  0.00     0.033 A 
ATOM     22  C   UNL d   1       7.939   5.896   7.919  0.00  0.00     0.068 A 
ATOM     23  C   UNL d   1       9.168   6.589   7.936  0.00  0.00     0.092 A 
ATOM     24  C   UNL d   1      10.061   6.555   6.873  0.00  0.00     0.046 A 
BRANCH  22  25
ATOM     25  N   UNL d   1       6.937   5.919   8.955  0.00  0.00    -0.323 N 
ATOM     26  C   UNL d   1       7.018   6.607  10.151  0.00  0.00     0.251 C 
ATOM     27  O   UNL d   1       7.976   7.323  10.469  0.00  0.00    -0.270 OA
ATOM     28  H   UNL d   1       6.093   5.386   8.770  0.00  0.00     0.169 HD
BRANCH  26  29
ATOM     29  C   UNL d   1       5.895   6.497  11.180  0.00  0.00     0.213 C 
ATOM     30  C   UNL d   1       6.493   6.066  12.521  0.00  0.00     0.044 C 
ATOM     31  C   UNL d   1       6.896   7.368  13.182  0.00  0.00     0.029 C 
ATOM     32  C   UNL d   1       5.881   8.347  12.637  0.00  0.00     0.168 C 
ATOM     33  O   UNL d   1       5.365   7.820  11.400  0.00  0.00    -0.376 OA
ENDBRANCH  26  29
ENDBRANCH  22  25
BRANCH  23  34
ATOM     34  O   UNL d   1       9.683   7.379   8.917  0.00  0.00    -0.358 OA
ATOM     35  H   UNL d   1       9.058   7.396   9.662  0.00  0.00     0.217 HD
ENDBRANCH  23  34
ENDBRANCH   1  19
TORSDOF 8
