REMARK  9 active torsions:
REMARK  status: ('A' for Active; 'I' for Inactive)
REMARK    1  A    between atoms: C_5  and  C_6 
REMARK    2  A    between atoms: C_6  and  S_7 
REMARK    3  A    between atoms: S_7  and  C_8 
REMARK    4  A    between atoms: C_11  and  S_12 
REMARK    5  A    between atoms: S_12  and  C_13 
REMARK    6  A    between atoms: C_13  and  C_14 
REMARK       I    between atoms: C_14  and  N_16 
REMARK    7  A    between atoms: N_16  and  N_17 
REMARK    8  A    between atoms: C_18  and  C_19 
REMARK    9  A    between atoms: C_22  and  O_23 
ROOT
ATOM      1  S   UNL d   1      -9.743   2.803  -0.244  0.00  0.00    -0.092 SA
ENDROOT
BRANCH   1   2
ATOM      2  C   UNL d   1      -8.090   2.228  -0.174  0.00  0.00     0.159 A 
ATOM      3  N   UNL d   1      -7.842   0.929  -0.156  0.00  0.00    -0.134 NA
ATOM      4  N   UNL d   1      -6.483   0.629  -0.111  0.00  0.00    -0.134 NA
ATOM      5  C   UNL d   1      -5.761   1.722  -0.096  0.00  0.00     0.159 A 
ATOM      6  S   UNL d   1      -6.679   3.184  -0.125  0.00  0.00    -0.033 SA
BRANCH   5   7
ATOM      7  S   UNL d   1      -4.034   1.793  -0.051  0.00  0.00    -0.097 SA
BRANCH   7   8
ATOM      8  C   UNL d   1      -3.377   0.090  -0.040  0.00  0.00     0.120 C 
BRANCH   8   9
ATOM      9  C   UNL d   1      -1.843   0.055  -0.010  0.00  0.00    -0.049 A 
ATOM     10  C   UNL d   1      -1.153  -1.171  -0.002  0.00  0.00     0.008 A 
ATOM     11  C   UNL d   1       0.254  -1.208   0.004  0.00  0.00     0.007 A 
ATOM     12  C   UNL d   1       1.002  -0.026   0.003  0.00  0.00    -0.062 A 
ATOM     13  C   UNL d   1       2.500  -0.023  -0.013  0.00  0.00     0.048 C 
ATOM     14  C   UNL d   1       0.330   1.191   0.006  0.00  0.00     0.007 A 
ATOM     15  C   UNL d   1      -1.061   1.226   0.002  0.00  0.00     0.008 A 
ENDBRANCH   8   9
ENDBRANCH   7   8
ENDBRANCH   5   7
ENDBRANCH   1   2
BRANCH   1  16
ATOM     16  C   UNL d   1      -9.732   4.644  -0.265  0.00  0.00     0.186 C 
BRANCH  16  17
ATOM     17  C   UNL d   1     -11.189   5.180  -0.336  0.00  0.00     0.247 C 
ATOM     18  O   UNL d   1     -12.165   4.421  -0.373  0.00  0.00    -0.271 OA
ATOM     19  N   UNL d   1     -11.343   6.578  -0.357  0.00  0.00    -0.247 N 
ATOM     20  H   UNL d   1     -10.560   7.220  -0.325  0.00  0.00     0.192 HD
BRANCH  19  21
ATOM     21  N   UNL d   1     -12.633   7.082  -0.415  0.00  0.00    -0.184 NA
ATOM     22  C   UNL d   1     -12.839   8.364  -0.437  0.00  0.00     0.150 C 
BRANCH  22  23
ATOM     23  C   UNL d   1     -14.232   8.929  -0.492  0.00  0.00    -0.017 A 
ATOM     24  C   UNL d   1     -14.460  10.316  -0.523  0.00  0.00     0.015 A 
ATOM     25  C   UNL d   1     -15.774  10.827  -0.557  0.00  0.00     0.037 A 
ATOM     26  C   UNL d   1     -16.855   9.950  -0.560  0.00  0.00     0.065 A 
ATOM     27  C   UNL d   1     -16.641   8.578  -0.539  0.00  0.00     0.037 A 
ATOM     28  C   UNL d   1     -15.336   8.068  -0.505  0.00  0.00     0.015 A 
BRANCH  26  29
ATOM     29  O   UNL d   1     -18.148  10.384  -0.580  0.00  0.00    -0.361 OA
ATOM     30  H   UNL d   1     -18.174  11.354  -0.574  0.00  0.00     0.217 HD
ENDBRANCH  26  29
ENDBRANCH  22  23
ENDBRANCH  19  21
ENDBRANCH  16  17
ENDBRANCH   1  16
TORSDOF 9
