REMARK  6 active torsions:
REMARK  status: ('A' for Active; 'I' for Inactive)
REMARK    1  A    between atoms: C_2  and  C_3 
REMARK       I    between atoms: C_2  and  N_17 
REMARK    2  A    between atoms: C_3  and  N_4 
REMARK    3  A    between atoms: C_7  and  C_8 
REMARK    4  A    between atoms: C_11  and  O_12 
REMARK    5  A    between atoms: N_17  and  N_18 
REMARK       I    between atoms: N_18  and  C_19 
REMARK    6  A    between atoms: C_19  and  C_21 
ROOT
ATOM      1  O   UNL d   1       1.020   0.285   0.165  0.00  0.00    -0.270 OA
ATOM      2  C   UNL d   1       2.238   0.132   0.064  0.00  0.00     0.264 C 
ATOM      3  N   UNL d   1       3.024   1.255   0.148  0.00  0.00    -0.266 N 
ATOM      4  H   UNL d   1       2.536   2.142   0.293  0.00  0.00     0.190 HD
ENDROOT
BRANCH   2   5
ATOM      5  C   UNL d   1       2.933  -1.233  -0.172  0.00  0.00     0.376 C 
BRANCH   5   6
ATOM      6  N   UNL d   1       1.964  -2.341  -0.371  0.00  0.00     0.101 N 
ATOM      7  C   UNL d   1       1.102  -2.038  -1.525  0.00  0.00     0.301 C 
ATOM      8  C   UNL d   1       0.409  -3.199  -2.141  0.00  0.00     0.011 C 
ATOM      9  C   UNL d   1       0.620  -4.473  -1.779  0.00  0.00    -0.048 C 
ATOM     10  C   UNL d   1       1.608  -4.800  -0.697  0.00  0.00     0.069 C 
ATOM     11  C   UNL d   1       2.628  -3.650  -0.505  0.00  0.00     0.278 C 
BRANCH   9  12
ATOM     12  C   UNL d   1      -0.116  -5.519  -2.493  0.00  0.00    -0.030 A 
ATOM     13  C   UNL d   1      -0.967  -6.414  -1.837  0.00  0.00     0.014 A 
ATOM     14  C   UNL d   1      -1.739  -7.319  -2.578  0.00  0.00     0.037 A 
ATOM     15  C   UNL d   1      -1.646  -7.324  -3.969  0.00  0.00     0.065 A 
ATOM     16  C   UNL d   1      -0.787  -6.459  -4.629  0.00  0.00     0.037 A 
ATOM     17  C   UNL d   1      -0.022  -5.562  -3.893  0.00  0.00     0.014 A 
BRANCH  15  18
ATOM     18  O   UNL d   1      -2.389  -8.163  -4.747  0.00  0.00    -0.361 OA
ATOM     19  H   UNL d   1      -2.970  -8.692  -4.178  0.00  0.00     0.217 HD
ENDBRANCH  15  18
ENDBRANCH   9  12
ENDBRANCH   5   6
ENDBRANCH   2   5
BRANCH   3  20
ATOM     20  N   UNL d   1       4.418   1.299   0.090  0.00  0.00    -0.263 N 
ATOM     21  C   UNL d   1       5.039   2.516   0.328  0.00  0.00     0.270 C 
ATOM     22  O   UNL d   1       4.430   3.562   0.545  0.00  0.00    -0.266 OA
ATOM     23  H   UNL d   1       4.942   0.433   0.063  0.00  0.00     0.190 HD
BRANCH  21  24
ATOM     24  C   UNL d   1       6.528   2.499   0.332  0.00  0.00     0.033 A 
ATOM     25  C   UNL d   1       7.241   1.775  -0.632  0.00  0.00     0.019 A 
ATOM     26  C   UNL d   1       8.641   1.778  -0.618  0.00  0.00     0.025 A 
ATOM     27  C   UNL d   1       9.328   2.503   0.356  0.00  0.00     0.034 A 
ATOM     28 CL   UNL d   1      11.048   2.479   0.382  0.00  0.00    -0.084 Cl
ATOM     29  C   UNL d   1       8.627   3.245   1.304  0.00  0.00     0.025 A 
ATOM     30  C   UNL d   1       7.226   3.251   1.288  0.00  0.00     0.019 A 
ENDBRANCH  21  24
ENDBRANCH   3  20
TORSDOF 6
