@<TRIPOS>MOLECULE
*****
 60 63 0 0 0
SMALL
GASTEIGER

@<TRIPOS>ATOM
      1 C          -3.8982   -7.8340   -4.2502 C.3     1  UNL1       -0.0637
      2 C          -4.3250   -7.2663   -5.6195 C.3     1  UNL1       -0.0376
      3 C          -3.8643   -8.0251   -6.8072 C.3     1  UNL1        0.0297
      4 N          -4.2058   -7.2791   -8.0881 N.ar    1  UNL1       -0.2725
      5 C          -4.7850   -7.7246   -9.3413 C.ar    1  UNL1        0.3165
      6 O          -5.1817   -8.9867   -9.7420 O.3     1  UNL1       -0.4785
      7 N          -4.8780   -6.6352  -10.1353 N.ar    1  UNL1       -0.0913
      8 N          -4.3997   -5.4921   -9.4525 N.ar    1  UNL1       -0.1193
      9 C          -4.0097   -5.8552   -8.2418 C.ar    1  UNL1        0.1947
     10 S          -3.3591   -4.5911   -7.0448 S.3     1  UNL1       -0.0766
     11 C          -2.9302   -5.3983   -5.2397 C.3     1  UNL1        0.0776
     12 C          -2.2752   -4.4483   -4.4028 C.2     1  UNL1        0.2233
     13 O          -2.2140   -3.2805   -4.7262 O.2     1  UNL1       -0.2749
     14 N          -1.9369   -4.9732   -3.1834 N.am    1  UNL1       -0.3137
     15 C          -1.4264   -4.0805   -2.1699 C.3     1  UNL1        0.0225
     16 C          -0.9348   -4.7772   -0.9240 C.3     1  UNL1        0.0267
     17 C           0.5795   -4.7911   -0.9389 C.ar    1  UNL1       -0.0382
     18 C           1.3237   -5.3791   -1.9517 C.ar    1  UNL1       -0.0545
     19 C           2.6871   -5.5878   -1.7618 C.ar    1  UNL1       -0.0197
     20 C           3.3935   -4.9477   -0.7601 C.ar    1  UNL1        0.1201
     21 O           4.7583   -4.9835   -0.8055 O.3     1  UNL1       -0.4951
     22 C           5.4616   -4.2641    0.2142 C.3     1  UNL1        0.0788
     23 C           2.6531   -4.2938    0.1907 C.ar    1  UNL1       -0.0197
     24 C           1.2721   -4.1989    0.0994 C.ar    1  UNL1       -0.0545
     25 C          -1.4620   -6.1820   -0.8419 C.ar    1  UNL1       -0.0135
     26 C          -0.6592   -7.3234   -0.9182 C.ar    1  UNL1        0.0065
     27 N          -1.4502   -8.3991   -0.8935 N.ar    1  UNL1       -0.3603
     28 C          -2.7244   -8.0191   -0.8316 C.ar    1  UNL1        0.0467
     29 C          -3.7706   -8.8450   -0.7861 C.ar    1  UNL1       -0.0378
     30 C          -4.8896   -8.1232   -0.7403 C.ar    1  UNL1       -0.0598
     31 C          -5.9868   -7.4967   -0.7062 C.ar    1  UNL1       -0.0611
     32 C          -4.4482   -6.3464   -0.7670 C.ar    1  UNL1       -0.0523
     33 C          -2.8701   -6.6616   -0.8027 C.ar    1  UNL1        0.0035
     34 H          -4.2109   -7.2433   -3.3682 H       1  UNL1        0.0230
     35 H          -2.8182   -7.9848   -4.1486 H       1  UNL1        0.0230
     36 H          -4.3993   -8.7920   -4.1610 H       1  UNL1        0.0230
     37 H          -3.7618   -6.5905   -6.2146 H       1  UNL1        0.0280
     38 H          -5.3446   -6.9143   -5.5535 H       1  UNL1        0.0280
     39 H          -4.3567   -8.9535   -6.7056 H       1  UNL1        0.0494
     40 H          -2.7522   -8.1062   -6.6906 H       1  UNL1        0.0494
     41 H          -5.1018   -9.7628   -9.1380 H       1  UNL1        0.2953
     42 H          -2.1945   -6.2193   -5.5536 H       1  UNL1        0.0475
     43 H          -3.8065   -5.5955   -4.3911 H       1  UNL1        0.0475
     44 H          -2.0603   -5.9621   -2.9479 H       1  UNL1        0.1487
     45 H          -2.2140   -3.3817   -1.8815 H       1  UNL1        0.0471
     46 H          -0.6110   -3.5194   -2.6288 H       1  UNL1        0.0471
     47 H          -1.2687   -4.2586   -0.0237 H       1  UNL1        0.0413
     48 H           0.8236   -5.7254   -2.8513 H       1  UNL1        0.0622
     49 H           3.2061   -6.2863   -2.3901 H       1  UNL1        0.0654
     50 H           6.5424   -4.3603    0.0515 H       1  UNL1        0.0660
     51 H           5.2358   -4.6821    1.1987 H       1  UNL1        0.0660
     52 H           5.2168   -3.1972    0.1995 H       1  UNL1        0.0660
     53 H           3.1365   -3.8683    1.0449 H       1  UNL1        0.0654
     54 H           0.7309   -3.6327    0.8390 H       1  UNL1        0.0622
     55 H           0.4120   -7.4381   -0.9759 H       1  UNL1        0.0810
     56 H          -1.2332   -9.3765   -0.9011 H       1  UNL1        0.1653
     57 H          -3.8671   -9.8695   -0.7847 H       1  UNL1        0.0638
     58 H          -5.7034   -7.1612   -0.6945 H       1  UNL1        0.0618
     59 H          -6.6193   -8.7423   -0.6650 H       1  UNL1        0.0618
     60 H          -4.2499   -5.1560   -0.7891 H       1  UNL1        0.0624
@<TRIPOS>BOND
     1     1     2    1
     2     2     3    1
     3     3     4    1
     4     4     5   ar
     5     5     6    1
     6     5     7   ar
     7     7     8   ar
     8     8     9   ar
     9     4     9   ar
    10     9    10    1
    11    10    11    1
    12    11    12    1
    13    12    13    2
    14    12    14   am
    15    14    15    1
    16    17    18   ar
    17    18    19   ar
    18    19    20   ar
    19    20    21    1
    20    21    22    1
    21    20    23   ar
    22    23    24   ar
    23    17    24   ar
    24    16    25    1
    25    25    26   ar
    26    26    27   ar
    27    27    28   ar
    28    28    29   ar
    29    29    30   ar
    30    30    31   ar
    31    31    32   ar
    32    32    33   ar
    33    25    33   ar
    34    28    33   ar
    35    16    17    1
    36    16    15    1
    37     1    34    1
    38     1    35    1
    39     1    36    1
    40     2    37    1
    41     2    38    1
    42     3    39    1
    43     3    40    1
    44     6    41    1
    45    11    42    1
    46    11    43    1
    47    14    44    1
    48    15    45    1
    49    15    46    1
    50    16    47    1
    51    18    48    1
    52    19    49    1
    53    22    50    1
    54    22    51    1
    55    22    52    1
    56    23    53    1
    57    24    54    1
    58    26    55    1
    59    27    56    1
    60    29    57    1
    61    30    58    1
    62    31    59    1
    63    32    60    1
