@<TRIPOS>MOLECULE
*****
 60 63 0 0 0
SMALL
GASTEIGER

@<TRIPOS>ATOM
      1 C           1.0048    0.0919    0.0391 C.3     1  UNL1        0.0125
      2 C           2.4949    0.0433    0.1194 C.2     1  UNL1        0.2141
      3 O           3.0414   -0.7176    0.9167 O.2     1  UNL1       -0.2758
      4 N           3.1482    0.9367   -0.7123 N.am    1  UNL1       -0.2857
      5 C           4.5372    0.9362   -0.8052 C.ar    1  UNL1        0.0335
      6 C           5.2549    2.1327   -0.9609 C.ar    1  UNL1       -0.0387
      7 C           6.6162    2.0713   -1.1502 C.ar    1  UNL1       -0.0387
      8 C           7.1737    0.8052   -1.1699 C.ar    1  UNL1        0.0335
      9 N           8.4927    0.7100   -1.4216 N.am    1  UNL1       -0.2853
     10 C           9.1227   -0.4322   -1.7946 C.2     1  UNL1        0.2204
     11 O           8.6414   -1.5629   -2.0830 O.2     1  UNL1       -0.2752
     12 C          10.5476   -0.3431   -1.6692 C.3     1  UNL1        0.0387
     13 C          10.8716    1.0499   -1.0948 C.3     1  UNL1       -0.0260
     14 C          11.1920    2.1608   -2.0286 C.3     1  UNL1        0.0143
     15 N          11.9460    1.5169   -3.0681 N.pl3   1  UNL1       -0.3130
     16 C          12.9552    2.2576   -3.6247 C.ar    1  UNL1        0.1537
     17 N          12.7318    2.6663   -4.9119 N.ar    1  UNL1       -0.2361
     18 C          13.6895    3.4129   -5.4997 C.ar    1  UNL1        0.0479
     19 C          14.8656    3.7208   -4.8556 C.ar    1  UNL1        0.0471
     20 N          15.1119    3.3395   -3.5779 N.ar    1  UNL1       -0.2434
     21 C          14.1455    2.6130   -2.9207 C.ar    1  UNL1        0.1414
     22 S          14.6120    2.3578   -1.1635 S.3     1  UNL1       -0.0665
     23 C          13.7237    1.0826   -0.2014 C.ar    1  UNL1        0.0143
     24 C          12.8677    1.4291    0.9438 C.ar    1  UNL1       -0.0477
     25 C          11.8322    0.5278    1.5340 C.ar    1  UNL1       -0.0578
     26 C          11.5942   -0.7690    0.9999 C.ar    1  UNL1       -0.0504
     27 C          10.0191   -1.3405    1.1471 C.3     1  UNL1       -0.0397
     28 C          12.5830   -1.1743   -0.0615 C.ar    1  UNL1       -0.0578
     29 C          13.5645   -0.2284   -0.7001 C.ar    1  UNL1       -0.0477
     30 C          11.2778    0.4273   -3.7893 C.3     1  UNL1        0.0143
     31 C          11.2890   -0.7964   -2.9103 C.3     1  UNL1       -0.0260
     32 C           6.4976   -0.3660   -0.9458 C.ar    1  UNL1       -0.0387
     33 C           5.1649   -0.3010   -0.7866 C.ar    1  UNL1       -0.0387
     34 H           0.6108   -0.6107    0.7805 H       1  UNL1        0.0323
     35 H           0.6602   -0.2167   -0.9494 H       1  UNL1        0.0323
     36 H           0.6502    1.0933    0.2866 H       1  UNL1        0.0323
     37 H           2.6509    1.6192   -1.2653 H       1  UNL1        0.1548
     38 H           4.7872    3.1053   -0.8882 H       1  UNL1        0.0637
     39 H           7.2172    2.9638   -1.3311 H       1  UNL1        0.0637
     40 H           8.9616    1.5733   -1.1896 H       1  UNL1        0.1548
     41 H          10.6467   -1.1906   -1.0039 H       1  UNL1        0.0395
     42 H          11.7981    0.8549   -0.7377 H       1  UNL1        0.0288
     43 H          10.3695    1.4265   -0.1885 H       1  UNL1        0.0288
     44 H          11.7379    2.9561   -1.4930 H       1  UNL1        0.0464
     45 H          10.2523    2.5932   -2.3554 H       1  UNL1        0.0464
     46 H          13.4863    3.7601   -6.5085 H       1  UNL1        0.0846
     47 H          15.6452    4.2970   -5.3461 H       1  UNL1        0.0845
     48 H          12.6882    2.5043    1.1084 H       1  UNL1        0.0629
     49 H          11.0200    0.9732    2.1317 H       1  UNL1        0.0621
     50 H           9.5411   -1.0610    2.0993 H       1  UNL1        0.0278
     51 H           9.9215   -2.4190    0.9600 H       1  UNL1        0.0278
     52 H           9.2362   -0.9179    0.4795 H       1  UNL1        0.0278
     53 H          12.3574   -2.0519   -0.7005 H       1  UNL1        0.0621
     54 H          13.8164   -0.3312   -1.7833 H       1  UNL1        0.0629
     55 H          11.7466    0.1659   -4.7309 H       1  UNL1        0.0464
     56 H          10.2179    0.6611   -3.9328 H       1  UNL1        0.0464
     57 H          12.3101   -1.1780   -2.7819 H       1  UNL1        0.0288
     58 H          10.7776   -1.6733   -3.3210 H       1  UNL1        0.0288
     59 H           6.9663   -1.3378   -0.8997 H       1  UNL1        0.0637
     60 H           4.6591   -1.2500   -0.6841 H       1  UNL1        0.0637
@<TRIPOS>BOND
     1     1     2    1
     2     2     3    2
     3     2     4   am
     4     4     5    1
     5     5     6   ar
     6     6     7   ar
     7     7     8   ar
     8     8     9    1
     9     9    10   am
    10    10    11    2
    11    10    12    1
    12    12    13    1
    13    13    14    1
    14    14    15    1
    15    15    16    1
    16    16    17   ar
    17    17    18   ar
    18    18    19   ar
    19    19    20   ar
    20    20    21   ar
    21    16    21   ar
    22    21    22    1
    23    22    23    1
    24    23    24   ar
    25    24    25   ar
    26    25    26   ar
    27    26    27    1
    28    26    28   ar
    29    28    29   ar
    30    23    29   ar
    31    15    30    1
    32    30    31    1
    33    12    31    1
    34     8    32   ar
    35    32    33   ar
    36     5    33   ar
    37     1    34    1
    38     1    35    1
    39     1    36    1
    40     4    37    1
    41     6    38    1
    42     7    39    1
    43     9    40    1
    44    12    41    1
    45    13    42    1
    46    13    43    1
    47    14    44    1
    48    14    45    1
    49    18    46    1
    50    19    47    1
    51    24    48    1
    52    25    49    1
    53    27    50    1
    54    27    51    1
    55    27    52    1
    56    28    53    1
    57    29    54    1
    58    30    55    1
    59    30    56    1
    60    31    57    1
    61    31    58    1
    62    32    59    1
    63    33    60    1
