@<TRIPOS>MOLECULE
*****
 43 44 0 0 0
SMALL
GASTEIGER

@<TRIPOS>ATOM
      1 C           1.0251    0.1048   -0.1228 C.3     1  UNL1       -0.0253
      2 C           2.5713    0.0857   -0.1035 C.3     1  UNL1        0.1068
      3 C           3.0053    0.4561    1.3229 C.3     1  UNL1       -0.0253
      4 C           3.0053   -1.3444   -0.4591 C.3     1  UNL1       -0.0253
      5 O           3.0833    1.0555   -1.0831 O.3     1  UNL1       -0.4447
      6 C           4.4413    1.1864   -1.2160 C.2     1  UNL1        0.4008
      7 O           5.2705    0.5500   -0.5733 O.2     1  UNL1       -0.2265
      8 N           4.8105    2.1206   -2.1605 N.am    1  UNL1       -0.2806
      9 C           6.2317    2.3645   -2.4107 C.3     1  UNL1        0.0230
     10 C           6.5582    3.4180   -3.4844 C.3     1  UNL1        0.0399
     11 C           8.0770    3.5432   -3.6473 C.2     1  UNL1        0.2187
     12 O           8.8400    2.8714   -2.9545 O.2     1  UNL1       -0.2754
     13 N           8.5229    4.4793   -4.5813 N.am    1  UNL1       -0.2854
     14 C           9.9130    4.6960   -4.8132 C.ar    1  UNL1        0.0355
     15 C          10.4130    6.0164   -4.9551 C.ar    1  UNL1       -0.0384
     16 C          11.7903    6.2633   -5.1355 C.ar    1  UNL1       -0.0345
     17 C          12.6176    5.1680   -5.2212 C.ar    1  UNL1        0.0669
     18 N          13.9938    5.0900   -5.4188 N.ar    1  UNL1       -0.3061
     19 C          14.3672    3.7376   -5.4558 C.ar    1  UNL1        0.3250
     20 O          15.4926    3.2973   -5.6240 O.2     1  UNL1       -0.2468
     21 N          13.1952    2.9932   -5.2685 N.ar    1  UNL1       -0.3061
     22 C          12.1266    3.8719   -5.1180 C.ar    1  UNL1        0.0686
     23 C          10.7932    3.6052   -4.9044 C.ar    1  UNL1       -0.0150
     24 H           0.6153   -0.6132    0.6027 H       1  UNL1        0.0268
     25 H           0.6265   -0.1599   -1.1079 H       1  UNL1        0.0268
     26 H           0.6265    1.0926    0.1317 H       1  UNL1        0.0268
     27 H           2.6089   -0.2554    2.0561 H       1  UNL1        0.0268
     28 H           2.6545    1.4595    1.5875 H       1  UNL1        0.0268
     29 H           4.0908    0.4620    1.4381 H       1  UNL1        0.0268
     30 H           2.6089   -2.0703    0.2598 H       1  UNL1        0.0268
     31 H           4.0908   -1.4598   -0.4639 H       1  UNL1        0.0268
     32 H           2.6545   -1.6193   -1.4598 H       1  UNL1        0.0268
     33 H           4.0819    2.6125   -2.6568 H       1  UNL1        0.1520
     34 H           6.6833    1.4011   -2.6839 H       1  UNL1        0.0468
     35 H           6.6846    2.6545   -1.4526 H       1  UNL1        0.0468
     36 H           6.1402    4.3872   -3.1922 H       1  UNL1        0.0374
     37 H           6.1183    3.1217   -4.4420 H       1  UNL1        0.0374
     38 H           7.8771    5.1804   -4.9234 H       1  UNL1        0.1548
     39 H           9.7491    6.8725   -4.8567 H       1  UNL1        0.0637
     40 H          12.1839    7.2719   -5.1941 H       1  UNL1        0.0639
     41 H          14.6468    5.8483   -5.5279 H       1  UNL1        0.1704
     42 H          13.1645    1.9870   -5.2441 H       1  UNL1        0.1704
     43 H          10.4397    2.5844   -4.8308 H       1  UNL1        0.0657
@<TRIPOS>BOND
     1     1     2    1
     2     2     3    1
     3     2     4    1
     4     2     5    1
     5     5     6    1
     6     6     7    2
     7     6     8   am
     8     8     9    1
     9     9    10    1
    10    10    11    1
    11    11    12    2
    12    11    13   am
    13    13    14    1
    14    14    15   ar
    15    15    16   ar
    16    16    17   ar
    17    17    18   ar
    18    18    19   ar
    19    19    20    2
    20    19    21   ar
    21    21    22   ar
    22    17    22   ar
    23    22    23   ar
    24    14    23   ar
    25     1    24    1
    26     1    25    1
    27     1    26    1
    28     3    27    1
    29     3    28    1
    30     3    29    1
    31     4    30    1
    32     4    31    1
    33     4    32    1
    34     8    33    1
    35     9    34    1
    36     9    35    1
    37    10    36    1
    38    10    37    1
    39    13    38    1
    40    15    39    1
    41    16    40    1
    42    18    41    1
    43    21    42    1
    44    23    43    1
