@<TRIPOS>MOLECULE
*****
 54 57 0 0 0
SMALL
GASTEIGER

@<TRIPOS>ATOM
      1 C           1.1592   -0.0026   -0.0509 C.3     1  UNL1       -0.0377
      2 C           2.6809   -0.0786   -0.0611 C.ar    1  UNL1       -0.0168
      3 C           3.4427   -1.2857   -0.0562 C.ar    1  UNL1        0.0807
      4 C           3.1419   -2.7506   -0.0395 C.2     1  UNL1        0.2643
      5 O           2.0093   -3.2319   -0.0518 O.2     1  UNL1       -0.2683
      6 N           4.2811   -3.6141   -0.0005 N.am    1  UNL1       -0.2491
      7 N           4.1842   -5.0271   -0.0984 N.3     1  UNL1       -0.2541
      8 S           5.1144   -0.9340   -0.0912 S.2     1  UNL1       -0.0653
      9 C           4.8980    0.7120   -0.1326 C.ar    1  UNL1        0.0979
     10 C           3.5933    1.1325   -0.0931 C.ar    1  UNL1        0.0742
     11 C           3.3929    2.6205   -0.1074 C.ar    1  UNL1        0.2654
     12 O           2.2759    3.1291   -0.0538 O.2     1  UNL1       -0.2668
     13 N           4.5961    3.3869   -0.1352 N.ar    1  UNL1       -0.2559
     14 C           4.5500    4.8867   -0.0958 C.3     1  UNL1        0.0560
     15 C           5.8979    5.6513   -0.1539 C.ar    1  UNL1       -0.0275
     16 C           6.3415    6.4268    0.9412 C.ar    1  UNL1       -0.0569
     17 C           7.6537    6.9302    0.9981 C.ar    1  UNL1       -0.0614
     18 C           8.5530    6.6630   -0.0294 C.ar    1  UNL1       -0.0617
     19 C           8.1312    5.9186   -1.1266 C.ar    1  UNL1       -0.0614
     20 C           6.8103    5.4419   -1.2043 C.ar    1  UNL1       -0.0569
     21 C           5.7937    2.8087    0.2559 C.ar    1  UNL1        0.3335
     22 O           6.6062    3.3957    0.9813 O.2     1  UNL1       -0.2462
     23 N           6.0382    1.5025   -0.1238 N.ar    1  UNL1       -0.2784
     24 C           7.4296    0.9509   -0.0336 C.3     1  UNL1        0.1051
     25 C           8.6191    1.9298   -0.1617 C.2     1  UNL1        0.2372
     26 O           8.4720    3.0606   -0.6181 O.2     1  UNL1       -0.2735
     27 N           9.9055    1.4610    0.0982 N.am    1  UNL1       -0.2840
     28 C          10.9445    2.4403    0.0460 C.ar    1  UNL1        0.0334
     29 C          12.0098    2.3207   -0.8459 C.ar    1  UNL1       -0.0405
     30 C          12.9696    3.3422   -0.9204 C.ar    1  UNL1       -0.0600
     31 C          12.8793    4.4700   -0.0998 C.ar    1  UNL1       -0.0616
     32 C          11.8082    4.6019    0.7759 C.ar    1  UNL1       -0.0600
     33 C          10.8434    3.5963    0.8393 C.ar    1  UNL1       -0.0405
     34 H           0.6885   -0.9937   -0.0511 H       1  UNL1        0.0278
     35 H           0.7773    0.5256   -0.9338 H       1  UNL1        0.0278
     36 H           0.7809    0.5255    0.8335 H       1  UNL1        0.0278
     37 H           5.2142   -3.2074   -0.0737 H       1  UNL1        0.1690
     38 H           3.1885   -5.2733   -0.0758 H       1  UNL1        0.1405
     39 H           4.5860   -5.4527    0.7431 H       1  UNL1        0.1405
     40 H           4.0081    5.1869    0.8098 H       1  UNL1        0.0544
     41 H           3.9495    5.2294   -0.9485 H       1  UNL1        0.0544
     42 H           5.7057    6.5718    1.8113 H       1  UNL1        0.0621
     43 H           7.9956    7.4768    1.8743 H       1  UNL1        0.0618
     44 H           9.5906    6.9797    0.0460 H       1  UNL1        0.0618
     45 H           8.8632    5.6035   -1.8693 H       1  UNL1        0.0618
     46 H           6.5649    4.7642   -2.0175 H       1  UNL1        0.0621
     47 H           7.5321    0.2907   -0.9064 H       1  UNL1        0.0589
     48 H           7.5167    0.3508    0.8782 H       1  UNL1        0.0589
     49 H          10.1263    0.5290   -0.2322 H       1  UNL1        0.1549
     50 H          12.0665    1.4956   -1.5486 H       1  UNL1        0.0636
     51 H          13.7870    3.2711   -1.6336 H       1  UNL1        0.0618
     52 H          13.6325    5.2523   -0.1531 H       1  UNL1        0.0618
     53 H          11.7057    5.4878    1.3975 H       1  UNL1        0.0618
     54 H           9.9842    3.7411    1.4921 H       1  UNL1        0.0636
@<TRIPOS>BOND
     1     1     2    1
     2     2     3   ar
     3     3     4    1
     4     4     5    2
     5     4     6   am
     6     6     7    1
     7     3     8   ar
     8     8     9   ar
     9     9    10   ar
    10     2    10   ar
    11    10    11   ar
    12    11    12    2
    13    11    13   ar
    14    13    14    1
    15    14    15    1
    16    15    16   ar
    17    16    17   ar
    18    17    18   ar
    19    18    19   ar
    20    19    20   ar
    21    15    20   ar
    22    13    21   ar
    23    21    22    2
    24    21    23   ar
    25     9    23   ar
    26    23    24    1
    27    24    25    1
    28    25    26    2
    29    25    27   am
    30    27    28    1
    31    28    29   ar
    32    29    30   ar
    33    30    31   ar
    34    31    32   ar
    35    32    33   ar
    36    28    33   ar
    37     1    34    1
    38     1    35    1
    39     1    36    1
    40     6    37    1
    41     7    38    1
    42     7    39    1
    43    14    40    1
    44    14    41    1
    45    16    42    1
    46    17    43    1
    47    18    44    1
    48    19    45    1
    49    20    46    1
    50    24    47    1
    51    24    48    1
    52    27    49    1
    53    29    50    1
    54    30    51    1
    55    31    52    1
    56    32    53    1
    57    33    54    1
