REMARK  12 active torsions:
REMARK  status: ('A' for Active; 'I' for Inactive)
REMARK    1  A    between atoms: O_2  and  C_3 
REMARK    2  A    between atoms: C_3  and  C_5 
REMARK    3  A    between atoms: C_9  and  C_10 
REMARK    4  A    between atoms: N_11  and  C_10 
REMARK    5  A    between atoms: N_11  and  C_16 
REMARK    6  A    between atoms: N_11  and  C_12 
REMARK    7  A    between atoms: C_12  and  C_13 
REMARK    8  A    between atoms: C_17  and  C_16 
REMARK    9  A    between atoms: C_17  and  C_19 
REMARK   10  A    between atoms: C_17  and  O_18 
REMARK   11  A    between atoms: C_19  and  O_20 
REMARK   12  A    between atoms: O_20  and  C_21 
ROOT
ATOM      1  N   UNL d   1      12.576   0.651   2.120  0.00  0.00    -0.062 N 
ATOM      2  H   UNL d   1      12.438   1.234   1.284  0.00  0.00     0.280 HD
ENDROOT
BRANCH   1   3
ATOM      3  C   UNL d   1      13.954   0.070   1.891  0.00  0.00     0.269 C 
BRANCH   3   4
ATOM      4  C   UNL d   1      14.177  -0.833   0.708  0.00  0.00     0.168 C 
BRANCH   4   5
ATOM      5  C   UNL d   1      15.501  -1.505   0.955  0.00  0.00     0.209 C 
BRANCH   5   6
ATOM      6  O   UNL d   1      16.546  -0.573   0.884  0.00  0.00    -0.348 OA
BRANCH   6   7
ATOM      7  C   UNL d   1      17.763  -1.191   0.962  0.00  0.00     0.074 C 
ATOM      8  C   UNL d   1      18.649  -0.610   1.869  0.00  0.00     0.037 C 
ATOM      9  C   UNL d   1      19.867  -1.226   2.119  0.00  0.00     0.003 C 
ATOM     10  C   UNL d   1      20.310  -2.237   1.274  0.00  0.00     0.001 C 
ATOM     11  C   UNL d   1      19.471  -2.738   0.285  0.00  0.00     0.009 C 
ATOM     12  C   UNL d   1      18.154  -2.296   0.184  0.00  0.00    -0.029 C 
ATOM     13  C   UNL d   1      17.250  -3.069  -0.731  0.00  0.00     0.051 C 
ENDBRANCH   6   7
ENDBRANCH   5   6
ENDBRANCH   4   5
BRANCH   4  14
ATOM     14  O   UNL d   1      13.328  -1.953   0.588  0.00  0.00    -0.392 OA
ATOM     15  H   UNL d   1      13.515  -2.568   1.333  0.00  0.00     0.210 HD
ENDBRANCH   4  14
ENDBRANCH   3   4
ENDBRANCH   1   3
BRANCH   1  16
ATOM     16  C   UNL d   1      11.337  -0.235   2.191  0.00  0.00     0.239 C 
BRANCH  16  17
ATOM     17  C   UNL d   1      11.415  -1.756   2.361  0.00  0.00     0.003 C 
ATOM     18  C   UNL d   1      12.260  -2.303   3.502  0.00  0.00     0.011 C 
ATOM     19  C   UNL d   1      10.046  -2.402   2.411  0.00  0.00     0.011 C 
ENDBRANCH  16  17
ENDBRANCH   1  16
BRANCH   1  20
ATOM     20  C   UNL d   1      12.581   1.674   3.322  0.00  0.00     0.313 C 
BRANCH  20  21
ATOM     21  C   UNL d   1      13.327   1.162   4.560  0.00  0.00     0.134 C 
ATOM     22  N   UNL d   1      13.811  -0.025   4.492  0.00  0.00    -0.225 NA
ATOM     23  C   UNL d   1      14.609  -0.466   5.460  0.00  0.00     0.116 A 
ATOM     24  S   UNL d   1      15.478  -1.906   5.271  0.00  0.00    -0.063 SA
ATOM     25  C   UNL d   1      14.842   0.188   6.629  0.00  0.00     0.075 A 
ATOM     26  C   UNL d   1      16.086  -1.792   6.855  0.00  0.00     0.089 A 
ATOM     27  C   UNL d   1      15.673  -0.614   7.479  0.00  0.00    -0.020 A 
ATOM     28  C   UNL d   1      16.077  -0.213   8.846  0.00  0.00     0.051 C 
ATOM     29  C   UNL d   1      14.206   1.494   6.768  0.00  0.00     0.260 C 
ATOM     30  N   UNL d   1      13.505   1.943   5.657  0.00  0.00    -0.309 N 
ATOM     31  O   UNL d   1      14.261   2.192   7.781  0.00  0.00    -0.267 OA
ATOM     32  H   UNL d   1      13.059   2.843   5.764  0.00  0.00     0.170 HD
BRANCH  26  33
ATOM     33  C   UNL d   1      16.941  -2.878   7.307  0.00  0.00     0.300 C 
ATOM     34  O   UNL d   1      17.787  -3.441   6.640  0.00  0.00    -0.259 OA
BRANCH  33  35
ATOM     35  O   UNL d   1      16.621  -3.205   8.595  0.00  0.00    -0.322 OA
ATOM     36  C   UNL d   1      17.416  -4.267   9.124  0.00  0.00     0.213 C 
ENDBRANCH  33  35
ENDBRANCH  26  33
ENDBRANCH  20  21
ENDBRANCH   1  20
TORSDOF 12
