@<TRIPOS>MOLECULE
*****
 48 50 0 0 0
SMALL
GASTEIGER

@<TRIPOS>ATOM
      1 O           1.0211   -0.0407   -0.1297 O.2     1  UNL1       -0.2743
      2 C           2.2492   -0.0132   -0.0485 C.2     1  UNL1        0.2294
      3 C           2.9588    0.3918    1.2305 C.3     1  UNL1        0.0294
      4 C           1.9741    0.7465    2.3550 C.3     1  UNL1       -0.0193
      5 C           2.6896    1.1572    3.6234 C.ar    1  UNL1       -0.0432
      6 C           3.3177    0.1821    4.4325 C.ar    1  UNL1       -0.0549
      7 C           3.9980    0.5432    5.6006 C.ar    1  UNL1       -0.0159
      8 C           4.0224    1.8775    5.9421 C.ar    1  UNL1        0.1662
      9 C           3.4047    2.8322    5.1700 C.ar    1  UNL1        0.1665
     10 C           2.7376    2.5079    4.0061 C.ar    1  UNL1       -0.0130
     11 O           3.5377    4.0829    5.6888 O.3     1  UNL1       -0.4526
     12 C           4.2306    3.7914    6.9208 C.3     1  UNL1        0.2332
     13 O           4.6286    2.4090    7.0375 O.3     1  UNL1       -0.4526
     14 N           3.0166   -0.3604   -1.1416 N.am    1  UNL1       -0.2332
     15 N           4.4291   -0.3830   -1.2107 N.am    1  UNL1       -0.2182
     16 C           5.0321   -0.7598   -2.4034 C.2     1  UNL1        0.3160
     17 O           4.4012   -1.0788   -3.4095 O.2     1  UNL1       -0.2513
     18 N           6.4159   -0.7444   -2.3693 N.am    1  UNL1       -0.2982
     19 C           7.2042   -1.1230   -3.5431 C.3     1  UNL1        0.0147
     20 C           8.7195   -1.0512   -3.3178 C.3     1  UNL1       -0.0191
     21 C           9.5134   -1.4450   -4.5683 C.3     1  UNL1        0.0296
     22 N          10.9691   -1.3834   -4.3253 N.ar    1  UNL1       -0.2957
     23 C          11.8268   -2.4737   -4.1967 C.ar    1  UNL1        0.0732
     24 C          13.0808   -1.9720   -3.9848 C.ar    1  UNL1        0.1870
     25 N          12.9549   -0.6036   -4.0010 N.ar    1  UNL1       -0.2011
     26 C          11.6848   -0.2500   -4.2203 C.ar    1  UNL1        0.2463
     27 H           3.5945    1.2578    1.0156 H       1  UNL1        0.0362
     28 H           3.5963   -0.4414    1.5459 H       1  UNL1        0.0362
     29 H           1.3169   -0.1036    2.5825 H       1  UNL1        0.0318
     30 H           1.3055    1.5565    2.0340 H       1  UNL1        0.0318
     31 H           3.2669   -0.8692    4.1556 H       1  UNL1        0.0621
     32 H           4.4790   -0.2013    6.2248 H       1  UNL1        0.0655
     33 H           2.2566    3.2842    3.4200 H       1  UNL1        0.0658
     34 H           3.5707    4.0365    7.7619 H       1  UNL1        0.1166
     35 H           5.1235    4.4240    6.9808 H       1  UNL1        0.1166
     36 H           2.5143   -0.6301   -1.9898 H       1  UNL1        0.1728
     37 H           4.9570   -0.1216   -0.3906 H       1  UNL1        0.1744
     38 H           6.8771   -0.4883   -1.5090 H       1  UNL1        0.1503
     39 H           6.9184   -0.4589   -4.3676 H       1  UNL1        0.0463
     40 H           6.9166   -2.1413   -3.8308 H       1  UNL1        0.0463
     41 H           9.0077   -1.7101   -2.4899 H       1  UNL1        0.0297
     42 H           9.0034   -0.0358   -3.0164 H       1  UNL1        0.0297
     43 H           9.2912   -0.7752   -5.4074 H       1  UNL1        0.0494
     44 H           9.2630   -2.4648   -4.8840 H       1  UNL1        0.0494
     45 H          11.4330   -3.4735   -4.2694 H       1  UNL1        0.0871
     46 H          14.0516   -2.4085   -3.8240 H       1  UNL1        0.1392
     47 H          13.7187    0.0573   -3.8717 H       1  UNL1        0.4538
     48 H          11.3068    0.7635   -4.2876 H       1  UNL1        0.1600
@<TRIPOS>UNITY_ATOM_ATTR
25 1
charge 1
@<TRIPOS>BOND
     1     1     2    2
     2     2     3    1
     3     3     4    1
     4     4     5    1
     5     5     6   ar
     6     6     7   ar
     7     7     8   ar
     8     8     9   ar
     9     9    10   ar
    10     5    10   ar
    11     9    11    1
    12    11    12    1
    13    12    13    1
    14     8    13    1
    15     2    14   am
    16    14    15    1
    17    15    16   am
    18    16    17    2
    19    16    18   am
    20    18    19    1
    21    19    20    1
    22    20    21    1
    23    21    22    1
    24    22    23   ar
    25    23    24   ar
    26    24    25   ar
    27    25    26   ar
    28    22    26   ar
    29     3    27    1
    30     3    28    1
    31     4    29    1
    32     4    30    1
    33     6    31    1
    34     7    32    1
    35    10    33    1
    36    12    34    1
    37    12    35    1
    38    14    36    1
    39    15    37    1
    40    18    38    1
    41    19    39    1
    42    19    40    1
    43    20    41    1
    44    20    42    1
    45    21    43    1
    46    21    44    1
    47    23    45    1
    48    24    46    1
    49    25    47    1
    50    26    48    1
