@<TRIPOS>MOLECULE
*****
 42 43 0 0 0
SMALL
GASTEIGER

@<TRIPOS>ATOM
      1 C           3.0829   -0.3398    1.3613 C.3     1  UNL1       -0.0381
      2 C           2.4992   -0.0352   -0.0229 C.3     1  UNL1        0.0949
      3 N           1.0277    0.1646   -0.0587 N.pl3   1  UNL1       -0.3331
      4 C           0.2672    0.7913    0.9115 C.ar    1  UNL1        0.0279
      5 C           0.8147    1.5748    1.9233 C.ar    1  UNL1       -0.0374
      6 C           0.0747    1.9764    3.0272 C.ar    1  UNL1       -0.0182
      7 C          -1.3048    1.8915    2.9828 C.ar    1  UNL1        0.1211
      8 O          -1.9347    2.5246    4.0043 O.3     1  UNL1       -0.4873
      9 C          -3.3590    2.5693    3.9718 C.3     1  UNL1        0.1160
     10 C          -3.7988    3.3263    5.1973 C.ar    1  UNL1        0.0079
     11 C          -4.6539    4.4352    5.0659 C.ar    1  UNL1       -0.0540
     12 C          -4.9091    5.2615    6.1614 C.ar    1  UNL1       -0.0613
     13 C          -4.3846    4.9441    7.4122 C.ar    1  UNL1       -0.0604
     14 C          -3.5985    3.8051    7.5695 C.ar    1  UNL1       -0.0430
     15 C          -3.3186    2.9904    6.4743 C.ar    1  UNL1        0.0474
     16 CL         -2.3851    1.5626    6.7704 Cl      1  UNL1       -0.0831
     17 C          -1.9125    1.2738    1.8970 C.ar    1  UNL1       -0.0182
     18 C          -1.1289    0.7152    0.8772 C.ar    1  UNL1       -0.0374
     19 C           2.8652   -1.2384   -0.9459 C.2     1  UNL1        0.2404
     20 O           1.9911   -1.9311   -1.4752 O.2     1  UNL1       -0.2733
     21 N           4.2255   -1.4785   -1.1216 N.am    1  UNL1       -0.2388
     22 C           4.8061   -2.4978   -1.8268 C.2     1  UNL1        0.3034
     23 N           3.9773   -3.3653   -2.4373 N.am    1  UNL1       -0.3130
     24 O           6.0310   -2.6149   -1.8961 O.2     1  UNL1       -0.2527
     25 H           4.1730   -0.4064    1.3176 H       1  UNL1        0.0252
     26 H           2.6804   -1.2721    1.7659 H       1  UNL1        0.0252
     27 H           2.9153    0.4171    2.1209 H       1  UNL1        0.0252
     28 H           2.9499    0.8662   -0.4522 H       1  UNL1        0.0591
     29 H           0.5410   -0.5570   -0.5982 H       1  UNL1        0.1468
     30 H           1.8446    1.8999    1.8914 H       1  UNL1        0.0637
     31 H           0.5841    2.3924    3.8928 H       1  UNL1        0.0655
     32 H          -3.7869    1.5617    3.9870 H       1  UNL1        0.0748
     33 H          -3.6772    3.1015    3.0660 H       1  UNL1        0.0748
     34 H          -5.1073    4.6800    4.1065 H       1  UNL1        0.0622
     35 H          -5.4970    6.1678    6.0359 H       1  UNL1        0.0618
     36 H          -4.5936    5.5774    8.2694 H       1  UNL1        0.0618
     37 H          -3.1861    3.5607    8.5441 H       1  UNL1        0.0632
     38 H          -2.9905    1.2037    1.8181 H       1  UNL1        0.0655
     39 H          -1.6365    0.2363    0.0437 H       1  UNL1        0.0637
     40 H           4.9095   -0.8807   -0.6802 H       1  UNL1        0.1591
     41 H           2.9701   -3.2459   -2.3558 H       1  UNL1        0.1465
     42 H           4.3433   -4.1329   -2.9804 H       1  UNL1        0.1465
@<TRIPOS>BOND
     1     3     4    1
     2     4     5   ar
     3     5     6   ar
     4     6     7   ar
     5     7     8    1
     6     8     9    1
     7     9    10    1
     8    10    11   ar
     9    11    12   ar
    10    12    13   ar
    11    13    14   ar
    12    14    15   ar
    13    10    15   ar
    14    15    16    1
    15     7    17   ar
    16    17    18   ar
    17     4    18   ar
    18     2    19    1
    19    19    20    2
    20    19    21   am
    21    21    22   am
    22    22    23   am
    23    22    24    2
    24     2     3    1
    25     2     1    1
    26     1    25    1
    27     1    26    1
    28     1    27    1
    29     2    28    1
    30     3    29    1
    31     5    30    1
    32     6    31    1
    33     9    32    1
    34     9    33    1
    35    11    34    1
    36    12    35    1
    37    13    36    1
    38    14    37    1
    39    17    38    1
    40    18    39    1
    41    21    40    1
    42    23    41    1
    43    23    42    1
