@<TRIPOS>MOLECULE
*****
 48 48 0 0 0
SMALL
GASTEIGER

@<TRIPOS>ATOM
      1 C           1.1064    0.0190   -0.0569 C.3     1  UNL1       -0.0306
      2 C           2.6263    0.0375   -0.0432 C.3     1  UNL1        0.0896
      3 O           3.1019    1.1334    0.7657 O.3     1  UNL1       -0.4649
      4 C           4.4650    1.2173    0.8276 C.2     1  UNL1        0.3071
      5 O           5.2258    0.4449    0.2577 O.2     1  UNL1       -0.2509
      6 C           4.9243    2.3835    1.6884 C.3     1  UNL1        0.0449
      7 C           6.4582    2.4380    1.7286 C.3     1  UNL1       -0.0430
      8 C           6.9869    3.5917    2.5802 C.3     1  UNL1       -0.0525
      9 C           8.5211    3.6113    2.5946 C.3     1  UNL1       -0.0516
     10 C           9.0585    4.7694    3.4498 C.3     1  UNL1       -0.0373
     11 C          10.5936    4.8034    3.4760 C.3     1  UNL1        0.0131
     12 N          11.1530    5.8834    4.3009 N.am    1  UNL1       -0.2982
     13 C          12.5249    6.0560    4.4248 C.2     1  UNL1        0.3159
     14 O          13.3348    5.3384    3.8417 O.2     1  UNL1       -0.2513
     15 N          12.9124    7.0706    5.3115 N.am    1  UNL1       -0.2203
     16 N          14.2715    7.5132    5.2280 N.pl3   1  UNL1       -0.2633
     17 C          14.7776    8.4251    6.1885 C.ar    1  UNL1        0.0457
     18 C          14.1766    8.6755    7.4282 C.ar    1  UNL1       -0.0393
     19 C          14.6840    9.6508    8.3058 C.ar    1  UNL1       -0.0588
     20 C          15.8121   10.3948    7.9647 C.ar    1  UNL1       -0.0442
     21 C          16.4542   10.1463    6.7521 C.ar    1  UNL1        0.0536
     22 C          17.6652   10.8612    6.4422 C.1     1  UNL1        0.0992
     23 N          18.6519   11.4298    6.2380 N.1     1  UNL1       -0.1909
     24 C          15.9325    9.1765    5.8714 C.ar    1  UNL1       -0.0220
     25 H           0.7314   -0.8095   -0.6683 H       1  UNL1        0.0262
     26 H           0.7086    0.9547   -0.4618 H       1  UNL1        0.0262
     27 H           0.7086   -0.0923    0.9566 H       1  UNL1        0.0262
     28 H           2.9910    0.1506   -1.0712 H       1  UNL1        0.0694
     29 H           2.9910   -0.9115    0.3678 H       1  UNL1        0.0694
     30 H           4.5375    2.2601    2.7061 H       1  UNL1        0.0377
     31 H           4.5375    3.3197    1.2706 H       1  UNL1        0.0377
     32 H           6.8460    2.5352    0.7064 H       1  UNL1        0.0270
     33 H           6.8460    1.4898    2.1227 H       1  UNL1        0.0270
     34 H           6.6119    3.4924    3.6055 H       1  UNL1        0.0265
     35 H           6.6118    4.5423    2.1832 H       1  UNL1        0.0265
     36 H           8.8930    3.7032    1.5662 H       1  UNL1        0.0266
     37 H           8.8929    2.6556    2.9854 H       1  UNL1        0.0266
     38 H           8.6713    4.6688    4.4708 H       1  UNL1        0.0280
     39 H           8.6719    5.7158    3.0530 H       1  UNL1        0.0280
     40 H          10.9768    4.9101    2.4540 H       1  UNL1        0.0462
     41 H          10.9733    3.8529    3.8692 H       1  UNL1        0.0462
     42 H          10.5160    6.5250    4.7469 H       1  UNL1        0.1503
     43 H          12.2562    7.7893    5.5888 H       1  UNL1        0.1743
     44 H          14.9254    6.7853    4.9150 H       1  UNL1        0.1700
     45 H          13.3204    8.0912    7.7512 H       1  UNL1        0.0636
     46 H          14.2067    9.8204    9.2690 H       1  UNL1        0.0619
     47 H          16.1948   11.1472    8.6547 H       1  UNL1        0.0630
     48 H          16.4245    9.0234    4.9116 H       1  UNL1        0.0649
@<TRIPOS>BOND
     1     1     2    1
     2     2     3    1
     3     3     4    1
     4     4     5    2
     5     4     6    1
     6     6     7    1
     7     7     8    1
     8     8     9    1
     9     9    10    1
    10    10    11    1
    11    11    12    1
    12    12    13   am
    13    13    14    2
    14    13    15   am
    15    15    16    1
    16    16    17    1
    17    17    18   ar
    18    18    19   ar
    19    19    20   ar
    20    20    21   ar
    21    21    22    1
    22    22    23    3
    23    21    24   ar
    24    17    24   ar
    25     1    25    1
    26     1    26    1
    27     1    27    1
    28     2    28    1
    29     2    29    1
    30     6    30    1
    31     6    31    1
    32     7    32    1
    33     7    33    1
    34     8    34    1
    35     8    35    1
    36     9    36    1
    37     9    37    1
    38    10    38    1
    39    10    39    1
    40    11    40    1
    41    11    41    1
    42    12    42    1
    43    15    43    1
    44    16    44    1
    45    18    45    1
    46    19    46    1
    47    20    47    1
    48    24    48    1
