@<TRIPOS>MOLECULE
*****
 57 59 0 0 0
SMALL
GASTEIGER

@<TRIPOS>ATOM
      1 C           0.9202   -0.0648   -0.0104 C.3     1  UNL1       -0.0652
      2 C           2.4395   -0.0641    0.0026 C.3     1  UNL1       -0.0528
      3 C           2.9850    0.3066    1.3810 C.3     1  UNL1       -0.0189
      4 C           4.5146    0.3022    1.3886 C.3     1  UNL1        0.0896
      5 O           4.9719    0.5779    2.7151 O.3     1  UNL1       -0.4920
      6 C           6.3251    0.7295    2.8661 C.ar    1  UNL1        0.1205
      7 C           6.8587    0.2711    4.0687 C.ar    1  UNL1       -0.0192
      8 C           8.2084    0.4931    4.3738 C.ar    1  UNL1       -0.0443
      9 C           9.0704    1.1241    3.4577 C.ar    1  UNL1        0.0596
     10 C          10.5187    1.2219    3.8269 C.2     1  UNL1        0.3444
     11 O          10.9217    0.7652    4.8971 O.2     1  UNL1       -0.2445
     12 O          11.3138    1.8295    2.8579 O.3     1  UNL1       -0.4223
     13 C          12.7281    1.8044    3.0263 C.ar    1  UNL1        0.1320
     14 C          13.4670    2.9327    2.6545 C.ar    1  UNL1       -0.0186
     15 C          14.8786    2.9188    2.7439 C.ar    1  UNL1       -0.0496
     16 C          15.5488    1.8002    3.2651 C.ar    1  UNL1       -0.0052
     17 C          17.0297    1.8180    3.5106 C.2     1  UNL1        0.0528
     18 N          17.6390    0.7938    4.0275 N.2     1  UNL1       -0.1875
     19 N          18.9932    0.8779    4.2767 N.am    1  UNL1       -0.2029
     20 C          19.6526   -0.2193    4.8394 C.2     1  UNL1        0.2668
     21 O          19.1210   -1.2969    5.1066 O.2     1  UNL1       -0.2683
     22 C          21.1176   -0.0864    5.1267 C.ar    1  UNL1        0.0799
     23 C          21.9489   -1.2082    4.9232 C.ar    1  UNL1       -0.0426
     24 C          23.2940   -1.1980    5.3248 C.ar    1  UNL1       -0.0192
     25 C          23.8226   -0.0461    5.8935 C.ar    1  UNL1        0.1204
     26 O          25.1378    0.0393    6.2495 O.3     1  UNL1       -0.5066
     27 C          23.0199    1.0742    6.1026 C.ar    1  UNL1        0.0221
     28 C          21.6735    1.0561    5.7098 C.ar    1  UNL1        0.1325
     29 O          20.8977    2.1666    5.9018 O.3     1  UNL1       -0.5059
     30 C          14.7989    0.6699    3.6062 C.ar    1  UNL1       -0.0496
     31 C          13.4018    0.6630    3.4667 C.ar    1  UNL1       -0.0186
     32 C           8.5305    1.5835    2.2522 C.ar    1  UNL1       -0.0443
     33 C           7.1624    1.3943    1.9662 C.ar    1  UNL1       -0.0192
     34 H           0.5478   -0.3396   -1.0022 H       1  UNL1        0.0230
     35 H           0.5271    0.9259    0.2388 H       1  UNL1        0.0230
     36 H           0.5249   -0.7845    0.7134 H       1  UNL1        0.0230
     37 H           2.8062    0.6447   -0.7494 H       1  UNL1        0.0264
     38 H           2.8027   -1.0576   -0.2852 H       1  UNL1        0.0264
     39 H           2.6061   -0.3884    2.1401 H       1  UNL1        0.0298
     40 H           2.6207    1.3001    1.6739 H       1  UNL1        0.0298
     41 H           4.8561    1.0570    0.6746 H       1  UNL1        0.0696
     42 H           4.8839   -0.6844    1.0867 H       1  UNL1        0.0696
     43 H           6.2283   -0.2660    4.7750 H       1  UNL1        0.0654
     44 H           8.5843    0.1692    5.3439 H       1  UNL1        0.0627
     45 H          12.9565    3.8300    2.3125 H       1  UNL1        0.0654
     46 H          15.4357    3.7906    2.4088 H       1  UNL1        0.0625
     47 H          17.5680    2.7464    3.2483 H       1  UNL1        0.0851
     48 H          19.4888    1.7528    4.1410 H       1  UNL1        0.1776
     49 H          21.5439   -2.1036    4.4530 H       1  UNL1        0.0627
     50 H          23.8970   -2.0951    5.2078 H       1  UNL1        0.0654
     51 H          25.6092   -0.7535    5.9400 H       1  UNL1        0.2921
     52 H          23.4607    1.9439    6.5805 H       1  UNL1        0.0691
     53 H          21.4147    2.8318    6.3878 H       1  UNL1        0.2922
     54 H          15.2951   -0.2175    3.9954 H       1  UNL1        0.0625
     55 H          12.8585   -0.2374    3.7383 H       1  UNL1        0.0654
     56 H           9.1467    2.1045    1.5250 H       1  UNL1        0.0627
     57 H           6.7709    1.8031    1.0405 H       1  UNL1        0.0654
@<TRIPOS>BOND
     1     1     2    1
     2     2     3    1
     3     3     4    1
     4     4     5    1
     5     5     6    1
     6     6     7   ar
     7     7     8   ar
     8     8     9   ar
     9     9    10    1
    10    10    11    2
    11    10    12    1
    12    12    13    1
    13    13    14   ar
    14    14    15   ar
    15    15    16   ar
    16    16    17    1
    17    17    18    2
    18    18    19    1
    19    19    20   am
    20    20    21    2
    21    20    22    1
    22    22    23   ar
    23    23    24   ar
    24    24    25   ar
    25    25    26    1
    26    25    27   ar
    27    27    28   ar
    28    22    28   ar
    29    28    29    1
    30    16    30   ar
    31    30    31   ar
    32    13    31   ar
    33     9    32   ar
    34    32    33   ar
    35     6    33   ar
    36     1    34    1
    37     1    35    1
    38     1    36    1
    39     2    37    1
    40     2    38    1
    41     3    39    1
    42     3    40    1
    43     4    41    1
    44     4    42    1
    45     7    43    1
    46     8    44    1
    47    14    45    1
    48    15    46    1
    49    17    47    1
    50    19    48    1
    51    23    49    1
    52    24    50    1
    53    26    51    1
    54    27    52    1
    55    29    53    1
    56    30    54    1
    57    31    55    1
    58    32    56    1
    59    33    57    1
