REMARK  6 active torsions:
REMARK  status: ('A' for Active; 'I' for Inactive)
REMARK    1  A    between atoms: C_5  and  C_6 
REMARK       I    between atoms: C_6  and  N_8 
REMARK    2  A    between atoms: N_8  and  N_9 
REMARK       I    between atoms: N_9  and  C_10 
REMARK    3  A    between atoms: C_10  and  C_12 
REMARK    4  A    between atoms: C_12  and  C_13 
REMARK    5  A    between atoms: C_13  and  C_14 
REMARK       I    between atoms: C_14  and  N_16 
REMARK    6  A    between atoms: N_16  and  C_17 
ROOT
ATOM      1  N   UNL d   1      -5.500   1.329  -0.089  0.00  0.00    -0.267 N 
ATOM      2  C   UNL d   1      -6.113   2.579  -0.101  0.00  0.00     0.236 C 
ATOM      3  O   UNL d   1      -5.455   3.621  -0.089  0.00  0.00    -0.272 OA
ATOM      4  H   UNL d   1      -5.990   0.436  -0.101  0.00  0.00     0.190 HD
ENDROOT
BRANCH   2   5
ATOM      5  C   UNL d   1      -7.642   2.580  -0.132  0.00  0.00     0.114 C 
BRANCH   5   6
ATOM      6  C   UNL d   1      -8.261   4.006  -0.139  0.00  0.00     0.112 C 
BRANCH   6   7
ATOM      7  C   UNL d   1      -9.790   3.949  -0.149  0.00  0.00     0.222 C 
ATOM      8  O   UNL d   1     -10.363   2.859  -0.163  0.00  0.00    -0.273 OA
ATOM      9  N   UNL d   1     -10.458   5.178  -0.183  0.00  0.00    -0.327 N 
ATOM     10  H   UNL d   1      -9.943   6.014  -0.431  0.00  0.00     0.169 HD
BRANCH   9  11
ATOM     11  C   UNL d   1     -11.883   5.253  -0.206  0.00  0.00     0.035 A 
ATOM     12  C   UNL d   1     -12.641   4.408   0.604  0.00  0.00     0.030 A 
ATOM     13  C   UNL d   1     -14.036   4.423   0.561  0.00  0.00     0.009 A 
ATOM     14  C   UNL d   1     -14.720   5.279  -0.308  0.00  0.00    -0.056 A 
ATOM     15  C   UNL d   1     -16.224   5.216  -0.355  0.00  0.00     0.049 C 
ATOM     16  C   UNL d   1     -13.977   6.159  -1.121  0.00  0.00    -0.054 A 
ATOM     17  C   UNL d   1     -14.661   7.078  -2.103  0.00  0.00     0.049 C 
ATOM     18  C   UNL d   1     -12.558   6.159  -1.039  0.00  0.00     0.037 A 
ENDBRANCH   9  11
ENDBRANCH   6   7
ENDBRANCH   5   6
ENDBRANCH   2   5
BRANCH   1  19
ATOM     19  N   UNL d   1      -4.074   1.272  -0.057  0.00  0.00    -0.263 N 
ATOM     20  C   UNL d   1      -3.405   0.051  -0.041  0.00  0.00     0.270 C 
ATOM     21  O   UNL d   1      -4.014  -1.023  -0.054  0.00  0.00    -0.266 OA
ATOM     22  H   UNL d   1      -3.616   2.179  -0.051  0.00  0.00     0.190 HD
BRANCH  20  23
ATOM     23  C   UNL d   1      -1.890   0.061  -0.011  0.00  0.00     0.033 A 
ATOM     24  C   UNL d   1      -1.184  -1.159  -0.003  0.00  0.00     0.017 A 
ATOM     25  C   UNL d   1       0.224  -1.190   0.004  0.00  0.00     0.007 A 
ATOM     26  C   UNL d   1       0.961  -0.002   0.002  0.00  0.00    -0.062 A 
ATOM     27  C   UNL d   1       2.464  -0.004  -0.013  0.00  0.00     0.048 C 
ATOM     28  C   UNL d   1       0.265   1.211   0.005  0.00  0.00     0.007 A 
ATOM     29  C   UNL d   1      -1.139   1.244  -0.001  0.00  0.00     0.017 A 
ENDBRANCH  20  23
ENDBRANCH   1  19
TORSDOF 6
