REMARK  4 active torsions:
REMARK  status: ('A' for Active; 'I' for Inactive)
REMARK    1  A    between atoms: O_2  and  C_3 
REMARK    2  A    between atoms: C_6  and  N_7 
REMARK       I    between atoms: N_7  and  C_8 
REMARK       I    between atoms: C_8  and  N_10 
REMARK    3  A    between atoms: N_10  and  N_11 
REMARK       I    between atoms: N_11  and  C_12 
REMARK    4  A    between atoms: C_12  and  C_14 
ROOT
ATOM      1  N   UNL d   1       5.427   2.209   4.245  0.00  0.00    -0.308 N 
ATOM      2  C   UNL d   1       4.973   2.206   5.565  0.00  0.00     0.339 C 
ATOM      3  O   UNL d   1       3.923   1.700   5.970  0.00  0.00    -0.245 OA
ATOM      4  N   UNL d   1       5.785   2.829   6.503  0.00  0.00    -0.248 N 
ATOM      5  H   UNL d   1       6.289   2.692   4.031  0.00  0.00     0.170 HD
ATOM      6  H   UNL d   1       6.654   3.320   6.321  0.00  0.00     0.192 HD
ENDROOT
BRANCH   4   7
ATOM      7  N   UNL d   1       5.327   2.801   7.873  0.00  0.00    -0.262 N 
ATOM      8  C   UNL d   1       6.021   3.456   8.875  0.00  0.00     0.270 C 
ATOM      9  O   UNL d   1       7.056   4.095   8.657  0.00  0.00    -0.266 OA
ATOM     10  H   UNL d   1       4.421   2.347   8.011  0.00  0.00     0.190 HD
BRANCH   8  11
ATOM     11  C   UNL d   1       5.494   3.364  10.282  0.00  0.00     0.033 A 
ATOM     12  C   UNL d   1       5.609   4.471  11.145  0.00  0.00     0.019 A 
ATOM     13  C   UNL d   1       5.281   4.364  12.508  0.00  0.00     0.025 A 
ATOM     14  C   UNL d   1       4.780   3.165  13.007  0.00  0.00     0.034 A 
ATOM     15 CL   UNL d   1       4.286   3.056  14.654  0.00  0.00    -0.084 Cl
ATOM     16  C   UNL d   1       4.655   2.060  12.166  0.00  0.00     0.025 A 
ATOM     17  C   UNL d   1       5.014   2.155  10.809  0.00  0.00     0.019 A 
ENDBRANCH   8  11
ENDBRANCH   4   7
BRANCH   1  18
ATOM     18  C   UNL d   1       4.705   1.656   3.127  0.00  0.00     0.036 A 
ATOM     19  C   UNL d   1       5.176   1.766   1.806  0.00  0.00     0.032 A 
ATOM     20  C   UNL d   1       4.396   1.298   0.715  0.00  0.00     0.039 A 
ATOM     21  C   UNL d   1       3.169   0.660   0.924  0.00  0.00     0.068 A 
ATOM     22  C   UNL d   1       2.725   0.518   2.226  0.00  0.00     0.039 A 
ATOM     23  C   UNL d   1       3.484   1.002   3.297  0.00  0.00     0.032 A 
BRANCH  21  24
ATOM     24  O   UNL d   1       2.534   0.131  -0.166  0.00  0.00    -0.356 OA
ATOM     25  C   UNL d   1       1.113  -0.001  -0.074  0.00  0.00     0.210 C 
ENDBRANCH  21  24
ENDBRANCH   1  18
TORSDOF 4
