@<TRIPOS>MOLECULE
*****
 50 52 0 0 0
SMALL
GASTEIGER

@<TRIPOS>ATOM
      1 O           0.9892    0.1204    0.1030 O.2     1  UNL1       -0.2687
      2 C           2.2206    0.0670    0.1267 C.2     1  UNL1        0.2601
      3 N           2.9562    0.1872    1.2988 N.am    1  UNL1       -0.2301
      4 N           2.2803    0.4213    2.5265 N.am    1  UNL1       -0.2301
      5 C           3.0153    0.6634    3.6798 C.2     1  UNL1        0.2601
      6 O           4.2464    0.7228    3.6888 O.2     1  UNL1       -0.2687
      7 C           2.2596    0.8155    4.9625 C.ar    1  UNL1        0.0382
      8 C           2.6909    1.7047    5.9595 C.ar    1  UNL1       -0.0493
      9 C           2.0689    1.7257    7.2266 C.ar    1  UNL1       -0.0564
     10 C           0.9639    0.9004    7.5056 C.ar    1  UNL1       -0.0303
     11 C           0.2289    1.0404    8.8336 C.3     1  UNL1        0.0368
     12 N          -0.9301    0.1706    8.9788 N.am    1  UNL1       -0.3110
     13 C          -1.7483    0.1830   10.0786 C.2     1  UNL1        0.2164
     14 O          -1.5579    0.9286   11.0356 O.2     1  UNL1       -0.2755
     15 C          -2.9534   -0.7629   10.0207 C.3     1  UNL1        0.0356
     16 C          -3.9424   -0.4053    8.9128 C.3     1  UNL1       -0.0419
     17 C          -4.8323   -1.6358    8.7886 C.3     1  UNL1       -0.0523
     18 C          -3.9584   -2.8200    9.1958 C.3     1  UNL1       -0.0523
     19 C          -2.6438   -2.2309    9.7160 C.3     1  UNL1       -0.0419
     20 C           0.5687    0.0028    6.5003 C.ar    1  UNL1       -0.0564
     21 C           1.1970   -0.0382    5.2486 C.ar    1  UNL1       -0.0493
     22 C           2.9930   -0.0844   -1.1468 C.ar    1  UNL1        0.0382
     23 C           4.1242   -0.9061   -1.2288 C.ar    1  UNL1       -0.0496
     24 C           4.8792   -0.9499   -2.4096 C.ar    1  UNL1       -0.0610
     25 C           4.4694   -0.2375   -3.5369 C.ar    1  UNL1       -0.0617
     26 C           3.3148    0.5408   -3.4801 C.ar    1  UNL1       -0.0610
     27 C           2.5772    0.6158   -2.2908 C.ar    1  UNL1       -0.0496
     28 H           3.9715    0.2768    1.3205 H       1  UNL1        0.1731
     29 H           1.2629    0.4518    2.4799 H       1  UNL1        0.1731
     30 H           3.5147    2.3887    5.7600 H       1  UNL1        0.0625
     31 H           2.4647    2.3897    7.9971 H       1  UNL1        0.0621
     32 H          -0.1286    2.0743    8.9301 H       1  UNL1        0.0512
     33 H           0.9052    0.8427    9.6741 H       1  UNL1        0.0512
     34 H          -1.2105   -0.4126    8.2121 H       1  UNL1        0.1490
     35 H          -3.4570   -0.7097   10.9954 H       1  UNL1        0.0394
     36 H          -3.4299   -0.2327    7.9594 H       1  UNL1        0.0272
     37 H          -4.5176    0.4963    9.1436 H       1  UNL1        0.0272
     38 H          -5.2233   -1.7491    7.7720 H       1  UNL1        0.0265
     39 H          -5.6943   -1.5564    9.4619 H       1  UNL1        0.0265
     40 H          -3.7771   -3.4882    8.3466 H       1  UNL1        0.0265
     41 H          -4.4606   -3.4133    9.9690 H       1  UNL1        0.0265
     42 H          -1.8734   -2.3377    8.9445 H       1  UNL1        0.0272
     43 H          -2.2869   -2.7691   10.6001 H       1  UNL1        0.0272
     44 H          -0.2282   -0.7142    6.6553 H       1  UNL1        0.0621
     45 H           0.8617   -0.7778    4.5279 H       1  UNL1        0.0625
     46 H           4.4156   -1.5367   -0.3937 H       1  UNL1        0.0625
     47 H           5.7937   -1.5379   -2.4526 H       1  UNL1        0.0618
     48 H           5.0439   -0.2967   -4.4601 H       1  UNL1        0.0618
     49 H           2.9984    1.1001   -4.3587 H       1  UNL1        0.0618
     50 H           1.6819    1.2332   -2.2605 H       1  UNL1        0.0625
@<TRIPOS>BOND
     1     1     2    2
     2     2     3   am
     3     3     4    1
     4     4     5   am
     5     5     6    2
     6     5     7    1
     7     7     8   ar
     8     8     9   ar
     9     9    10   ar
    10    10    11    1
    11    11    12    1
    12    12    13   am
    13    13    14    2
    14    13    15    1
    15    15    16    1
    16    16    17    1
    17    17    18    1
    18    18    19    1
    19    15    19    1
    20    10    20   ar
    21    20    21   ar
    22     7    21   ar
    23     2    22    1
    24    22    23   ar
    25    23    24   ar
    26    24    25   ar
    27    25    26   ar
    28    26    27   ar
    29    22    27   ar
    30     3    28    1
    31     4    29    1
    32     8    30    1
    33     9    31    1
    34    11    32    1
    35    11    33    1
    36    12    34    1
    37    15    35    1
    38    16    36    1
    39    16    37    1
    40    17    38    1
    41    17    39    1
    42    18    40    1
    43    18    41    1
    44    19    42    1
    45    19    43    1
    46    20    44    1
    47    21    45    1
    48    23    46    1
    49    24    47    1
    50    25    48    1
    51    26    49    1
    52    27    50    1
