@<TRIPOS>MOLECULE
*****
 43 44 0 0 0
SMALL
GASTEIGER

@<TRIPOS>ATOM
      1 C           7.6171    0.9189   -3.0856 C.3     1  UNL1        0.0789
      2 O           7.5159    2.3325   -2.9985 O.3     1  UNL1       -0.4933
      3 C           8.4879    2.9236   -2.2136 C.ar    1  UNL1        0.1412
      4 C           9.7202    3.0046   -2.8739 C.ar    1  UNL1       -0.0179
      5 C          10.6260    3.9968   -2.5458 C.ar    1  UNL1       -0.0553
      6 C          10.3111    4.9356   -1.5595 C.ar    1  UNL1       -0.0485
      7 C          11.3280    5.9996   -1.2486 C.3     1  UNL1       -0.0396
      8 C           9.0600    4.8646   -0.8924 C.ar    1  UNL1       -0.0340
      9 C           8.1307    3.8320   -1.1750 C.ar    1  UNL1        0.0759
     10 N           6.8138    3.9129   -0.5714 N.am    1  UNL1       -0.2810
     11 C           5.7717    3.0233   -0.8078 C.2     1  UNL1        0.2374
     12 O           5.8867    1.9303   -1.3598 O.2     1  UNL1       -0.2734
     13 C           4.3314    3.4455   -0.4585 C.3     1  UNL1        0.0972
     14 C           3.7669    2.0863    0.0513 C.3     1  UNL1       -0.0381
     15 N           3.5126    3.9074   -1.6275 N.am    1  UNL1       -0.3003
     16 C           3.4937    5.1756   -2.2256 C.2     1  UNL1        0.2447
     17 O           2.4425    5.7695   -2.3430 O.2     1  UNL1       -0.2702
     18 C           4.7405    5.7424   -2.8518 C.ar    1  UNL1        0.0368
     19 C           4.8320    7.0151   -3.4284 C.ar    1  UNL1       -0.0483
     20 C           6.0516    7.4841   -3.9925 C.ar    1  UNL1       -0.0427
     21 C           7.1907    6.7038   -3.9548 C.ar    1  UNL1        0.0410
     22 CL          8.7246    7.2005   -4.5420 Cl      1  UNL1       -0.0835
     23 C           7.0498    5.4173   -3.5261 C.ar    1  UNL1       -0.0427
     24 C           5.8268    4.9325   -3.0634 C.ar    1  UNL1       -0.0483
     25 H           6.6248    0.5391   -3.3559 H       1  UNL1        0.0660
     26 H           7.9089    0.4734   -2.1302 H       1  UNL1        0.0660
     27 H           8.3062    0.6470   -3.8855 H       1  UNL1        0.0660
     28 H           9.8933    2.4014   -3.7610 H       1  UNL1        0.0655
     29 H          11.5441    4.0721   -3.1241 H       1  UNL1        0.0621
     30 H          12.2450    5.8481   -1.8342 H       1  UNL1        0.0278
     31 H          11.6083    5.9303   -0.1948 H       1  UNL1        0.0278
     32 H          10.9603    7.0048   -1.4746 H       1  UNL1        0.0278
     33 H           8.7962    5.6817   -0.2211 H       1  UNL1        0.0640
     34 H           6.6004    4.7716   -0.0771 H       1  UNL1        0.1550
     35 H           4.3015    4.2007    0.3329 H       1  UNL1        0.0592
     36 H           3.6981    1.3557   -0.7717 H       1  UNL1        0.0252
     37 H           2.7739    2.1540    0.4930 H       1  UNL1        0.0252
     38 H           4.4527    1.6444    0.7903 H       1  UNL1        0.0252
     39 H           2.5622    3.5515   -1.5976 H       1  UNL1        0.1498
     40 H           3.9427    7.6311   -3.5171 H       1  UNL1        0.0625
     41 H           6.1022    8.4382   -4.5027 H       1  UNL1        0.0632
     42 H           7.9028    4.7660   -3.5933 H       1  UNL1        0.0632
     43 H           5.7338    3.8716   -2.9046 H       1  UNL1        0.0625
@<TRIPOS>BOND
     1     1     2    1
     2     2     3    1
     3     3     4   ar
     4     4     5   ar
     5     5     6   ar
     6     6     7    1
     7     6     8   ar
     8     8     9   ar
     9     3     9   ar
    10     9    10    1
    11    10    11   am
    12    11    12    2
    13    13    15    1
    14    15    16   am
    15    16    17    2
    16    16    18    1
    17    18    19   ar
    18    19    20   ar
    19    20    21   ar
    20    21    22    1
    21    21    23   ar
    22    23    24   ar
    23    18    24   ar
    24    13    14    1
    25    13    11    1
    26     1    25    1
    27     1    26    1
    28     1    27    1
    29     4    28    1
    30     5    29    1
    31     7    30    1
    32     7    31    1
    33     7    32    1
    34     8    33    1
    35    10    34    1
    36    13    35    1
    37    14    36    1
    38    14    37    1
    39    14    38    1
    40    15    39    1
    41    19    40    1
    42    20    41    1
    43    23    42    1
    44    24    43    1
