@<TRIPOS>MOLECULE
*****
 49 50 0 0 0
SMALL
GASTEIGER

@<TRIPOS>ATOM
      1 O           5.8033    3.0882   -5.4418 O.2     1  UNL1       -0.2758
      2 C           4.8468    2.4220   -5.0559 C.2     1  UNL1        0.2131
      3 C           3.4770    2.4963   -5.5579 C.3     1  UNL1        0.0254
      4 C           3.4328    3.6528   -6.5122 C.3     1  UNL1       -0.0291
      5 C           2.0188    3.7724   -6.9851 C.3     1  UNL1        0.0120
      6 N           1.8968    4.8652   -7.8935 N.am    1  UNL1       -0.3151
      7 C           0.6754    5.1509   -8.4452 C.2     1  UNL1        0.2161
      8 O          -0.3391    4.5266   -8.1981 O.2     1  UNL1       -0.2755
      9 C           0.6429    6.2916   -9.3955 C.3     1  UNL1        0.0356
     10 C           1.0535    7.6774   -8.9545 C.3     1  UNL1       -0.0412
     11 C           1.8787    6.9431   -9.9731 C.3     1  UNL1       -0.0412
     12 N           5.0560    1.5531   -4.0712 N.am    1  UNL1       -0.3128
     13 C           4.3019    0.3846   -3.6103 C.3     1  UNL1        0.0379
     14 C           4.9484   -0.6097   -2.5726 C.3     1  UNL1        0.0735
     15 O           4.3748   -0.3317   -1.2857 O.3     1  UNL1       -0.3900
     16 C           6.5079   -0.7641   -2.4645 C.3     1  UNL1       -0.0135
     17 C           7.2115    0.3080   -3.2502 C.3     1  UNL1       -0.0478
     18 C           8.6875    0.5073   -3.2192 C.3     1  UNL1       -0.0527
     19 C           9.0901    0.6373   -1.7710 C.3     1  UNL1       -0.0530
     20 C           8.5624   -0.5650   -0.9840 C.3     1  UNL1       -0.0527
     21 C           7.0355   -0.6886   -1.0265 C.3     1  UNL1       -0.0478
     22 H           2.8211    2.6547   -4.6958 H       1  UNL1        0.0359
     23 H           3.2344    1.5474   -6.0457 H       1  UNL1        0.0359
     24 H           4.1252    3.4903   -7.3503 H       1  UNL1        0.0285
     25 H           3.7646    4.5753   -6.0137 H       1  UNL1        0.0285
     26 H           1.3457    3.9385   -6.1365 H       1  UNL1        0.0462
     27 H           1.7087    2.8515   -7.4913 H       1  UNL1        0.0462
     28 H           2.7089    5.4245   -8.1023 H       1  UNL1        0.1487
     29 H          -0.2186    6.2315  -10.0553 H       1  UNL1        0.0394
     30 H           1.4537    7.8053   -7.9545 H       1  UNL1        0.0273
     31 H           0.4533    8.5161   -9.2895 H       1  UNL1        0.0273
     32 H           2.8664    6.6053   -9.6869 H       1  UNL1        0.0273
     33 H           1.8398    7.2645  -11.0077 H       1  UNL1        0.0273
     34 H           6.0463    1.6670   -4.0438 H       1  UNL1        0.1488
     35 H           3.9662   -0.1791   -4.4868 H       1  UNL1        0.0487
     36 H           3.4117    0.8223   -3.1443 H       1  UNL1        0.0487
     37 H           4.5528   -1.6075   -2.8129 H       1  UNL1        0.0611
     38 H           4.6589    0.5611   -1.0254 H       1  UNL1        0.2099
     39 H           6.7919   -1.7258   -2.9127 H       1  UNL1        0.0326
     40 H           6.8682    1.2259   -2.7472 H       1  UNL1        0.0269
     41 H           6.9517    0.1722   -4.3058 H       1  UNL1        0.0269
     42 H           8.9097    1.4339   -3.7698 H       1  UNL1        0.0265
     43 H           9.1774   -0.3192   -3.7339 H       1  UNL1        0.0265
     44 H           8.6750    1.5685   -1.3551 H       1  UNL1        0.0265
     45 H          10.1766    0.7126   -1.7144 H       1  UNL1        0.0265
     46 H           8.8794   -0.4741    0.0565 H       1  UNL1        0.0265
     47 H           8.9956   -1.4771   -1.4061 H       1  UNL1        0.0265
     48 H           6.6253    0.1965   -0.5231 H       1  UNL1        0.0269
     49 H           6.7005   -1.5666   -0.4649 H       1  UNL1        0.0269
@<TRIPOS>BOND
     1     1     2    2
     2     2     3    1
     3     3     4    1
     4     4     5    1
     5     5     6    1
     6     6     7   am
     7     7     8    2
     8     7     9    1
     9     9    10    1
    10    10    11    1
    11     9    11    1
    12     2    12   am
    13    12    13    1
    14    14    16    1
    15    16    17    1
    16    17    18    1
    17    18    19    1
    18    19    20    1
    19    20    21    1
    20    16    21    1
    21    14    15    1
    22    14    13    1
    23     3    22    1
    24     3    23    1
    25     4    24    1
    26     4    25    1
    27     5    26    1
    28     5    27    1
    29     6    28    1
    30     9    29    1
    31    10    30    1
    32    10    31    1
    33    11    32    1
    34    11    33    1
    35    12    34    1
    36    13    35    1
    37    13    36    1
    38    14    37    1
    39    15    38    1
    40    16    39    1
    41    17    40    1
    42    17    41    1
    43    18    42    1
    44    18    43    1
    45    19    44    1
    46    19    45    1
    47    20    46    1
    48    20    47    1
    49    21    48    1
    50    21    49    1
