REMARK  15 active torsions:
REMARK  status: ('A' for Active; 'I' for Inactive)
REMARK    1  A    between atoms: C_2  and  O_5 
REMARK    2  A    between atoms: O_5  and  C_6 
REMARK       I    between atoms: C_6  and  N_8 
REMARK    3  A    between atoms: N_8  and  C_9 
REMARK    4  A    between atoms: C_9  and  C_10 
REMARK    5  A    between atoms: C_10  and  C_11 
REMARK    6  A    between atoms: C_11  and  C_12 
REMARK    7  A    between atoms: C_13  and  C_12 
REMARK    8  A    between atoms: C_13  and  C_25 
REMARK    9  A    between atoms: C_13  and  N_14 
REMARK       I    between atoms: N_14  and  C_15 
REMARK   10  A    between atoms: C_15  and  O_17 
REMARK   11  A    between atoms: O_17  and  C_18 
REMARK   12  A    between atoms: C_18  and  C_19 
REMARK   13  A    between atoms: C_25  and  O_27 
REMARK   14  A    between atoms: O_27  and  C_28 
REMARK   15  A    between atoms: C_31  and  N_32 
ROOT
ATOM      1  C   UNL d   1       9.656   6.348   2.535  0.00  0.00     0.187 C 
ENDROOT
BRANCH   1   2
ATOM      2  C   UNL d   1       9.890   7.698   3.261  0.00  0.00     0.287 C 
ATOM      3  O   UNL d   1       8.976   8.308   3.810  0.00  0.00    -0.263 OA
BRANCH   2   4
ATOM      4  O   UNL d   1      11.225   8.108   3.253  0.00  0.00    -0.277 OA
BRANCH   4   5
ATOM      5  C   UNL d   1      11.515   9.344   3.884  0.00  0.00     0.079 A 
ATOM      6  C   UNL d   1      12.579  10.102   3.387  0.00  0.00     0.040 A 
ATOM      7  C   UNL d   1      12.967  11.273   4.059  0.00  0.00     0.039 A 
ATOM      8  C   UNL d   1      12.222  11.729   5.159  0.00  0.00     0.103 A 
ATOM      9  C   UNL d   1      11.148  10.984   5.641  0.00  0.00     0.039 A 
ATOM     10  C   UNL d   1      10.824   9.783   5.020  0.00  0.00     0.040 A 
BRANCH   8  11
ATOM     11  N   UNL d   1      12.537  13.017   5.789  0.00  0.00    -0.116 N 
ATOM     12  O   UNL d   1      13.497  13.657   5.341  0.00  0.00    -0.532 OA
ATOM     13  O   UNL d   1      11.816  13.393   6.726  0.00  0.00    -0.532 OA
ENDBRANCH   8  11
ENDBRANCH   4   5
ENDBRANCH   2   4
ENDBRANCH   1   2
BRANCH   1  14
ATOM     14  N   UNL d   1       8.191   6.159   2.402  0.00  0.00    -0.323 N 
ATOM     15  C   UNL d   1       7.389   7.155   1.891  0.00  0.00     0.361 C 
ATOM     16  O   UNL d   1       7.793   8.243   1.486  0.00  0.00    -0.238 OA
ATOM     17  H   UNL d   1       7.757   5.292   2.695  0.00  0.00     0.165 HD
BRANCH  15  18
ATOM     18  O   UNL d   1       6.082   6.834   1.881  0.00  0.00    -0.299 OA
BRANCH  18  19
ATOM     19  C   UNL d   1       5.288   7.926   1.354  0.00  0.00     0.219 C 
BRANCH  19  20
ATOM     20  C   UNL d   1       3.826   7.573   1.413  0.00  0.00    -0.034 A 
ATOM     21  C   UNL d   1       2.834   8.565   1.442  0.00  0.00     0.009 A 
ATOM     22  C   UNL d   1       1.499   8.208   1.648  0.00  0.00     0.001 A 
ATOM     23  C   UNL d   1       1.138   6.863   1.719  0.00  0.00     0.000 A 
ATOM     24  C   UNL d   1       2.110   5.873   1.617  0.00  0.00     0.001 A 
ATOM     25  C   UNL d   1       3.443   6.228   1.460  0.00  0.00     0.009 A 
ENDBRANCH  19  20
ENDBRANCH  18  19
ENDBRANCH  15  18
ENDBRANCH   1  14
BRANCH   1  26
ATOM     26  C   UNL d   1      10.361   6.182   1.179  0.00  0.00     0.035 C 
BRANCH  26  27
ATOM     27  C   UNL d   1      10.259   7.438   0.327  0.00  0.00     0.004 C 
BRANCH  27  28
ATOM     28  C   UNL d   1      10.891   7.330  -1.039  0.00  0.00     0.020 C 
BRANCH  28  29
ATOM     29  C   UNL d   1      10.683   8.653  -1.764  0.00  0.00     0.125 C 
BRANCH  29  30
ATOM     30  N   UNL d   1      11.246   8.647  -3.093  0.00  0.00    -0.337 N 
ATOM     31  C   UNL d   1      11.150   9.770  -3.866  0.00  0.00     0.361 C 
ATOM     32  O   UNL d   1      10.602  10.792  -3.464  0.00  0.00    -0.238 OA
ATOM     33  H   UNL d   1      11.692   7.824  -3.471  0.00  0.00     0.164 HD
BRANCH  31  34
ATOM     34  O   UNL d   1      11.725   9.611  -5.093  0.00  0.00    -0.294 OA
BRANCH  34  35
ATOM     35  C   UNL d   1      11.694  10.748  -6.011  0.00  0.00     0.061 C 
ATOM     36  C   UNL d   1      12.398  10.352  -7.327  0.00  0.00     0.046 C 
ATOM     37  C   UNL d   1      12.460  11.945  -5.430  0.00  0.00     0.046 C 
ATOM     38  C   UNL d   1      10.250  11.129  -6.366  0.00  0.00     0.046 C 
ENDBRANCH  34  35
ENDBRANCH  31  34
ENDBRANCH  29  30
ENDBRANCH  28  29
ENDBRANCH  27  28
ENDBRANCH  26  27
ENDBRANCH   1  26
TORSDOF 15
