REMARK  6 active torsions:
REMARK  status: ('A' for Active; 'I' for Inactive)
REMARK    1  A    between atoms: C_8  and  S_9 
REMARK    2  A    between atoms: S_9  and  C_10 
REMARK    3  A    between atoms: C_10  and  C_11 
REMARK       I    between atoms: C_11  and  N_13 
REMARK    4  A    between atoms: N_13  and  C_14 
REMARK    5  A    between atoms: C_18  and  S_19 
REMARK    6  A    between atoms: S_19  and  N_20 
ROOT
ATOM      1  C   UNL d   1      10.929  -1.942  -0.009  0.00  0.00     0.231 C 
ATOM      2  O   UNL d   1      10.947  -3.174   0.019  0.00  0.00    -0.272 OA
ATOM      3  N   UNL d   1      12.122  -1.198  -0.007  0.00  0.00    -0.326 N 
ATOM      4  H   UNL d   1      12.091  -0.224   0.268  0.00  0.00     0.169 HD
ENDROOT
BRANCH   1   5
ATOM      5  C   UNL d   1       9.594  -1.133   0.009  0.00  0.00     0.185 C 
BRANCH   5   6
ATOM      6  S   UNL d   1       8.170  -2.294   0.010  0.00  0.00    -0.079 SA
BRANCH   6   7
ATOM      7  C   UNL d   1       6.680  -1.375   0.004  0.00  0.00     0.227 A 
ATOM      8  N   UNL d   1       6.602  -0.043   0.008  0.00  0.00    -0.124 NA
ATOM      9  N   UNL d   1       5.248   0.167  -0.001  0.00  0.00    -0.062 N 
ATOM     10  C   UNL d   1       4.531   1.371  -0.004  0.00  0.00     0.052 A 
ATOM     11  C   UNL d   1       4.569  -1.062  -0.006  0.00  0.00     0.752 A 
ATOM     12  C   UNL d   1       3.189   1.339  -0.016  0.00  0.00     0.055 A 
ATOM     13  C   UNL d   1       5.260   2.671   0.005  0.00  0.00     0.071 C 
ATOM     14  C   UNL d   1       2.541  -0.004  -0.015  0.00  0.00     0.051 A 
ATOM     15  C   UNL d   1       1.023   0.012  -0.016  0.00  0.00     0.071 C 
ATOM     16  N   UNL d   1       3.192  -1.134  -0.011  0.00  0.00    -0.066 NA
ATOM     17  N   UNL d   1       5.467  -2.024  -0.002  0.00  0.00    -0.033 NA
ENDBRANCH   6   7
ENDBRANCH   5   6
ENDBRANCH   1   5
BRANCH   3  18
ATOM     18  C   UNL d   1      13.404  -1.836  -0.002  0.00  0.00     0.036 A 
ATOM     19  C   UNL d   1      14.431  -1.367   0.831  0.00  0.00     0.029 A 
ATOM     20  C   UNL d   1      15.669  -2.036   0.888  0.00  0.00     0.004 A 
ATOM     21  C   UNL d   1      15.911  -3.148   0.082  0.00  0.00     0.025 A 
ATOM     22  C   UNL d   1      14.906  -3.590  -0.781  0.00  0.00     0.081 A 
ATOM     23  C   UNL d   1      13.662  -2.944  -0.821  0.00  0.00     0.054 A 
BRANCH  22  24
ATOM     24  S   UNL d   1      15.198  -5.009  -1.809  0.00  0.00     0.256 S 
ATOM     25  O   UNL d   1      15.667  -6.083  -0.959  0.00  0.00    -0.201 OA
ATOM     26  O   UNL d   1      14.105  -5.152  -2.734  0.00  0.00    -0.201 OA
BRANCH  24  27
ATOM     27  N   UNL d   1      16.506  -4.503  -2.715  0.00  0.00    -0.324 N 
ATOM     28  H   UNL d   1      17.414  -4.532  -2.264  0.00  0.00     0.169 HD
ATOM     29  H   UNL d   1      16.306  -3.848  -3.463  0.00  0.00     0.169 HD
ENDBRANCH  24  27
ENDBRANCH  22  24
ENDBRANCH   3  18
TORSDOF 6
