@<TRIPOS>MOLECULE
*****
 68 72 0 0 0
SMALL
GASTEIGER

@<TRIPOS>ATOM
      1 C           0.7612    0.1865    0.0667 C.3     1  UNL1       -0.0564
      2 C           2.3505    0.0965    0.1510 C.3     1  UNL1        0.0036
      3 C           2.6584    1.2192   -0.8160 C.3     1  UNL1       -0.0442
      4 C           4.0918    1.2319   -1.1276 C.3     1  UNL1       -0.0483
      5 C           4.6208   -0.1578   -1.6280 C.3     1  UNL1       -0.0224
      6 C           4.1394   -1.4617   -0.6107 C.3     1  UNL1       -0.0078
      7 C           4.5862   -2.8382   -1.1532 C.3     1  UNL1       -0.0447
      8 C           6.0864   -2.8934   -1.1907 C.3     1  UNL1       -0.0227
      9 C           6.5051   -1.8252   -2.0689 C.3     1  UNL1        0.0792
     10 O           8.1135   -2.3608   -2.0474 O.3     1  UNL1       -0.3876
     11 C           5.7635   -1.9384   -3.3991 C.3     1  UNL1        0.0030
     12 C           6.7708   -2.9400   -3.9613 C.3     1  UNL1        0.0579
     13 O           6.0083   -4.0404   -4.2720 O.3     1  UNL1       -0.3917
     14 C           7.1408   -1.5655   -4.5248 C.3     1  UNL1       -0.0258
     15 C           7.4248   -0.4216   -2.8427 C.3     1  UNL1       -0.0372
     16 C           6.2254   -0.1401   -1.9263 C.3     1  UNL1        0.0395
     17 C           6.7744    1.3693   -2.5305 C.2     1  UNL1        0.0324
     18 N           8.0084    1.6322   -2.5655 N.2     1  UNL1       -0.1908
     19 N           8.5445    2.5783   -3.4125 N.am    1  UNL1       -0.1913
     20 C           9.8723    2.6752   -3.7091 C.2     1  UNL1        0.3165
     21 N          10.7500    1.7517   -3.2521 N.am    1  UNL1       -0.3120
     22 O          10.2826    3.6171   -4.4199 O.2     1  UNL1       -0.2513
     23 C           2.5762   -1.3716   -0.1299 C.3     1  UNL1        0.0751
     24 O           1.8489   -1.8256   -1.2573 O.3     1  UNL1       -0.3877
     25 C           1.8661   -1.6850    1.4700 C.3     1  UNL1       -0.0226
     26 C           3.0031   -1.2572    2.2862 C.3     1  UNL1       -0.0432
     27 C           3.3193    0.1225    1.6085 C.3     1  UNL1       -0.0081
     28 C           4.9163    0.1601    1.6951 C.2     1  UNL1       -0.0222
     29 C           5.7049   -0.8332    2.1538 C.2     1  UNL1        0.0252
     30 C           7.0880   -0.5543    1.8013 C.2     1  UNL1        0.3323
     31 O           7.9896   -1.3797    1.7953 O.2     1  UNL1       -0.2456
     32 O           7.1840    0.7447    1.4729 O.3     1  UNL1       -0.4571
     33 C           5.8813    1.1534    1.1188 C.3     1  UNL1        0.1147
     34 H           0.4645    0.2182   -0.9952 H       1  UNL1        0.0236
     35 H           0.3840    1.0550    0.5922 H       1  UNL1        0.0236
     36 H           0.1825   -0.7016    0.3614 H       1  UNL1        0.0236
     37 H           2.3956    2.1489   -0.2811 H       1  UNL1        0.0272
     38 H           2.0896    1.2190   -1.7484 H       1  UNL1        0.0272
     39 H           4.3633    1.5840   -0.1599 H       1  UNL1        0.0268
     40 H           4.4040    2.0853   -1.7271 H       1  UNL1        0.0268
     41 H           4.0485   -0.2690   -2.5539 H       1  UNL1        0.0314
     42 H           4.7915   -1.4392    0.2307 H       1  UNL1        0.0332
     43 H           4.1678   -2.9900   -2.1471 H       1  UNL1        0.0270
     44 H           4.2798   -3.6955   -0.5763 H       1  UNL1        0.0270
     45 H           6.4927   -3.8398   -1.6084 H       1  UNL1        0.0293
     46 H           6.6478   -2.7612   -0.2576 H       1  UNL1        0.0293
     47 H           8.5764   -2.5507   -2.9005 H       1  UNL1        0.2102
     48 H           5.6002   -0.7591   -3.8859 H       1  UNL1        0.0318
     49 H           4.7011   -2.0101   -3.5269 H       1  UNL1        0.0318
     50 H           7.7374   -3.1994   -4.4396 H       1  UNL1        0.0594
     51 H           5.2559   -4.0642   -3.6504 H       1  UNL1        0.2098
     52 H           6.1314   -1.7442   -5.1706 H       1  UNL1        0.0290
     53 H           7.4118   -1.1075   -5.3782 H       1  UNL1        0.0290
     54 H           8.4971   -0.3550   -2.6881 H       1  UNL1        0.0276
     55 H           7.6914   -0.5821   -1.6076 H       1  UNL1        0.0276
     56 H           6.0100    2.0650   -2.9969 H       1  UNL1        0.0805
     57 H           7.9234    3.2060   -3.8740 H       1  UNL1        0.1788
     58 H          10.4538    0.9467   -2.7132 H       1  UNL1        0.1465
     59 H          11.7302    1.8697   -3.4568 H       1  UNL1        0.1465
     60 H           2.3974   -1.6119   -2.0400 H       1  UNL1        0.2102
     61 H           1.3660   -2.6166    1.7535 H       1  UNL1        0.0293
     62 H           1.1251   -0.9374    1.8807 H       1  UNL1        0.0293
     63 H           3.6376   -2.1152    2.0563 H       1  UNL1        0.0272
     64 H           2.9347   -1.1891    3.3767 H       1  UNL1        0.0272
     65 H           2.9082    0.9565    2.1829 H       1  UNL1        0.0353
     66 H           5.4461   -1.8171    2.5057 H       1  UNL1        0.0689
     67 H           5.9856    1.0882    0.0444 H       1  UNL1        0.0746
     68 H           5.6533    2.1884    1.3708 H       1  UNL1        0.0746
@<TRIPOS>BOND
     1     1     2    1
     2     2     3    1
     3     3     4    1
     4     4     5    1
     5     5     6    1
     6     6     7    1
     7     7     8    1
     8     8     9    1
     9     9    10    1
    10     9    11    1
    11    11    12    1
    12    12    13    1
    13    12    14    1
    14    14    15    1
    15    15    16    1
    16     5    16    1
    17     9    16    1
    18    16    17    1
    19    17    18    2
    20    18    19    1
    21    19    20   am
    22    20    21   am
    23    20    22    2
    24     6    23    1
    25     2    23    1
    26    23    24    1
    27    23    25    1
    28    25    26    1
    29    26    27    1
    30     2    27    1
    31    27    28    1
    32    28    29    2
    33    29    30    1
    34    30    31    2
    35    30    32    1
    36    32    33    1
    37    28    33    1
    38     1    34    1
    39     1    35    1
    40     1    36    1
    41     3    37    1
    42     3    38    1
    43     4    39    1
    44     4    40    1
    45     5    41    1
    46     6    42    1
    47     7    43    1
    48     7    44    1
    49     8    45    1
    50     8    46    1
    51    10    47    1
    52    11    48    1
    53    11    49    1
    54    12    50    1
    55    13    51    1
    56    14    52    1
    57    14    53    1
    58    15    54    1
    59    15    55    1
    60    17    56    1
    61    19    57    1
    62    21    58    1
    63    21    59    1
    64    24    60    1
    65    25    61    1
    66    25    62    1
    67    26    63    1
    68    26    64    1
    69    27    65    1
    70    29    66    1
    71    33    67    1
    72    33    68    1
