REMARK  7 active torsions:
REMARK  status: ('A' for Active; 'I' for Inactive)
REMARK    1  A    between atoms: C_3  and  C_4 
REMARK       I    between atoms: C_4  and  N_6 
REMARK    2  A    between atoms: N_6  and  N_7 
REMARK    3  A    between atoms: N_13  and  C_14 
REMARK    4  A    between atoms: C_14  and  C_15 
REMARK    5  A    between atoms: N_20  and  C_21 
REMARK    6  A    between atoms: C_21  and  C_22 
REMARK       I    between atoms: C_22  and  N_24 
REMARK    7  A    between atoms: N_24  and  C_25 
ROOT
ATOM      1  C   UNL d   1       1.276   0.041   0.068  0.00  0.00     0.051 C 
ATOM      2  C   UNL d   1       2.791  -0.041   0.046  0.00  0.00    -0.021 A 
ATOM      3  C   UNL d   1       3.541  -1.247   0.051  0.00  0.00     0.083 A 
ATOM      4  S   UNL d   1       5.220  -0.910  -0.018  0.00  0.00    -0.065 SA
ATOM      5  C   UNL d   1       5.008   0.735  -0.043  0.00  0.00     0.098 A 
ATOM      6  C   UNL d   1       3.703   1.154   0.011  0.00  0.00     0.074 A 
ATOM      7  C   UNL d   1       3.497   2.634   0.019  0.00  0.00     0.265 C 
ATOM      8  O   UNL d   1       2.375   3.135   0.045  0.00  0.00    -0.267 OA
ATOM      9  N   UNL d   1       4.697   3.396   0.052  0.00  0.00    -0.265 N 
ATOM     10  C   UNL d   1       5.856   2.789   0.518  0.00  0.00     0.333 C 
ATOM     11  O   UNL d   1       6.610   3.301   1.363  0.00  0.00    -0.246 OA
ATOM     12  N   UNL d   1       6.140   1.536  -0.001  0.00  0.00    -0.283 N 
ENDROOT
BRANCH  12  13
ATOM     13  C   UNL d   1       7.526   1.007   0.092  0.00  0.00     0.237 C 
BRANCH  13  14
ATOM     14  C   UNL d   1       8.654   2.046  -0.053  0.00  0.00     0.240 C 
ATOM     15  O   UNL d   1       8.476   3.126  -0.610  0.00  0.00    -0.271 OA
ATOM     16  N   UNL d   1       9.926   1.675   0.336  0.00  0.00    -0.325 N 
ATOM     17  H   UNL d   1      10.209   0.760  -0.008  0.00  0.00     0.169 HD
BRANCH  16  18
ATOM     18  C   UNL d   1      10.931   2.694   0.284  0.00  0.00     0.045 C 
ATOM     19  C   UNL d   1      12.006   2.447  -0.610  0.00  0.00     0.030 C 
ATOM     20  C   UNL d   1      13.001   3.400  -0.782  0.00  0.00     0.003 C 
ATOM     21  C   UNL d   1      12.980   4.540   0.008  0.00  0.00     0.012 C 
ATOM     22  C   UNL d   1      11.962   4.766   0.951  0.00  0.00    -0.027 C 
ATOM     23  C   UNL d   1      12.111   5.833   1.837  0.00  0.00    -0.005 C 
ATOM     24  C   UNL d   1      10.825   3.946   1.060  0.00  0.00     0.000 C 
ATOM     25  C   UNL d   1      11.231   6.024   2.874  0.00  0.00     0.043 C 
ATOM     26  C   UNL d   1       9.953   5.824   2.478  0.00  0.00    -0.016 C 
ATOM     27  C   UNL d   1       9.762   4.561   1.891  0.00  0.00     0.011 C 
ENDBRANCH  16  18
ENDBRANCH  13  14
ENDBRANCH  12  13
BRANCH   9  28
ATOM     28  C   UNL d   1       4.661   4.893   0.058  0.00  0.00     0.141 C 
BRANCH  28  29
ATOM     29  C   UNL d   1       6.045   5.636  -0.038  0.00  0.00    -0.004 C 
ATOM     30  C   UNL d   1       6.809   5.267  -1.310  0.00  0.00     0.011 C 
ATOM     31  C   UNL d   1       5.959   7.162   0.033  0.00  0.00     0.011 C 
ENDBRANCH  28  29
ENDBRANCH   9  28
BRANCH   3  32
ATOM     32  C   UNL d   1       3.209  -2.699   0.082  0.00  0.00     0.273 C 
ATOM     33  O   UNL d   1       2.070  -3.164   0.073  0.00  0.00    -0.266 OA
ATOM     34  N   UNL d   1       4.338  -3.561   0.127  0.00  0.00    -0.289 N 
ATOM     35  H   UNL d   1       5.263  -3.141   0.042  0.00  0.00     0.183 HD
BRANCH  34  36
ATOM     36  N   UNL d   1       4.249  -4.967   0.019  0.00  0.00    -0.247 NA
ATOM     37  H   UNL d   1       3.255  -5.220   0.039  0.00  0.00     0.143 HD
ATOM     38  H   UNL d   1       4.654  -5.390   0.859  0.00  0.00     0.143 HD
ENDBRANCH  34  36
ENDBRANCH   3  32
TORSDOF 7
