REMARK  7 active torsions:
REMARK  status: ('A' for Active; 'I' for Inactive)
REMARK    1  A    between atoms: C_2  and  C_3 
REMARK       I    between atoms: C_2  and  N_15 
REMARK    2  A    between atoms: C_3  and  N_4 
REMARK    3  A    between atoms: C_6  and  C_7 
REMARK    4  A    between atoms: N_15  and  C_16 
REMARK    5  A    between atoms: C_16  and  C_17 
REMARK    6  A    between atoms: C_17  and  C_18 
REMARK    7  A    between atoms: C_17  and  C_27 
ROOT
ATOM      1  C   UNL d   1       4.335   0.124   1.243  0.00  0.00     0.136 C 
ENDROOT
BRANCH   1   2
ATOM      2  N   UNL d   1       2.887   0.087   1.183  0.00  0.00    -0.359 N 
ATOM      3  C   UNL d   1       2.118  -0.030   0.046  0.00  0.00     0.237 C 
ATOM      4  O   UNL d   1       0.898  -0.080   0.192  0.00  0.00    -0.272 OA
ATOM      5  H   UNL d   1       2.330   0.166   2.025  0.00  0.00     0.162 HD
BRANCH   3   6
ATOM      6  C   UNL d   1       2.824  -0.139  -1.313  0.00  0.00     0.251 C 
BRANCH   6   7
ATOM      7  N   UNL d   1       1.903  -0.259  -2.436  0.00  0.00    -0.247 N 
ATOM      8  N   UNL d   1       1.552  -1.508  -2.999  0.00  0.00    -0.199 NA
ATOM      9  C   UNL d   1       1.352  -1.121  -4.407  0.00  0.00     0.265 C 
ATOM     10  H   UNL d   1       0.606  -1.685  -2.638  0.00  0.00     0.150 HD
ATOM     11  O   UNL d   1       0.987   0.260  -4.408  0.00  0.00    -0.275 OA
ATOM     12  C   UNL d   1       1.486   0.773  -3.241  0.00  0.00     0.379 C 
ATOM     13  O   UNL d   1       1.546   1.973  -2.983  0.00  0.00    -0.237 OA
BRANCH   9  14
ATOM     14  C   UNL d   1       0.291  -1.927  -5.119  0.00  0.00     0.027 A 
ATOM     15  C   UNL d   1      -1.079  -1.947  -4.923  0.00  0.00     0.019 A 
ATOM     16  C   UNL d   1      -1.755  -2.870  -5.777  0.00  0.00     0.008 A 
ATOM     17  C   UNL d   1      -0.889  -3.522  -6.625  0.00  0.00     0.050 A 
ATOM     18  S   UNL d   1       0.729  -3.017  -6.385  0.00  0.00    -0.102 SA
ENDBRANCH   9  14
ENDBRANCH   6   7
ENDBRANCH   3   6
ENDBRANCH   1   2
BRANCH   1  19
ATOM     19  C   UNL d   1       4.926   0.154   2.680  0.00  0.00     0.069 C 
BRANCH  19  20
ATOM     20  C   UNL d   1       4.505  -1.085   3.455  0.00  0.00    -0.040 A 
ATOM     21  C   UNL d   1       4.816  -2.350   3.145  0.00  0.00    -0.005 A 
ATOM     22  C   UNL d   1       5.528  -2.947   2.070  0.00  0.00     0.014 A 
ATOM     23  C   UNL d   1       4.291  -3.175   4.242  0.00  0.00     0.038 A 
ATOM     24  C   UNL d   1       5.786  -4.254   2.076  0.00  0.00     0.001 A 
ATOM     25  C   UNL d   1       5.291  -5.094   3.142  0.00  0.00     0.002 A 
ATOM     26  C   UNL d   1       4.568  -4.628   4.182  0.00  0.00     0.030 A 
ATOM     27  N   UNL d   1       3.670  -2.470   5.111  0.00  0.00    -0.385 N 
ATOM     28  C   UNL d   1       3.708  -1.033   4.733  0.00  0.00     0.155 A 
ATOM     29  H   UNL d   1       3.233  -2.861   5.945  0.00  0.00     0.160 HD
ENDBRANCH  19  20
BRANCH  19  30
ATOM     30  C   UNL d   1       6.461   0.255   2.684  0.00  0.00    -0.026 C 
ATOM     31  C   UNL d   1       7.222  -0.365   1.670  0.00  0.00     0.009 C 
ATOM     32  C   UNL d   1       8.573  -0.651   1.833  0.00  0.00     0.001 C 
ATOM     33  C   UNL d   1       9.255  -0.093   2.897  0.00  0.00     0.002 C 
ATOM     34  C   UNL d   1       8.570   0.711   3.807  0.00  0.00     0.024 C 
ATOM     35  C   UNL d   1       7.175   0.815   3.754  0.00  0.00     0.041 C 
ATOM     36 CL   UNL d   1       6.382   1.605   5.069  0.00  0.00    -0.084 Cl
ENDBRANCH  19  30
ENDBRANCH   1  19
TORSDOF 7
