@<TRIPOS>MOLECULE
*****
 65 67 0 0 0
SMALL
GASTEIGER

@<TRIPOS>ATOM
      1 C           1.9497    0.8151   -0.3470 C.3     1  UNL1        0.0366
      2 O           3.2832    0.6995   -0.5927 O.3     1  UNL1       -0.3796
      3 C           3.6109   -0.2526   -1.5544 C.3     1  UNL1        0.0815
      4 C           5.0687   -0.2472   -1.3901 C.3     1  UNL1        0.1160
      5 O           5.3955   -1.2562   -2.2947 O.3     1  UNL1       -0.4588
      6 C           6.4227   -2.0807   -2.1735 C.2     1  UNL1        0.3419
      7 O           6.8032   -2.5796   -3.2548 O.2     1  UNL1       -0.2449
      8 C           7.1519   -2.2586   -0.9127 C.ar    1  UNL1        0.0910
      9 C           6.6794   -2.3233    0.3962 C.ar    1  UNL1        0.0869
     10 N           5.3680   -2.3287    0.9594 N.am    1  UNL1       -0.2749
     11 C           4.2447   -2.7630    0.2043 C.2     1  UNL1        0.2627
     12 O           4.3495   -3.4759   -0.7935 O.2     1  UNL1       -0.2696
     13 C           2.7970   -2.2655    0.6234 C.3     1  UNL1        0.0451
     14 N           1.5480   -2.0317   -0.5180 N.4     1  UNL1        0.2393
     15 C           0.0672   -1.5537   -0.1915 C.3     1  UNL1        0.0077
     16 C          -0.2430   -0.2950    0.8835 C.3     1  UNL1        0.0198
     17 C           0.6650   -0.2117    2.1494 C.ar    1  UNL1       -0.0417
     18 C           1.0520   -1.4176    2.7321 C.ar    1  UNL1       -0.0584
     19 C           2.0826   -1.4929    3.6821 C.ar    1  UNL1       -0.0615
     20 C           2.7170   -0.3463    4.1406 C.ar    1  UNL1       -0.0617
     21 C           2.3574    0.8802    3.6011 C.ar    1  UNL1       -0.0615
     22 C           1.3472    0.9531    2.6167 C.ar    1  UNL1       -0.0584
     23 C          -0.6101   -1.3125   -1.5661 C.ar    1  UNL1        0.0004
     24 C          -0.8471   -0.0588   -2.1780 C.ar    1  UNL1       -0.0532
     25 C          -1.6917    0.0565   -3.2828 C.ar    1  UNL1       -0.0613
     26 C          -2.2058   -1.0873   -3.8728 C.ar    1  UNL1       -0.0617
     27 C          -1.8347   -2.3408   -3.3936 C.ar    1  UNL1       -0.0613
     28 C          -1.0202   -2.4528   -2.2690 C.ar    1  UNL1       -0.0532
     29 S           8.0090   -2.3194    1.5021 S.2     1  UNL1       -0.0678
     30 C           9.2285   -2.4841    0.2487 C.ar    1  UNL1        0.0791
     31 C          10.6567   -2.6470    0.6076 C.2     1  UNL1        0.2485
     32 N          11.6119   -2.7614   -0.3821 N.am    1  UNL1       -0.3249
     33 O          11.0803   -2.6938    1.7612 O.2     1  UNL1       -0.2698
     34 C           8.6057   -2.4227   -0.9851 C.ar    1  UNL1       -0.0154
     35 C           9.2277   -2.4971   -2.3426 C.3     1  UNL1       -0.0376
     36 H           1.6778    1.7014    0.2025 H       1  UNL1        0.0524
     37 H           1.8003   -0.0117    0.3012 H       1  UNL1        0.0524
     38 H           1.3478    0.6953   -1.2299 H       1  UNL1        0.0524
     39 H           3.1638   -0.0880   -2.5388 H       1  UNL1        0.0593
     40 H           3.3759   -1.3012   -1.3898 H       1  UNL1        0.0593
     41 H           5.2895   -0.4204   -0.3343 H       1  UNL1        0.0721
     42 H           5.4256    0.7377   -1.6557 H       1  UNL1        0.0721
     43 H           5.3056   -2.0462    1.9406 H       1  UNL1        0.1555
     44 H           2.9606   -1.3044    1.1032 H       1  UNL1        0.0912
     45 H           2.3894   -3.0497    1.2464 H       1  UNL1        0.0912
     46 H           1.5622   -2.8521   -1.1512 H       1  UNL1        0.2025
     47 H           1.7479   -1.3255   -1.2263 H       1  UNL1        0.2025
     48 H          -0.3719   -2.4485    0.2555 H       1  UNL1        0.0907
     49 H          -1.3065   -0.3159    1.1760 H       1  UNL1        0.0372
     50 H          -0.2506    0.6757    0.3562 H       1  UNL1        0.0372
     51 H           0.6713   -2.3499    2.3283 H       1  UNL1        0.0620
     52 H           2.4133   -2.4659    4.0367 H       1  UNL1        0.0618
     53 H           3.4830   -0.4098    4.9126 H       1  UNL1        0.0618
     54 H           2.8827    1.7800    3.9309 H       1  UNL1        0.0618
     55 H           1.2317    1.9444    2.1721 H       1  UNL1        0.0620
     56 H          -0.4435    0.8923   -1.8419 H       1  UNL1        0.0622
     57 H          -1.9830    1.0434   -3.6458 H       1  UNL1        0.0618
     58 H          -2.8957   -0.9999   -4.7078 H       1  UNL1        0.0618
     59 H          -2.2280   -3.2400   -3.8613 H       1  UNL1        0.0618
     60 H          -0.7508   -3.4474   -1.9207 H       1  UNL1        0.0622
     61 H          11.5041   -2.7403   -1.3741 H       1  UNL1        0.1453
     62 H          12.5756   -2.8875   -0.1046 H       1  UNL1        0.1453
     63 H          10.2821   -2.6400   -2.4138 H       1  UNL1        0.0278
     64 H           9.0273   -1.5667   -2.8842 H       1  UNL1        0.0278
     65 H           8.8238   -3.3680   -2.8670 H       1  UNL1        0.0278
@<TRIPOS>UNITY_ATOM_ATTR
14 1
charge 1
@<TRIPOS>BOND
     1     1     2    1
     2     2     3    1
     3     3     4    1
     4     4     5    1
     5     5     6    1
     6     6     7    2
     7     6     8    1
     8     8     9   ar
     9     9    10    1
    10    10    11   am
    11    11    12    2
    12    11    13    1
    13    13    14    1
    14    14    15    1
    15    15    16    1
    16    16    17    1
    17    17    18   ar
    18    18    19   ar
    19    19    20   ar
    20    20    21   ar
    21    21    22   ar
    22    17    22   ar
    23    15    23    1
    24    23    24   ar
    25    24    25   ar
    26    25    26   ar
    27    26    27   ar
    28    27    28   ar
    29    23    28   ar
    30     9    29   ar
    31    29    30   ar
    32    30    31    1
    33    31    32   am
    34    31    33    2
    35    30    34   ar
    36     8    34   ar
    37    34    35    1
    38     1    36    1
    39     1    37    1
    40     1    38    1
    41     3    39    1
    42     3    40    1
    43     4    41    1
    44     4    42    1
    45    10    43    1
    46    13    44    1
    47    13    45    1
    48    14    46    1
    49    14    47    1
    50    15    48    1
    51    16    49    1
    52    16    50    1
    53    18    51    1
    54    19    52    1
    55    20    53    1
    56    21    54    1
    57    22    55    1
    58    24    56    1
    59    25    57    1
    60    26    58    1
    61    27    59    1
    62    28    60    1
    63    32    61    1
    64    32    62    1
    65    35    63    1
    66    35    64    1
    67    35    65    1
