@<TRIPOS>MOLECULE
*****
 49 52 0 0 0
SMALL
GASTEIGER

@<TRIPOS>ATOM
      1 C           1.1427   -0.0749   -0.0350 C.3     1  UNL1       -0.0203
      2 C           2.6601   -0.0112    0.0169 C.ar    1  UNL1        0.0646
      3 N           3.3283   -1.1238    0.0242 N.ar    1  UNL1       -0.1758
      4 N           4.7006   -1.0221    0.0515 N.ar    1  UNL1       -0.2426
      5 C           5.4414    0.1469    0.0743 C.ar    1  UNL1        0.2723
      6 O           6.6744    0.1548    0.0706 O.2     1  UNL1       -0.2660
      7 C           4.6708    1.3843    0.1332 C.ar    1  UNL1        0.0721
      8 C           3.3435    1.2892    0.0664 C.ar    1  UNL1        0.0160
      9 C           2.7349    2.6191    0.0688 C.3     1  UNL1        0.0857
     10 C           1.8879    2.8100    1.3152 C.3     1  UNL1       -0.0343
     11 O           3.8482    3.5401    0.0964 O.3     1  UNL1       -0.3469
     12 C           5.1052    2.8100    0.1097 C.3     1  UNL1        0.1570
     13 N           5.8421    3.2812    1.2782 N.am    1  UNL1       -0.2855
     14 C           6.3951    4.5740    1.2823 C.2     1  UNL1        0.2254
     15 O           6.2442    5.3501    0.3431 O.2     1  UNL1       -0.2748
     16 C           7.2671    4.9126    2.5051 C.3     1  UNL1        0.0777
     17 S           7.8936    6.6283    2.5210 S.3     1  UNL1       -0.0767
     18 C           8.7846    6.9598    3.9881 C.ar    1  UNL1        0.1921
     19 N           9.1213    8.1804    4.3611 N.ar    1  UNL1       -0.1225
     20 N           9.8347    8.1068    5.5395 N.ar    1  UNL1       -0.1335
     21 C           9.9331    6.8382    5.8743 C.ar    1  UNL1        0.1341
     22 N           9.3053    6.0807    4.8996 N.ar    1  UNL1       -0.3060
     23 C           9.2580    4.6439    4.8862 C.3     1  UNL1        0.0268
     24 C          10.5712    3.9790    5.2383 C.3     1  UNL1       -0.0348
     25 C          10.7010    3.7965    6.7417 C.3     1  UNL1       -0.0511
     26 C          10.0784    4.9444    7.5459 C.3     1  UNL1       -0.0461
     27 C          10.6325    6.2954    7.0888 C.3     1  UNL1        0.0075
     28 H           0.7941   -1.1039   -0.1517 H       1  UNL1        0.0293
     29 H           0.7614    0.5272   -0.8655 H       1  UNL1        0.0293
     30 H           0.6999    0.2738    0.8994 H       1  UNL1        0.0293
     31 H           5.1957   -1.9084    0.0285 H       1  UNL1        0.1921
     32 H           2.1633    2.7897   -0.8500 H       1  UNL1        0.0645
     33 H           2.4966    2.7151    2.2210 H       1  UNL1        0.0258
     34 H           1.0871    2.0783    1.3939 H       1  UNL1        0.0258
     35 H           1.4062    3.7875    1.3187 H       1  UNL1        0.0258
     36 H           5.6668    3.0672   -0.7971 H       1  UNL1        0.0863
     37 H           6.2157    2.5866    1.9086 H       1  UNL1        0.1515
     38 H           8.1120    4.2337    2.3857 H       1  UNL1        0.0475
     39 H           6.7209    4.7137    3.4324 H       1  UNL1        0.0475
     40 H           9.0727    4.3175    3.8854 H       1  UNL1        0.0493
     41 H           8.4112    4.3276    5.5056 H       1  UNL1        0.0493
     42 H          11.4089    4.5656    4.8375 H       1  UNL1        0.0282
     43 H          10.6221    3.0004    4.7463 H       1  UNL1        0.0282
     44 H          11.7644    3.6985    6.9871 H       1  UNL1        0.0266
     45 H          10.2187    2.8544    7.0252 H       1  UNL1        0.0266
     46 H          10.2783    4.7749    8.6078 H       1  UNL1        0.0269
     47 H           8.9833    4.9371    7.4571 H       1  UNL1        0.0269
     48 H          11.7074    6.2078    6.8824 H       1  UNL1        0.0344
     49 H          10.5304    7.0118    7.9120 H       1  UNL1        0.0344
@<TRIPOS>BOND
     1     1     2    1
     2     2     3   ar
     3     3     4   ar
     4     4     5   ar
     5     5     6    2
     6     5     7   ar
     7     7     8   ar
     8     2     8   ar
     9     8     9    1
    10     9    10    1
    11     9    11    1
    12    11    12    1
    13     7    12    1
    14    12    13    1
    15    13    14   am
    16    14    15    2
    17    14    16    1
    18    16    17    1
    19    17    18    1
    20    18    19   ar
    21    19    20   ar
    22    20    21   ar
    23    21    22   ar
    24    18    22   ar
    25    22    23    1
    26    23    24    1
    27    24    25    1
    28    25    26    1
    29    26    27    1
    30    21    27    1
    31     1    28    1
    32     1    29    1
    33     1    30    1
    34     4    31    1
    35     9    32    1
    36    10    33    1
    37    10    34    1
    38    10    35    1
    39    12    36    1
    40    13    37    1
    41    16    38    1
    42    16    39    1
    43    23    40    1
    44    23    41    1
    45    24    42    1
    46    24    43    1
    47    25    44    1
    48    25    45    1
    49    26    46    1
    50    26    47    1
    51    27    48    1
    52    27    49    1
