@<TRIPOS>MOLECULE
*****
 38 40 0 0 0
SMALL
GASTEIGER

@<TRIPOS>ATOM
      1 C           0.9680    0.0786    0.0381 C.3     1  UNL1        0.0790
      2 O           2.3866    0.0780   -0.0915 O.3     1  UNL1       -0.4914
      3 C           3.0162    1.1951    0.3805 C.ar    1  UNL1        0.1629
      4 C           2.6103    1.9193    1.5037 C.ar    1  UNL1       -0.0162
      5 C           3.3832    2.9778    1.9865 C.ar    1  UNL1       -0.0575
      6 C           4.6327    3.2261    1.4427 C.ar    1  UNL1       -0.0508
      7 C           4.9906    2.5938    0.2589 C.ar    1  UNL1        0.0222
      8 C           6.1720    3.0382   -0.4427 C.ar    1  UNL1       -0.0289
      9 C           6.4502    2.5497   -1.6537 C.ar    1  UNL1        0.1505
     10 C           7.6197    3.0469   -2.4154 C.2     1  UNL1        0.2514
     11 N           8.4318    3.9878   -1.8979 N.am    1  UNL1       -0.3251
     12 O           7.8168    2.5746   -3.5350 O.2     1  UNL1       -0.2701
     13 C           5.5631    1.5163   -2.2338 C.ar    1  UNL1        0.4091
     14 N           5.7413    0.9944   -3.3978 N.2     1  UNL1       -0.0981
     15 N           4.9922    0.1259   -3.9638 N.pl3   1  UNL1       -0.1231
     16 C           5.2952   -0.4489   -5.2101 C.2     1  UNL1        0.1113
     17 C           4.3935   -0.7899   -6.1428 C.2     1  UNL1        0.0717
     18 N           4.6925   -1.3909   -7.3315 N.2     1  UNL1       -0.1634
     19 N           5.8401   -1.7581   -7.6638 N.am    1  UNL1       -0.0787
     20 C           6.9247   -1.5691   -6.8368 C.2     1  UNL1        0.2773
     21 O           8.0572   -1.9585   -7.1314 O.2     1  UNL1       -0.2701
     22 C           6.7247   -0.8195   -5.5335 C.3     1  UNL1        0.1574
     23 CL          7.7368    0.6426   -5.6630 Cl      1  UNL1       -0.1051
     24 O           4.4809    1.0289   -1.5358 O.2     1  UNL1       -0.3982
     25 C           4.1754    1.6003   -0.2805 C.ar    1  UNL1        0.1831
     26 H           0.6045   -0.9045   -0.2734 H       1  UNL1        0.0660
     27 H           0.5490    0.8327   -0.6339 H       1  UNL1        0.0660
     28 H           0.6207    0.2345    1.0632 H       1  UNL1        0.0660
     29 H           1.7129    1.6712    2.0593 H       1  UNL1        0.0655
     30 H           3.0177    3.6013    2.7986 H       1  UNL1        0.0619
     31 H           5.2985    3.9361    1.9279 H       1  UNL1        0.0625
     32 H           6.7572    3.8093    0.0405 H       1  UNL1        0.0635
     33 H           8.3284    4.4421   -1.0015 H       1  UNL1        0.1453
     34 H           9.2277    4.2853   -2.4535 H       1  UNL1        0.1453
     35 H           6.5736    1.3560   -3.9122 H       1  UNL1        0.4880
     36 H           4.0855   -0.1568   -3.5691 H       1  UNL1        0.2218
     37 H           3.3352   -0.5675   -6.0225 H       1  UNL1        0.0864
     38 H           7.1027   -1.4531   -4.7214 H       1  UNL1        0.0628
@<TRIPOS>UNITY_ATOM_ATTR
14 1
charge 1
@<TRIPOS>BOND
     1     1     2    1
     2     2     3    1
     3     3     4   ar
     4     4     5   ar
     5     5     6   ar
     6     6     7   ar
     7     7     8   ar
     8     8     9   ar
     9     9    10    1
    10    10    11   am
    11    10    12    2
    12     9    13   ar
    13    13    14    2
    14    14    15    1
    15    15    16    1
    16    16    17    2
    17    17    18    1
    18    18    19    2
    19    19    20    1
    20    20    21    2
    21    20    22    1
    22    16    22    1
    23    22    23    1
    24    13    24   ar
    25    24    25   ar
    26     3    25   ar
    27     7    25   ar
    28     1    26    1
    29     1    27    1
    30     1    28    1
    31     4    29    1
    32     5    30    1
    33     6    31    1
    34     8    32    1
    35    11    33    1
    36    11    34    1
    37    14    35    1
    38    15    36    1
    39    17    37    1
    40    22    38    1
