REMARK  7 active torsions:
REMARK  status: ('A' for Active; 'I' for Inactive)
REMARK    1  A    between atoms: N_1  and  C_2 
REMARK    2  A    between atoms: C_6  and  N_7 
REMARK    3  A    between atoms: C_10  and  C_11 
REMARK    4  A    between atoms: C_11  and  N_12 
REMARK    5  A    between atoms: C_18  and  C_19 
REMARK       I    between atoms: C_19  and  N_21 
REMARK    6  A    between atoms: N_21  and  N_22 
REMARK    7  A    between atoms: C_23  and  C_24 
ROOT
ATOM      1  N   UNL d   1       0.165  -2.571  -0.437  0.00  0.00    -0.208 N 
ATOM      2  N   UNL d   1      -0.147  -3.713  -1.101  0.00  0.00     0.012 NA
ATOM      3  N   UNL d   1       0.491  -4.754  -0.527  0.00  0.00    -0.160 NA
ATOM      4  C   UNL d   1       1.124  -4.307   0.607  0.00  0.00     0.112 C 
ATOM      5  C   UNL d   1       0.854  -2.910   0.659  0.00  0.00     0.153 C 
ENDROOT
BRANCH   5   6
ATOM      6  C   UNL d   1       1.196  -1.980   1.664  0.00  0.00     0.292 C 
ATOM      7  O   UNL d   1       1.576  -2.598   2.557  0.00  0.00    -0.264 OA
ATOM      8  N   UNL d   1       1.176  -0.606   1.889  0.00  0.00    -0.242 N 
ATOM      9  H   UNL d   1       0.293  -0.133   1.766  0.00  0.00     0.192 HD
BRANCH   8  10
ATOM     10  N   UNL d   1       2.103  -0.030   2.813  0.00  0.00    -0.183 NA
ATOM     11  C   UNL d   1       1.699   1.017   3.481  0.00  0.00     0.151 C 
BRANCH  11  12
ATOM     12  C   UNL d   1       2.243   1.497   4.827  0.00  0.00    -0.006 A 
ATOM     13  C   UNL d   1       3.551   1.226   5.265  0.00  0.00     0.014 A 
ATOM     14  C   UNL d   1       4.005   1.671   6.524  0.00  0.00     0.002 A 
ATOM     15  C   UNL d   1       3.158   2.385   7.371  0.00  0.00     0.012 A 
ATOM     16  C   UNL d   1       1.848   2.673   6.971  0.00  0.00    -0.025 A 
ATOM     17  C   UNL d   1       1.009   3.428   7.812  0.00  0.00     0.012 A 
ATOM     18  C   UNL d   1       1.371   2.209   5.706  0.00  0.00    -0.014 A 
ATOM     19  C   UNL d   1      -0.302   3.718   7.438  0.00  0.00     0.001 A 
ATOM     20  C   UNL d   1      -0.793   3.241   6.234  0.00  0.00     0.001 A 
ATOM     21  C   UNL d   1       0.025   2.487   5.396  0.00  0.00     0.013 A 
ENDBRANCH  11  12
ENDBRANCH   8  10
ENDBRANCH   5   6
BRANCH   4  22
ATOM     22  C   UNL d   1       1.949  -5.286   1.550  0.00  0.00     0.297 C 
BRANCH  22  23
ATOM     23  N   UNL d   1       2.544  -4.654   2.846  0.00  0.00    -0.066 N 
ATOM     24  C   UNL d   1       3.610  -3.435   2.415  0.00  0.00     0.235 C 
ATOM     25  C   UNL d   1       3.696  -2.358   3.567  0.00  0.00     0.028 C 
ATOM     26  C   UNL d   1       2.421  -2.046   4.503  0.00  0.00     0.003 C 
ATOM     27  C   UNL d   1       1.604  -3.251   4.945  0.00  0.00     0.028 C 
ATOM     28  C   UNL d   1       1.222  -4.294   3.856  0.00  0.00     0.235 C 
ATOM     29  H   UNL d   1       3.111  -5.309   3.391  0.00  0.00     0.280 HD
ENDBRANCH  22  23
ENDBRANCH   4  22
BRANCH   1  30
ATOM     30  C   UNL d   1      -0.178  -1.202  -0.643  0.00  0.00     0.220 C 
ATOM     31  N   UNL d   1      -1.377  -0.822  -0.174  0.00  0.00    -0.082 NA
ATOM     32  O   UNL d   1      -1.282   0.561  -0.033  0.00  0.00    -0.103 OA
ATOM     33  N   UNL d   1       0.032   0.991  -0.157  0.00  0.00    -0.089 NA
ATOM     34  C   UNL d   1       0.738  -0.078  -0.542  0.00  0.00     0.180 C 
BRANCH  34  35
ATOM     35  N   UNL d   1       2.113  -0.091  -0.474  0.00  0.00    -0.282 NA
ATOM     36  H   UNL d   1       2.535   0.744  -0.044  0.00  0.00     0.126 HD
ATOM     37  H   UNL d   1       2.621  -0.879  -0.075  0.00  0.00     0.126 HD
ENDBRANCH  34  35
ENDBRANCH   1  30
TORSDOF 7
