@<TRIPOS>MOLECULE
*****
 54 56 0 0 0
SMALL
GASTEIGER

@<TRIPOS>ATOM
      1 C           2.2183    1.9131    0.0340 C.3     1  UNL1       -0.0397
      2 C           1.0538    0.9713   -0.0206 C.ar    1  UNL1       -0.0498
      3 C          -0.2946    1.3367    0.0033 C.ar    1  UNL1       -0.0541
      4 C          -1.3338    0.3528   -0.0171 C.ar    1  UNL1       -0.0287
      5 C          -2.7609    0.8491    0.0015 C.3     1  UNL1       -0.0379
      6 C          -1.0108   -1.0377   -0.0414 C.ar    1  UNL1        0.0393
      7 N          -2.0701   -2.0338   -0.0232 N.am    1  UNL1       -0.2837
      8 C          -1.9829   -3.4109   -0.2544 C.2     1  UNL1        0.2343
      9 O          -1.0327   -4.0322   -0.7421 O.2     1  UNL1       -0.2738
     10 C          -3.2091   -4.2767    0.0504 C.3     1  UNL1        0.0861
     11 N          -2.7135   -5.6461    0.3039 N.pl3   1  UNL1       -0.3354
     12 C          -3.4625   -6.7822    0.0659 C.ar    1  UNL1        0.0275
     13 C          -3.1355   -7.9487    0.7663 C.ar    1  UNL1       -0.0401
     14 C          -3.9062   -9.1096    0.6318 C.ar    1  UNL1       -0.0479
     15 C          -5.0423   -9.1080   -0.1910 C.ar    1  UNL1        0.0368
     16 C          -5.9484  -10.3011   -0.1720 C.2     1  UNL1        0.2444
     17 O          -5.6804  -11.2579    0.5277 O.2     1  UNL1       -0.2702
     18 N          -7.1013  -10.2437   -0.9467 N.am    1  UNL1       -0.3042
     19 C          -8.0329  -11.3417   -0.9136 C.3     1  UNL1        0.0700
     20 C          -9.1801  -11.1635   -1.8474 C.ar    1  UNL1        0.1218
     21 C         -10.0136  -12.1036   -2.4199 C.ar    1  UNL1       -0.0192
     22 C         -10.9420  -11.4001   -3.2162 C.ar    1  UNL1       -0.0236
     23 C         -10.6314  -10.0679   -3.0738 C.ar    1  UNL1        0.0921
     24 O          -9.5613   -9.9084   -2.2417 O.2     1  UNL1       -0.4662
     25 C          -5.3154   -7.9725   -0.9547 C.ar    1  UNL1       -0.0479
     26 C          -4.5230   -6.8300   -0.8336 C.ar    1  UNL1       -0.0401
     27 C           0.3647   -1.3602    0.0005 C.ar    1  UNL1       -0.0287
     28 C           0.9066   -2.7331    0.1886 C.3     1  UNL1       -0.0379
     29 C           1.3611   -0.3762   -0.0421 C.ar    1  UNL1       -0.0541
     30 H           1.9209    2.9621    0.0137 H       1  UNL1        0.0278
     31 H           2.8831    1.7207   -0.8177 H       1  UNL1        0.0278
     32 H           2.7914    1.7272    0.9520 H       1  UNL1        0.0278
     33 H          -0.5443    2.3977    0.0427 H       1  UNL1        0.0623
     34 H          -2.8231    1.9449    0.0120 H       1  UNL1        0.0278
     35 H          -3.2789    0.4904    0.8970 H       1  UNL1        0.0278
     36 H          -3.2910    0.5054   -0.8919 H       1  UNL1        0.0278
     37 H          -3.0071   -1.6644    0.0692 H       1  UNL1        0.1549
     38 H          -3.8344   -4.1925   -0.8424 H       1  UNL1        0.0557
     39 H          -3.7539   -3.9530    0.9394 H       1  UNL1        0.0557
     40 H          -1.7339   -5.7494    0.0038 H       1  UNL1        0.1466
     41 H          -2.3124   -7.9322    1.4800 H       1  UNL1        0.0636
     42 H          -3.6289   -9.9951    1.2009 H       1  UNL1        0.0626
     43 H          -7.3664   -9.4382   -1.4864 H       1  UNL1        0.1495
     44 H          -8.3945  -11.4717    0.1115 H       1  UNL1        0.0543
     45 H          -7.4830  -12.2452   -1.1976 H       1  UNL1        0.0543
     46 H          -9.9431  -13.1716   -2.2702 H       1  UNL1        0.0652
     47 H         -11.7391  -11.8161   -3.8172 H       1  UNL1        0.0649
     48 H         -11.0594   -9.1622   -3.4831 H       1  UNL1        0.1029
     49 H          -6.1461   -7.9248   -1.6468 H       1  UNL1        0.0626
     50 H          -4.7662   -5.9757   -1.4540 H       1  UNL1        0.0636
     51 H           0.1406   -3.2845    0.7057 H       1  UNL1        0.0278
     52 H           1.6978   -2.8141    0.9338 H       1  UNL1        0.0278
     53 H           1.2274   -3.1552   -0.7718 H       1  UNL1        0.0278
     54 H           2.4070   -0.6841   -0.0313 H       1  UNL1        0.0623
@<TRIPOS>BOND
     1     1     2    1
     2     2     3   ar
     3     3     4   ar
     4     4     5    1
     5     4     6   ar
     6     6     7    1
     7     7     8   am
     8     8     9    2
     9     8    10    1
    10    10    11    1
    11    11    12    1
    12    12    13   ar
    13    13    14   ar
    14    14    15   ar
    15    15    16    1
    16    16    17    2
    17    16    18   am
    18    18    19    1
    19    19    20    1
    20    20    21   ar
    21    21    22   ar
    22    22    23   ar
    23    23    24   ar
    24    20    24   ar
    25    15    25   ar
    26    25    26   ar
    27    12    26   ar
    28     6    27   ar
    29    27    28    1
    30    27    29   ar
    31     2    29   ar
    32     1    30    1
    33     1    31    1
    34     1    32    1
    35     3    33    1
    36     5    34    1
    37     5    35    1
    38     5    36    1
    39     7    37    1
    40    10    38    1
    41    10    39    1
    42    11    40    1
    43    13    41    1
    44    14    42    1
    45    18    43    1
    46    19    44    1
    47    19    45    1
    48    21    46    1
    49    22    47    1
    50    23    48    1
    51    25    49    1
    52    26    50    1
    53    28    51    1
    54    28    52    1
    55    28    53    1
    56    29    54    1
