REMARK  9 active torsions:
REMARK  status: ('A' for Active; 'I' for Inactive)
REMARK    1  A    between atoms: O_2  and  C_3 
REMARK    2  A    between atoms: C_3  and  C_5 
REMARK    3  A    between atoms: C_8  and  O_9 
REMARK    4  A    between atoms: O_9  and  C_10 
REMARK    5  A    between atoms: C_10  and  C_11 
REMARK    6  A    between atoms: C_14  and  C_15 
REMARK       I    between atoms: C_15  and  N_17 
REMARK    7  A    between atoms: N_17  and  C_18 
REMARK    8  A    between atoms: C_18  and  C_19 
REMARK    9  A    between atoms: C_19  and  C_20 
ROOT
ATOM      1  C   UNL d   1      11.000  -0.441   1.061  0.00  0.00     0.345 C 
ATOM      2  N   UNL d   1      11.426  -1.694   1.683  0.00  0.00    -0.168 NA
ATOM      3  O   UNL d   1      12.798  -1.451   2.151  0.00  0.00    -0.258 OA
ATOM      4  C   UNL d   1      13.048  -0.066   1.980  0.00  0.00     0.471 C 
ATOM      5  N   UNL d   1      11.746   0.593   1.789  0.00  0.00     0.145 N 
ATOM      6  H   UNL d   1      11.555  -2.393   0.946  0.00  0.00     0.156 HD
ATOM      7  H   UNL d   1      11.876   1.407   1.193  0.00  0.00     0.322 HD
ENDROOT
BRANCH   4   8
ATOM      8  C   UNL d   1      13.880   0.580   3.131  0.00  0.00     0.279 C 
ATOM      9  O   UNL d   1      15.066   0.886   2.983  0.00  0.00    -0.268 OA
ATOM     10  N   UNL d   1      13.253   0.805   4.341  0.00  0.00    -0.357 N 
ATOM     11  H   UNL d   1      12.271   0.547   4.417  0.00  0.00     0.162 HD
BRANCH  10  12
ATOM     12  C   UNL d   1      13.998   1.397   5.438  0.00  0.00     0.127 C 
BRANCH  12  13
ATOM     13  C   UNL d   1      13.153   1.558   6.681  0.00  0.00     0.056 C 
BRANCH  13  14
ATOM     14  C   UNL d   1      13.816   2.135   7.893  0.00  0.00    -0.048 A 
ATOM     15  C   UNL d   1      13.107   2.337   9.003  0.00  0.00    -0.003 A 
ATOM     16  C   UNL d   1      11.735   2.101   9.280  0.00  0.00     0.056 A 
ATOM     17  C   UNL d   1      14.015   2.958   9.973  0.00  0.00     0.039 A 
ATOM     18  C   UNL d   1      11.245   2.566  10.429  0.00  0.00     0.117 A 
ATOM     19  F   UNL d   1       9.920   2.504  10.653  0.00  0.00    -0.206 F 
ATOM     20  C   UNL d   1      12.100   3.164  11.438  0.00  0.00     0.044 A 
ATOM     21  C   UNL d   1      13.426   3.367  11.270  0.00  0.00     0.033 A 
ATOM     22  N   UNL d   1      15.203   3.054   9.507  0.00  0.00    -0.385 N 
ATOM     23  C   UNL d   1      15.240   2.580   8.084  0.00  0.00     0.155 A 
ATOM     24  H   UNL d   1      15.985   3.405  10.060  0.00  0.00     0.160 HD
ENDBRANCH  13  14
ENDBRANCH  12  13
ENDBRANCH  10  12
ENDBRANCH   4   8
BRANCH   1  25
ATOM     25  C   UNL d   1       9.458  -0.261   1.147  0.00  0.00     0.229 C 
BRANCH  25  26
ATOM     26  O   UNL d   1       8.744  -1.300   0.447  0.00  0.00    -0.348 OA
BRANCH  26  27
ATOM     27  C   UNL d   1       7.370  -1.204   0.433  0.00  0.00     0.069 A 
ATOM     28  C   UNL d   1       6.687  -2.176  -0.307  0.00  0.00     0.038 A 
ATOM     29  C   UNL d   1       5.289  -2.117  -0.462  0.00  0.00     0.020 A 
ATOM     30  C   UNL d   1       4.545  -1.121   0.185  0.00  0.00     0.039 A 
ATOM     31  C   UNL d   1       5.220  -0.170   0.954  0.00  0.00     0.020 A 
ATOM     32  C   UNL d   1       6.620  -0.215   1.077  0.00  0.00     0.038 A 
BRANCH  30  33
ATOM     33  C   UNL d   1       3.055  -1.193   0.170  0.00  0.00     0.292 C 
ATOM     34  O   UNL d   1       2.452  -2.245   0.237  0.00  0.00    -0.259 OA
BRANCH  33  35
ATOM     35  O   UNL d   1       2.495   0.045   0.081  0.00  0.00    -0.323 OA
ATOM     36  C   UNL d   1       1.057   0.033   0.068  0.00  0.00     0.213 C 
ENDBRANCH  33  35
ENDBRANCH  30  33
ENDBRANCH  26  27
ENDBRANCH  25  26
ENDBRANCH   1  25
TORSDOF 9
