REMARK  14 active torsions:
REMARK  status: ('A' for Active; 'I' for Inactive)
REMARK    1  A    between atoms: C_2  and  C_3 
REMARK    2  A    between atoms: C_3  and  C_4 
REMARK    3  A    between atoms: C_4  and  O_5 
REMARK    4  A    between atoms: O_5  and  C_6 
REMARK    5  A    between atoms: C_9  and  C_10 
REMARK    6  A    between atoms: C_10  and  O_12 
REMARK    7  A    between atoms: O_12  and  C_13 
REMARK    8  A    between atoms: C_16  and  C_17 
REMARK    9  A    between atoms: N_18  and  N_19 
REMARK       I    between atoms: N_19  and  C_20 
REMARK   10  A    between atoms: C_20  and  C_22 
REMARK   11  A    between atoms: C_22  and  O_23 
REMARK   12  A    between atoms: O_23  and  C_24 
REMARK   13  A    between atoms: C_29  and  N_30 
REMARK   14  A    between atoms: C_34  and  O_35 
ROOT
ATOM      1  C   UNL d   1      12.834  -3.566  -0.582  0.00  0.00     0.112 A 
ATOM      2  C   UNL d   1      13.606  -3.991   0.520  0.00  0.00     0.041 A 
ATOM      3  C   UNL d   1      15.018  -4.035   0.453  0.00  0.00     0.016 A 
ATOM      4  C   UNL d   1      15.669  -3.717  -0.741  0.00  0.00    -0.014 A 
ATOM      5  C   UNL d   1      14.895  -3.259  -1.820  0.00  0.00     0.052 A 
ATOM      6  C   UNL d   1      13.482  -3.151  -1.756  0.00  0.00     0.102 A 
ENDROOT
BRANCH   4   7
ATOM      7  C   UNL d   1      17.155  -3.902  -0.878  0.00  0.00     0.150 C 
ATOM      8  N   UNL d   1      17.759  -3.628  -1.993  0.00  0.00    -0.184 NA
BRANCH   8   9
ATOM      9  N   UNL d   1      19.119  -3.814  -2.105  0.00  0.00    -0.246 N 
ATOM     10  C   UNL d   1      19.727  -3.496  -3.332  0.00  0.00     0.261 C 
ATOM     11  O   UNL d   1      19.102  -3.109  -4.320  0.00  0.00    -0.269 OA
ATOM     12  H   UNL d   1      19.637  -4.244  -1.346  0.00  0.00     0.192 HD
BRANCH  10  13
ATOM     13  C   UNL d   1      21.262  -3.670  -3.352  0.00  0.00     0.280 C 
BRANCH  13  14
ATOM     14  O   UNL d   1      21.778  -3.526  -4.681  0.00  0.00    -0.340 OA
BRANCH  14  15
ATOM     15  C   UNL d   1      23.087  -3.809  -4.966  0.00  0.00     0.102 A 
ATOM     16  C   UNL d   1      23.713  -2.834  -5.783  0.00  0.00     0.039 A 
ATOM     17  C   UNL d   1      25.002  -3.020  -6.311  0.00  0.00     0.003 A 
ATOM     18  C   UNL d   1      25.723  -4.158  -5.986  0.00  0.00     0.003 A 
ATOM     19  C   UNL d   1      25.130  -5.131  -5.188  0.00  0.00     0.039 A 
ATOM     20  C   UNL d   1      23.811  -4.980  -4.699  0.00  0.00     0.136 A 
BRANCH  20  21
ATOM     21  N   UNL d   1      23.277  -6.151  -3.993  0.00  0.00    -0.113 N 
ATOM     22  O   UNL d   1      24.104  -6.904  -3.449  0.00  0.00    -0.532 OA
ATOM     23  O   UNL d   1      22.063  -6.358  -3.986  0.00  0.00    -0.532 OA
ENDBRANCH  20  21
ENDBRANCH  14  15
ENDBRANCH  13  14
ENDBRANCH  10  13
ENDBRANCH   8   9
ENDBRANCH   4   7
BRANCH   6  24
ATOM     24  O   UNL d   1      12.960  -2.625  -2.907  0.00  0.00    -0.353 OA
ATOM     25  C   UNL d   1      11.588  -2.297  -3.002  0.00  0.00     0.210 C 
ENDBRANCH   6  24
BRANCH   1  26
ATOM     26  O   UNL d   1      11.430  -3.459  -0.369  0.00  0.00    -0.272 OA
BRANCH  26  27
ATOM     27  C   UNL d   1      10.578  -4.239  -1.159  0.00  0.00     0.298 C 
ATOM     28  O   UNL d   1      10.918  -5.169  -1.865  0.00  0.00    -0.259 OA
BRANCH  27  29
ATOM     29  C   UNL d   1       9.186  -3.645  -1.207  0.00  0.00     0.040 A 
ATOM     30  C   UNL d   1       8.379  -3.845  -2.346  0.00  0.00     0.020 A 
ATOM     31  C   UNL d   1       7.058  -3.361  -2.393  0.00  0.00     0.038 A 
ATOM     32  C   UNL d   1       6.507  -2.711  -1.289  0.00  0.00     0.068 A 
ATOM     33  C   UNL d   1       7.325  -2.452  -0.187  0.00  0.00     0.038 A 
ATOM     34  C   UNL d   1       8.664  -2.886  -0.158  0.00  0.00     0.020 A 
BRANCH  32  35
ATOM     35  O   UNL d   1       5.156  -2.482  -1.335  0.00  0.00    -0.351 OA
BRANCH  35  36
ATOM     36  C   UNL d   1       4.685  -1.309  -0.666  0.00  0.00     0.175 C 
BRANCH  36  37
ATOM     37  C   UNL d   1       3.155  -1.312  -0.654  0.00  0.00     0.026 C 
BRANCH  37  38
ATOM     38  C   UNL d   1       2.608  -0.020  -0.047  0.00  0.00    -0.002 C 
ATOM     39  C   UNL d   1       1.089  -0.009  -0.039  0.00  0.00     0.005 C 
ENDBRANCH  37  38
ENDBRANCH  36  37
ENDBRANCH  35  36
ENDBRANCH  32  35
ENDBRANCH  27  29
ENDBRANCH  26  27
ENDBRANCH   1  26
TORSDOF 14
