@<TRIPOS>MOLECULE
*****
 66 68 0 0 0
SMALL
GASTEIGER

@<TRIPOS>ATOM
      1 O           1.0671   -0.2932   -0.1261 O.2     1  UNL1       -0.2754
      2 C           2.2765   -0.1237    0.0201 C.2     1  UNL1        0.2185
      3 C           2.8522    0.9440    0.9340 C.3     1  UNL1        0.0248
      4 C           1.9042    1.8335    1.6938 C.3     1  UNL1       -0.0347
      5 C           2.6777    2.8574    2.5496 C.3     1  UNL1        0.0454
      6 C           1.6901    3.7268    3.2822 C.2     1  UNL1        0.3071
      7 O           0.4653    3.6099    3.1825 O.2     1  UNL1       -0.2509
      8 O           2.3033    4.6530    4.0665 O.3     1  UNL1       -0.4646
      9 C           1.3684    5.4861    4.7722 C.3     1  UNL1        0.0928
     10 C           2.1235    6.4925    5.6311 C.3     1  UNL1       -0.0146
     11 C           1.1489    7.3814    6.3953 C.3     1  UNL1       -0.0246
     12 C           1.8213    8.4198    7.2556 C.ar    1  UNL1       -0.0472
     13 C           2.5956    8.0563    8.3658 C.ar    1  UNL1       -0.0586
     14 C           3.0300    9.0302    9.2662 C.ar    1  UNL1       -0.0615
     15 C           2.7709   10.3772    9.0181 C.ar    1  UNL1       -0.0617
     16 C           2.0577   10.7514    7.8819 C.ar    1  UNL1       -0.0615
     17 C           1.5819    9.7770    7.0072 C.ar    1  UNL1       -0.0586
     18 N           3.1988   -0.9351   -0.6695 N.am    1  UNL1       -0.2676
     19 C           4.6092   -0.8751   -0.7752 C.2     1  UNL1        0.1408
     20 S           5.5693    0.3619   -0.1193 S.2     1  UNL1       -0.0182
     21 N           5.1737   -1.9397   -1.5097 N.am    1  UNL1       -0.2966
     22 C           6.5920   -2.1376   -1.5584 C.ar    1  UNL1        0.0328
     23 C           7.2955   -2.2882   -2.7524 C.ar    1  UNL1       -0.0370
     24 C           8.7036   -2.3953   -2.7159 C.ar    1  UNL1       -0.0182
     25 C           9.4134   -2.2767   -1.5110 C.ar    1  UNL1        0.1207
     26 O          10.7790   -2.2977   -1.5876 O.3     1  UNL1       -0.4894
     27 C          11.4927   -2.0845   -0.3538 C.3     1  UNL1        0.1156
     28 C          12.9990   -2.0708   -0.6144 C.3     1  UNL1        0.0927
     29 C          13.4257   -0.9792   -1.5827 C.3     1  UNL1       -0.0213
     30 C          14.5859   -1.6079   -2.3066 C.3     1  UNL1       -0.0270
     31 C          14.2143   -3.0732   -2.3334 C.3     1  UNL1        0.0482
     32 O          13.4285   -3.3290   -1.1653 O.3     1  UNL1       -0.3732
     33 C           8.7037   -2.1400   -0.3308 C.ar    1  UNL1       -0.0182
     34 C           7.3154   -2.1254   -0.3584 C.ar    1  UNL1       -0.0370
     35 H           3.4130    1.6312    0.2968 H       1  UNL1        0.0359
     36 H           3.4814    0.4318    1.6712 H       1  UNL1        0.0359
     37 H           1.2608    1.2200    2.3308 H       1  UNL1        0.0275
     38 H           1.2635    2.3622    0.9793 H       1  UNL1        0.0275
     39 H           3.3151    3.4881    1.9155 H       1  UNL1        0.0378
     40 H           3.3191    2.3420    3.2759 H       1  UNL1        0.0378
     41 H           0.7340    4.8595    5.4124 H       1  UNL1        0.0697
     42 H           0.7357    6.0175    4.0496 H       1  UNL1        0.0697
     43 H           2.7765    7.1040    4.9970 H       1  UNL1        0.0301
     44 H           2.7850    5.9562    6.3210 H       1  UNL1        0.0301
     45 H           0.4973    6.7783    7.0417 H       1  UNL1        0.0314
     46 H           0.4781    7.8796    5.6826 H       1  UNL1        0.0314
     47 H           2.8408    7.0138    8.5558 H       1  UNL1        0.0620
     48 H           3.5488    8.7368   10.1752 H       1  UNL1        0.0618
     49 H           3.1224   11.1356    9.7117 H       1  UNL1        0.0618
     50 H           1.8427   11.7987    7.6900 H       1  UNL1        0.0618
     51 H           1.0011   10.0807    6.1394 H       1  UNL1        0.0620
     52 H           2.7068   -1.6296   -1.2204 H       1  UNL1        0.1565
     53 H           4.6291   -2.3954   -2.2337 H       1  UNL1        0.1538
     54 H           6.7998   -2.2417   -3.7185 H       1  UNL1        0.0637
     55 H           9.2581   -2.5526   -3.6391 H       1  UNL1        0.0655
     56 H          11.2630   -2.8978    0.3457 H       1  UNL1        0.0723
     57 H          11.2096   -1.1180    0.0854 H       1  UNL1        0.0723
     58 H          13.5298   -1.9528    0.3386 H       1  UNL1        0.0630
     59 H          13.6973   -0.0545   -1.0634 H       1  UNL1        0.0292
     60 H          12.6292   -0.7330   -2.2930 H       1  UNL1        0.0292
     61 H          15.5048   -1.4664   -1.7272 H       1  UNL1        0.0288
     62 H          14.7452   -1.1931   -3.3055 H       1  UNL1        0.0288
     63 H          15.0943   -3.7221   -2.3233 H       1  UNL1        0.0560
     64 H          13.6099   -3.3191   -3.2129 H       1  UNL1        0.0560
     65 H           9.1810   -2.0356    0.6360 H       1  UNL1        0.0655
     66 H           6.8031   -2.0358    0.5953 H       1  UNL1        0.0637
@<TRIPOS>BOND
     1     1     2    2
     2     2     3    1
     3     3     4    1
     4     4     5    1
     5     5     6    1
     6     6     7    2
     7     6     8    1
     8     8     9    1
     9     9    10    1
    10    10    11    1
    11    11    12    1
    12    12    13   ar
    13    13    14   ar
    14    14    15   ar
    15    15    16   ar
    16    16    17   ar
    17    12    17   ar
    18     2    18   am
    19    18    19    1
    20    19    20    2
    21    19    21    1
    22    21    22    1
    23    22    23   ar
    24    23    24   ar
    25    24    25   ar
    26    25    26    1
    27    26    27    1
    28    27    28    1
    29    28    29    1
    30    29    30    1
    31    30    31    1
    32    31    32    1
    33    28    32    1
    34    25    33   ar
    35    33    34   ar
    36    22    34   ar
    37     3    35    1
    38     3    36    1
    39     4    37    1
    40     4    38    1
    41     5    39    1
    42     5    40    1
    43     9    41    1
    44     9    42    1
    45    10    43    1
    46    10    44    1
    47    11    45    1
    48    11    46    1
    49    13    47    1
    50    14    48    1
    51    15    49    1
    52    16    50    1
    53    17    51    1
    54    18    52    1
    55    21    53    1
    56    23    54    1
    57    24    55    1
    58    27    56    1
    59    27    57    1
    60    28    58    1
    61    29    59    1
    62    29    60    1
    63    30    61    1
    64    30    62    1
    65    31    63    1
    66    31    64    1
    67    33    65    1
    68    34    66    1
