REMARK  8 active torsions:
REMARK  status: ('A' for Active; 'I' for Inactive)
REMARK    1  A    between atoms: C_5  and  N_6 
REMARK    2  A    between atoms: N_6  and  C_7 
REMARK    3  A    between atoms: C_7  and  C_8 
REMARK    4  A    between atoms: C_8  and  N_9 
REMARK       I    between atoms: N_9  and  C_10 
REMARK    5  A    between atoms: C_10  and  C_12 
REMARK    6  A    between atoms: C_12  and  N_13 
REMARK       I    between atoms: N_13  and  C_14 
REMARK    7  A    between atoms: C_14  and  C_16 
REMARK    8  A    between atoms: C_16  and  C_17 
ROOT
ATOM      1  N   UNL d   1       9.805   2.026  -1.160  0.00  0.00    -0.358 N 
ATOM      2  C   UNL d   1      11.180   1.973  -1.454  0.00  0.00     0.235 C 
ATOM      3  O   UNL d   1      11.729   0.886  -1.641  0.00  0.00    -0.272 OA
ATOM      4  H   UNL d   1       9.334   2.911  -1.002  0.00  0.00     0.162 HD
ENDROOT
BRANCH   2   5
ATOM      5  C   UNL d   1      12.029   3.327  -1.545  0.00  0.00     0.225 C 
BRANCH   5   6
ATOM      6  N   UNL d   1      13.602   3.223  -1.882  0.00  0.00    -0.352 N 
ATOM      7  C   UNL d   1      14.518   4.490  -1.983  0.00  0.00     0.222 C 
ATOM      8  O   UNL d   1      13.854   5.515  -1.787  0.00  0.00    -0.273 OA
ATOM      9  H   UNL d   1      13.804   2.219  -1.991  0.00  0.00     0.162 HD
BRANCH   7  10
ATOM     10  C   UNL d   1      16.385   4.631  -2.308  0.00  0.00     0.138 C 
BRANCH  10  11
ATOM     11  C   UNL d   1      17.758   6.129  -2.414  0.00  0.00    -0.051 C 
ATOM     12  C   UNL d   1      18.102   4.949  -2.692  0.00  0.00     0.050 C 
ATOM     13  C   UNL d   1      18.473   6.058  -2.996  0.00  0.00    -0.016 C 
ATOM     14  C   UNL d   1      19.957   6.012  -3.137  0.00  0.00     0.009 C 
ATOM     15  C   UNL d   1      20.473   7.160  -3.045  0.00  0.00    -0.026 C 
ATOM     16  C   UNL d   1      22.078   7.435  -3.357  0.00  0.00     0.012 C 
ATOM     17  C   UNL d   1      19.285   7.628  -2.606  0.00  0.00    -0.022 C 
ATOM     18  C   UNL d   1      22.837   8.570  -3.185  0.00  0.00     0.001 C 
ATOM     19  C   UNL d   1      21.948   9.551  -2.940  0.00  0.00     0.001 C 
ATOM     20  C   UNL d   1      20.307   9.129  -2.767  0.00  0.00     0.012 C 
ENDBRANCH  10  11
ENDBRANCH   7  10
ENDBRANCH   5   6
ENDBRANCH   2   5
BRANCH   1  21
ATOM     21  C   UNL d   1       8.986   0.792  -1.067  0.00  0.00     0.142 C 
BRANCH  21  22
ATOM     22  C   UNL d   1       7.502   1.048  -0.735  0.00  0.00     0.141 C 
BRANCH  22  23
ATOM     23  N   UNL d   1       6.696  -0.177  -0.619  0.00  0.00    -0.372 N 
ATOM     24  H   UNL d   1       7.158  -1.065  -0.800  0.00  0.00     0.161 HD
BRANCH  23  25
ATOM     25  C   UNL d   1       5.332  -0.153  -0.344  0.00  0.00     0.143 C 
ATOM     26  C   UNL d   1       4.670   1.048  -0.154  0.00  0.00     0.054 C 
ATOM     27  C   UNL d   1       3.288   1.094  -0.138  0.00  0.00     0.030 C 
ATOM     28  C   UNL d   1       2.591  -0.096  -0.076  0.00  0.00     0.024 C 
ATOM     29  C   UNL d   1       1.088  -0.090  -0.059  0.00  0.00     0.070 C 
ATOM     30  N   UNL d   1       3.297  -1.243  -0.018  0.00  0.00    -0.281 N 
ATOM     31  N   UNL d   1       4.625  -1.300  -0.251  0.00  0.00    -0.157 NA
ATOM     32  H   UNL d   1       2.817  -2.115   0.215  0.00  0.00     0.189 HD
ENDBRANCH  23  25
ENDBRANCH  22  23
ENDBRANCH  21  22
ENDBRANCH   1  21
TORSDOF 8
