REMARK  8 active torsions:
REMARK  status: ('A' for Active; 'I' for Inactive)
REMARK    1  A    between atoms: N_1  and  N_2 
REMARK       I    between atoms: N_2  and  C_3 
REMARK    2  A    between atoms: C_3  and  C_5 
REMARK    3  A    between atoms: C_5  and  N_6 
REMARK    4  A    between atoms: N_6  and  C_7 
REMARK    5  A    between atoms: C_7  and  C_8 
REMARK    6  A    between atoms: C_7  and  C_14 
REMARK    7  A    between atoms: C_20  and  N_21 
REMARK       I    between atoms: N_21  and  C_22 
REMARK    8  A    between atoms: C_22  and  C_24 
ROOT
ATOM      1  C   UNL d   1       7.105   1.494   3.723  0.00  0.00    -0.003 A 
ATOM      2  C   UNL d   1       7.419   0.626   4.830  0.00  0.00     0.031 A 
ATOM      3  C   UNL d   1       7.573   1.106   6.137  0.00  0.00     0.011 A 
ATOM      4 BR   UNL d   1       7.655  -0.092   7.606  0.00  0.00    -0.051 Br
ATOM      5  C   UNL d   1       7.560   2.469   6.384  0.00  0.00     0.021 A 
ATOM      6  C   UNL d   1       7.314   3.355   5.326  0.00  0.00     0.031 A 
ATOM      7  C   UNL d   1       7.032   2.919   4.001  0.00  0.00     0.043 A 
ENDROOT
BRANCH   1   8
ATOM      8  C   UNL d   1       6.750   0.696   2.384  0.00  0.00     0.146 C 
BRANCH   8   9
ATOM      9  N   UNL d   1       5.278   0.551   2.381  0.00  0.00    -0.401 N 
ATOM     10  H   UNL d   1       4.856   0.214   3.246  0.00  0.00     0.154 HD
BRANCH   9  11
ATOM     11  C   UNL d   1       4.574   0.170   1.169  0.00  0.00     0.219 C 
BRANCH  11  12
ATOM     12  C   UNL d   1       3.038   0.339   1.264  0.00  0.00     0.248 C 
ATOM     13  N   UNL d   1       2.397  -0.045   0.071  0.00  0.00    -0.293 N 
ATOM     14  H   UNL d   1       2.943  -0.421  -0.701  0.00  0.00     0.183 HD
ATOM     15  O   UNL d   1       2.429   0.771   2.240  0.00  0.00    -0.270 OA
BRANCH  13  16
ATOM     16  N   UNL d   1       0.987  -0.103   0.024  0.00  0.00    -0.247 NA
ATOM     17  H   UNL d   1       0.657  -0.386  -0.898  0.00  0.00     0.143 HD
ATOM     18  H   UNL d   1       0.624   0.838   0.204  0.00  0.00     0.143 HD
ENDBRANCH  13  16
ENDBRANCH  11  12
ENDBRANCH   9  11
ENDBRANCH   8   9
BRANCH   8  19
ATOM     19  C   UNL d   1       7.399   1.252   1.119  0.00  0.00    -0.031 C 
ATOM     20  C   UNL d   1       8.268   0.854   0.117  0.00  0.00     0.009 C 
ATOM     21  C   UNL d   1       8.696   1.808  -0.923  0.00  0.00     0.001 C 
ATOM     22  C   UNL d   1       8.358   3.134  -0.812  0.00  0.00     0.000 C 
ATOM     23  C   UNL d   1       7.808   3.301   0.378  0.00  0.00     0.001 C 
ATOM     24  C   UNL d   1       6.881   2.356   0.637  0.00  0.00     0.009 C 
ENDBRANCH   8  19
ENDBRANCH   1   8
BRANCH   7  25
ATOM     25  N   UNL d   1       6.725   4.032   3.094  0.00  0.00    -0.322 N 
ATOM     26  C   UNL d   1       5.619   4.083   2.228  0.00  0.00     0.257 C 
ATOM     27  O   UNL d   1       4.668   3.299   2.416  0.00  0.00    -0.267 OA
ATOM     28  H   UNL d   1       7.007   4.948   3.427  0.00  0.00     0.169 HD
BRANCH  26  29
ATOM     29  C   UNL d   1       5.624   4.938   0.843  0.00  0.00     0.054 C 
ATOM     30  C   UNL d   1       4.847   4.356  -0.244  0.00  0.00     0.019 C 
ATOM     31  C   UNL d   1       4.922   4.783  -1.586  0.00  0.00     0.001 C 
ATOM     32  C   UNL d   1       5.718   5.867  -1.901  0.00  0.00     0.002 C 
ATOM     33  C   UNL d   1       6.592   6.369  -0.937  0.00  0.00     0.025 C 
ATOM     34  C   UNL d   1       6.559   5.928   0.417  0.00  0.00     0.049 C 
ATOM     35 CL   UNL d   1       7.921   6.512   1.353  0.00  0.00    -0.083 Cl
ENDBRANCH  26  29
ENDBRANCH   7  25
TORSDOF 8
