REMARK  8 active torsions:
REMARK  status: ('A' for Active; 'I' for Inactive)
REMARK    1  A    between atoms: C_2  and  C_5 
REMARK    2  A    between atoms: C_7  and  N_8 
REMARK       I    between atoms: N_8  and  C_9 
REMARK    3  A    between atoms: C_9  and  C_11 
REMARK    4  A    between atoms: C_11  and  S_12 
REMARK    5  A    between atoms: S_12  and  C_13 
REMARK    6  A    between atoms: N_17  and  C_18 
REMARK    7  A    between atoms: C_21  and  O_22 
REMARK    8  A    between atoms: N_25  and  C_26 
ROOT
ATOM      1  N   UNL d   1       3.653   2.892  -3.955  0.00  0.00    -0.311 N 
ATOM      2  C   UNL d   1       3.299   4.227  -3.474  0.00  0.00     0.233 C 
ATOM      3  O   UNL d   1       2.827   4.367  -2.350  0.00  0.00    -0.272 OA
ATOM      4  H   UNL d   1       3.962   2.743  -4.913  0.00  0.00     0.170 HD
ENDROOT
BRANCH   1   5
ATOM      5  C   UNL d   1       3.540   1.755  -3.132  0.00  0.00     0.134 A 
ATOM      6  C   UNL d   1       3.054   1.732  -1.851  0.00  0.00     0.080 A 
ATOM      7  C   UNL d   1       3.062   0.391  -1.431  0.00  0.00     0.066 A 
ATOM      8  N   UNL d   1       3.443  -0.420  -2.425  0.00  0.00    -0.169 NA
ATOM      9  N   UNL d   1       3.810   0.417  -3.429  0.00  0.00    -0.217 N 
BRANCH   7  10
ATOM     10  C   UNL d   1       2.594  -0.090  -0.071  0.00  0.00    -0.005 C 
ATOM     11  C   UNL d   1       1.055  -0.082  -0.044  0.00  0.00     0.021 C 
ATOM     12  C   UNL d   1       3.102   0.858   1.044  0.00  0.00     0.021 C 
ATOM     13  C   UNL d   1       3.101  -1.504   0.243  0.00  0.00     0.021 C 
ENDBRANCH   7  10
BRANCH   9  14
ATOM     14  C   UNL d   1       4.338  -0.085  -4.635  0.00  0.00     0.060 A 
ATOM     15  C   UNL d   1       5.543   0.429  -5.121  0.00  0.00     0.031 A 
ATOM     16  C   UNL d   1       6.009   0.014  -6.368  0.00  0.00     0.002 A 
ATOM     17  C   UNL d   1       5.301  -0.944  -7.095  0.00  0.00     0.000 A 
ATOM     18  C   UNL d   1       4.108  -1.470  -6.595  0.00  0.00     0.002 A 
ATOM     19  C   UNL d   1       3.625  -1.052  -5.353  0.00  0.00     0.031 A 
ENDBRANCH   9  14
ENDBRANCH   1   5
BRANCH   2  20
ATOM     20  C   UNL d   1       3.451   5.372  -4.449  0.00  0.00     0.185 C 
BRANCH  20  21
ATOM     21  S   UNL d   1       2.876   6.956  -3.740  0.00  0.00    -0.080 SA
BRANCH  21  22
ATOM     22  C   UNL d   1       2.941   8.238  -4.918  0.00  0.00     0.203 A 
ATOM     23  N   UNL d   1       2.856   9.515  -4.597  0.00  0.00    -0.135 NA
ATOM     24  N   UNL d   1       3.025  10.226  -5.761  0.00  0.00     0.019 NA
ATOM     25  N   UNL d   1       3.259   9.413  -6.780  0.00  0.00     0.003 NA
ATOM     26  N   UNL d   1       3.143   8.164  -6.280  0.00  0.00    -0.217 N 
BRANCH  26  27
ATOM     27  C   UNL d   1       3.217   7.051  -7.123  0.00  0.00     0.057 A 
ATOM     28  C   UNL d   1       2.192   6.098  -7.112  0.00  0.00     0.034 A 
ATOM     29  C   UNL d   1       2.335   4.926  -7.855  0.00  0.00     0.039 A 
ATOM     30  C   UNL d   1       3.468   4.761  -8.646  0.00  0.00     0.065 A 
ATOM     31  C   UNL d   1       4.467   5.732  -8.686  0.00  0.00     0.039 A 
ATOM     32  C   UNL d   1       4.349   6.889  -7.922  0.00  0.00     0.034 A 
BRANCH  30  33
ATOM     33  O   UNL d   1       3.654   3.646  -9.403  0.00  0.00    -0.361 OA
ATOM     34  H   UNL d   1       2.836   3.121  -9.430  0.00  0.00     0.217 HD
ENDBRANCH  30  33
ENDBRANCH  26  27
ENDBRANCH  21  22
ENDBRANCH  20  21
ENDBRANCH   2  20
TORSDOF 8
