@<TRIPOS>MOLECULE
*****
 50 51 0 0 0
SMALL
GASTEIGER

@<TRIPOS>ATOM
      1 C           0.9891   -0.0849    0.1007 C.3     1  UNL1        0.0366
      2 O           2.3769   -0.2075    0.3695 O.3     1  UNL1       -0.3796
      3 C           2.9204    0.9793    0.9477 C.3     1  UNL1        0.0814
      4 C           4.4351    0.8263    1.1302 C.3     1  UNL1        0.1129
      5 O           4.9363    2.0790    1.5864 O.3     1  UNL1       -0.4878
      6 C           6.2579    2.3713    1.3949 C.ar    1  UNL1        0.1417
      7 C           6.8393    2.9352    2.5536 C.ar    1  UNL1       -0.0181
      8 C           8.1706    3.3385    2.5835 C.ar    1  UNL1       -0.0582
      9 C           8.9597    3.1137    1.4649 C.ar    1  UNL1       -0.0598
     10 C           8.3919    2.5613    0.2972 C.ar    1  UNL1       -0.0369
     11 C           7.0177    2.2286    0.2149 C.ar    1  UNL1        0.0768
     12 N           6.5159    1.7441   -1.0480 N.am    1  UNL1       -0.2664
     13 C           5.2042    1.8785   -1.4957 C.2     1  UNL1        0.3040
     14 O           4.4097    2.7193   -1.0730 O.2     1  UNL1       -0.2525
     15 N           4.7845    0.8495   -2.3325 N.am    1  UNL1       -0.2977
     16 C           3.3796    0.3898   -2.3648 C.3     1  UNL1        0.0286
     17 C           2.9062   -0.2558   -3.6707 C.3     1  UNL1        0.0275
     18 N           1.4890   -0.6467   -3.7053 N.am    1  UNL1       -0.3099
     19 C           0.9786   -1.2937   -4.8188 C.2     1  UNL1        0.2441
     20 O           1.6754   -1.5711   -5.7986 O.2     1  UNL1       -0.2702
     21 C          -0.4704   -1.6578   -4.8384 C.ar    1  UNL1        0.0369
     22 C          -0.8756   -2.8487   -5.4691 C.ar    1  UNL1       -0.0462
     23 C          -2.2363   -3.1289   -5.6702 C.ar    1  UNL1       -0.0195
     24 C          -3.1925   -2.2450   -5.1837 C.ar    1  UNL1        0.1169
     25 O          -4.5287   -2.4943   -5.2988 O.3     1  UNL1       -0.5068
     26 C          -2.8067   -1.0659   -4.5526 C.ar    1  UNL1       -0.0195
     27 C          -1.4473   -0.7664   -4.3820 C.ar    1  UNL1       -0.0462
     28 H           0.6775   -0.9666   -0.4673 H       1  UNL1        0.0524
     29 H           0.7627    0.8019   -0.5032 H       1  UNL1        0.0524
     30 H           0.4474   -0.0548    1.0457 H       1  UNL1        0.0524
     31 H           2.4484    1.1600    1.9163 H       1  UNL1        0.0593
     32 H           2.6793    1.8467    0.3181 H       1  UNL1        0.0593
     33 H           4.8812    0.4496    0.2150 H       1  UNL1        0.0720
     34 H           4.6767    0.0399    1.8493 H       1  UNL1        0.0720
     35 H           6.2354    3.0510    3.4524 H       1  UNL1        0.0655
     36 H           8.5807    3.8169    3.4716 H       1  UNL1        0.0619
     37 H          10.0149    3.3826    1.5013 H       1  UNL1        0.0618
     38 H           9.0496    2.4487   -0.5610 H       1  UNL1        0.0637
     39 H           7.2063    1.4951   -1.7404 H       1  UNL1        0.1565
     40 H           5.4424    0.4279   -2.9681 H       1  UNL1        0.1503
     41 H           2.7128    1.2075   -2.0715 H       1  UNL1        0.0478
     42 H           3.3042   -0.4042   -1.6189 H       1  UNL1        0.0478
     43 H           3.4964   -1.1625   -3.8498 H       1  UNL1        0.0477
     44 H           3.0820    0.4312   -4.5018 H       1  UNL1        0.0477
     45 H           0.9108   -0.5464   -2.8794 H       1  UNL1        0.1491
     46 H          -0.1288   -3.5578   -5.8224 H       1  UNL1        0.0626
     47 H          -2.5254   -4.0169   -6.2260 H       1  UNL1        0.0654
     48 H          -4.6613   -3.3930   -5.6446 H       1  UNL1        0.2921
     49 H          -3.5682   -0.3656   -4.2186 H       1  UNL1        0.0654
     50 H          -1.1686    0.1843   -3.9398 H       1  UNL1        0.0626
@<TRIPOS>BOND
     1     1     2    1
     2     2     3    1
     3     3     4    1
     4     4     5    1
     5     5     6    1
     6     6     7   ar
     7     7     8   ar
     8     8     9   ar
     9     9    10   ar
    10    10    11   ar
    11     6    11   ar
    12    11    12    1
    13    12    13   am
    14    13    14    2
    15    13    15   am
    16    15    16    1
    17    16    17    1
    18    17    18    1
    19    18    19   am
    20    19    20    2
    21    19    21    1
    22    21    22   ar
    23    22    23   ar
    24    23    24   ar
    25    24    25    1
    26    24    26   ar
    27    26    27   ar
    28    21    27   ar
    29     1    28    1
    30     1    29    1
    31     1    30    1
    32     3    31    1
    33     3    32    1
    34     4    33    1
    35     4    34    1
    36     7    35    1
    37     8    36    1
    38     9    37    1
    39    10    38    1
    40    12    39    1
    41    15    40    1
    42    16    41    1
    43    16    42    1
    44    17    43    1
    45    17    44    1
    46    18    45    1
    47    22    46    1
    48    23    47    1
    49    25    48    1
    50    26    49    1
    51    27    50    1
