REMARK  11 active torsions:
REMARK  status: ('A' for Active; 'I' for Inactive)
REMARK    1  A    between atoms: N_2  and  C_4 
REMARK    2  A    between atoms: C_7  and  C_8 
REMARK    3  A    between atoms: N_9  and  C_10 
REMARK    4  A    between atoms: C_10  and  C_11 
REMARK    5  A    between atoms: C_11  and  C_12 
REMARK    6  A    between atoms: C_12  and  C_13 
REMARK    7  A    between atoms: C_13  and  C_14 
REMARK    8  A    between atoms: C_14  and  C_15 
REMARK    9  A    between atoms: C_15  and  N_16 
REMARK   10  A    between atoms: C_17  and  C_18 
REMARK   11  A    between atoms: C_22  and  N_23 
ROOT
ATOM      1  C   UNL d   1       5.479   8.990   3.598  0.00  0.00     0.002 C 
ENDROOT
BRANCH   1   2
ATOM      2  C   UNL d   1       4.753   7.680   3.319  0.00  0.00     0.020 C 
BRANCH   2   3
ATOM      3  C   UNL d   1       5.468   6.926   2.207  0.00  0.00     0.119 C 
BRANCH   3   4
ATOM      4  N   UNL d   1       4.766   5.656   1.953  0.00  0.00    -0.398 N 
ATOM      5  C   UNL d   1       5.118   4.777   1.082  0.00  0.00     0.094 C 
ATOM      6  H   UNL d   1       3.926   5.491   2.511  0.00  0.00     0.158 HD
BRANCH   5   7
ATOM      7  C   UNL d   1       4.366   3.535   0.820  0.00  0.00    -0.021 A 
ATOM      8  C   UNL d   1       4.812   2.705  -0.219  0.00  0.00     0.015 A 
ATOM      9  C   UNL d   1       4.059   1.583  -0.588  0.00  0.00     0.037 A 
ATOM     10  C   UNL d   1       2.907   1.264   0.139  0.00  0.00     0.102 A 
ATOM     11  C   UNL d   1       2.471   2.069   1.193  0.00  0.00     0.037 A 
ATOM     12  C   UNL d   1       3.204   3.204   1.535  0.00  0.00     0.015 A 
BRANCH  10  13
ATOM     13  N   UNL d   1       2.186   0.028  -0.138  0.00  0.00    -0.116 N 
ATOM     14  O   UNL d   1       0.952   0.074  -0.081  0.00  0.00    -0.532 OA
ATOM     15  O   UNL d   1       2.870  -0.977  -0.362  0.00  0.00    -0.532 OA
ENDBRANCH  10  13
ENDBRANCH   5   7
ENDBRANCH   3   4
ENDBRANCH   2   3
ENDBRANCH   1   2
BRANCH   1  16
ATOM     16  C   UNL d   1       4.790   9.767   4.710  0.00  0.00     0.002 C 
BRANCH  16  17
ATOM     17  C   UNL d   1       5.523  11.074   4.988  0.00  0.00     0.020 C 
BRANCH  17  18
ATOM     18  C   UNL d   1       4.818  11.825   6.104  0.00  0.00     0.119 C 
BRANCH  18  19
ATOM     19  N   UNL d   1       5.536  13.081   6.376  0.00  0.00    -0.398 N 
ATOM     20  C   UNL d   1       5.196  13.916   7.292  0.00  0.00     0.094 C 
ATOM     21  H   UNL d   1       6.362  13.294   5.805  0.00  0.00     0.158 HD
BRANCH  20  22
ATOM     22  C   UNL d   1       5.887  15.189   7.497  0.00  0.00    -0.019 A 
ATOM     23  C   UNL d   1       6.065  15.662   8.798  0.00  0.00     0.013 A 
ATOM     24  C   UNL d   1       6.594  16.940   8.997  0.00  0.00     0.003 A 
ATOM     25  C   UNL d   1       6.990  17.721   7.906  0.00  0.00     0.036 A 
ATOM     26  C   UNL d   1       6.812  17.231   6.608  0.00  0.00     0.103 A 
ATOM     27  C   UNL d   1       6.262  15.962   6.395  0.00  0.00     0.048 A 
BRANCH  26  28
ATOM     28  N   UNL d   1       7.143  18.064   5.446  0.00  0.00    -0.116 N 
ATOM     29  O   UNL d   1       7.608  19.185   5.649  0.00  0.00    -0.532 OA
ATOM     30  O   UNL d   1       6.924  17.566   4.327  0.00  0.00    -0.532 OA
ENDBRANCH  26  28
ENDBRANCH  20  22
ENDBRANCH  18  19
ENDBRANCH  17  18
ENDBRANCH  16  17
ENDBRANCH   1  16
TORSDOF 11
