@<TRIPOS>MOLECULE
*****
 51 54 0 0 0
SMALL
GASTEIGER

@<TRIPOS>ATOM
      1 C           0.9144    0.3044    0.6153 C.3     1  UNL1        0.0789
      2 O           2.3299    0.2426    0.3998 O.3     1  UNL1       -0.4933
      3 C           3.0825   -0.8431    0.7516 C.ar    1  UNL1        0.1412
      4 C           4.2706   -0.5374    1.4423 C.ar    1  UNL1       -0.0181
      5 C           5.1562   -1.5260    1.9030 C.ar    1  UNL1       -0.0582
      6 C           4.7938   -2.8547    1.8205 C.ar    1  UNL1       -0.0598
      7 C           3.6707   -3.1733    1.0606 C.ar    1  UNL1       -0.0369
      8 C           2.8821   -2.1750    0.3966 C.ar    1  UNL1        0.0758
      9 N           1.8702   -2.6368   -0.5105 N.am    1  UNL1       -0.2785
     10 C           0.9353   -1.8969   -1.1816 C.2     1  UNL1        0.2502
     11 O           1.2721   -0.9227   -1.8579 O.2     1  UNL1       -0.2698
     12 C          -0.5652   -2.3137   -1.1332 C.ar    1  UNL1        0.0593
     13 C          -1.2445   -1.6398   -2.1807 C.ar    1  UNL1       -0.0478
     14 C          -2.5897   -1.8382   -2.4646 C.ar    1  UNL1       -0.0609
     15 C          -3.3082   -2.7561   -1.7264 C.ar    1  UNL1       -0.0599
     16 C          -2.7246   -3.3537   -0.6111 C.ar    1  UNL1       -0.0386
     17 C          -1.3733   -3.1417   -0.2595 C.ar    1  UNL1        0.0601
     18 N          -1.0970   -3.7529    1.0440 N.pl3   1  UNL1       -0.2155
     19 S           0.4204   -3.6940    1.6085 S.O2    1  UNL1        0.0725
     20 O           1.1497   -4.5555    0.6674 O.2     1  UNL1       -0.1500
     21 O           0.6090   -2.2931    1.8211 O.2     1  UNL1       -0.1500
     22 C           0.8054   -4.4241    3.0989 C.ar    1  UNL1        0.1122
     23 C           1.0002   -5.7565    3.4016 C.ar    1  UNL1       -0.0314
     24 C           1.0843   -6.1272    4.8076 C.ar    1  UNL1       -0.0144
     25 C           1.0752   -5.0958    5.8156 C.ar    1  UNL1        0.1622
     26 C           1.0293   -3.8731    5.2546 C.ar    1  UNL1        0.1639
     27 C           1.1962   -3.4940    3.9912 C.ar    1  UNL1        0.0103
     28 O           0.0190   -3.0723    5.7301 O.3     1  UNL1       -0.4849
     29 C           0.7482   -2.2828    6.6024 C.3     1  UNL1        0.1237
     30 C           0.8463   -3.2958    7.7357 C.3     1  UNL1        0.1237
     31 O           0.9900   -4.8909    7.2188 O.3     1  UNL1       -0.4849
     32 H           0.5171    1.0244   -0.1104 H       1  UNL1        0.0660
     33 H           0.6770    0.6200    1.6302 H       1  UNL1        0.0660
     34 H           0.3069   -0.5789    0.4561 H       1  UNL1        0.0660
     35 H           4.5268    0.5044    1.6055 H       1  UNL1        0.0655
     36 H           6.1216   -1.2573    2.3230 H       1  UNL1        0.0619
     37 H           5.4001   -3.6322    2.2848 H       1  UNL1        0.0618
     38 H           3.4357   -4.2358    1.0013 H       1  UNL1        0.0637
     39 H           1.6483   -3.6223   -0.4235 H       1  UNL1        0.1552
     40 H          -0.7073   -0.9355   -2.8190 H       1  UNL1        0.0626
     41 H          -3.0527   -1.2882   -3.2788 H       1  UNL1        0.0618
     42 H          -4.3283   -2.9962   -2.0100 H       1  UNL1        0.0618
     43 H          -3.3569   -3.9974   -0.0023 H       1  UNL1        0.0637
     44 H          -1.7365   -4.4164    1.4641 H       1  UNL1        0.1737
     45 H           1.0768   -6.4424    2.5474 H       1  UNL1        0.0638
     46 H           1.0279   -7.2166    4.9222 H       1  UNL1        0.0656
     47 H           1.1039   -2.4213    3.8573 H       1  UNL1        0.0675
     48 H           0.0865   -1.4145    6.6251 H       1  UNL1        0.0731
     49 H           1.7279   -1.9080    6.2351 H       1  UNL1        0.0731
     50 H          -0.1117   -3.1986    8.2719 H       1  UNL1        0.0731
     51 H           1.6486   -3.0079    8.4341 H       1  UNL1        0.0731
@<TRIPOS>BOND
     1     1     2    1
     2     2     3    1
     3     3     4   ar
     4     4     5   ar
     5     5     6   ar
     6     6     7   ar
     7     7     8   ar
     8     3     8   ar
     9     8     9    1
    10     9    10   am
    11    10    11    2
    12    10    12    1
    13    12    13   ar
    14    13    14   ar
    15    14    15   ar
    16    15    16   ar
    17    16    17   ar
    18    12    17   ar
    19    17    18    1
    20    18    19    1
    21    19    20    2
    22    19    21    2
    23    19    22    1
    24    22    23   ar
    25    23    24   ar
    26    24    25   ar
    27    25    26   ar
    28    26    27   ar
    29    22    27   ar
    30    26    28    1
    31    28    29    1
    32    29    30    1
    33    30    31    1
    34    25    31    1
    35     1    32    1
    36     1    33    1
    37     1    34    1
    38     4    35    1
    39     5    36    1
    40     6    37    1
    41     7    38    1
    42     9    39    1
    43    13    40    1
    44    14    41    1
    45    15    42    1
    46    16    43    1
    47    18    44    1
    48    23    45    1
    49    24    46    1
    50    27    47    1
    51    29    48    1
    52    29    49    1
    53    30    50    1
    54    30    51    1
