REMARK  15 active torsions:
REMARK  status: ('A' for Active; 'I' for Inactive)
REMARK    1  A    between atoms: C_2  and  C_4 
REMARK    2  A    between atoms: C_2  and  N_6 
REMARK    3  A    between atoms: C_4  and  O_5 
REMARK       I    between atoms: N_6  and  C_7 
REMARK    4  A    between atoms: C_9  and  C_7 
REMARK    5  A    between atoms: N_18  and  C_19 
REMARK    6  A    between atoms: C_19  and  C_20 
REMARK    7  A    between atoms: C_20  and  O_21 
REMARK    8  A    between atoms: C_22  and  C_20 
REMARK    9  A    between atoms: C_22  and  N_31 
REMARK   10  A    between atoms: C_22  and  C_23 
REMARK   11  A    between atoms: C_23  and  S_24 
REMARK   12  A    between atoms: S_24  and  C_25 
REMARK       I    between atoms: N_31  and  C_32 
REMARK   13  A    between atoms: C_32  and  O_34 
REMARK   14  A    between atoms: O_34  and  C_35 
REMARK   15  A    between atoms: C_35  and  C_36 
ROOT
ATOM      1  C   UNL d   1      -0.061  -2.769   0.050  0.00  0.00     0.167 C 
ENDROOT
BRANCH   1   2
ATOM      2  C   UNL d   1       0.733  -1.484  -0.266  0.00  0.00     0.269 C 
BRANCH   2   3
ATOM      3  N   UNL d   1       0.861  -0.532   0.942  0.00  0.00    -0.055 N 
ATOM      4  C   UNL d   1      -0.469  -0.077   1.503  0.00  0.00     0.241 C 
ATOM      5  C   UNL d   1      -0.350   1.029   2.535  0.00  0.00     0.016 C 
ATOM      6  C   UNL d   1       0.502   0.589   3.716  0.00  0.00     0.007 C 
ATOM      7  C   UNL d   1       0.221   2.254   1.840  0.00  0.00    -0.006 C 
ATOM      8  C   UNL d   1       0.912   1.666   4.692  0.00  0.00     0.000 C 
ATOM      9  C   UNL d   1       1.516   2.850   3.944  0.00  0.00     0.000 C 
ATOM     10  C   UNL d   1       0.554   3.348   2.864  0.00  0.00     0.005 C 
ATOM     11  C   UNL d   1       1.462   1.978   0.979  0.00  0.00     0.048 C 
ATOM     12  C   UNL d   1       1.872   0.554   0.622  0.00  0.00     0.279 C 
ATOM     13  H   UNL d   1       1.291  -1.074   1.685  0.00  0.00     0.281 HD
BRANCH  12  14
ATOM     14  C   UNL d   1       3.268   0.291   1.263  0.00  0.00     0.249 C 
ATOM     15  N   UNL d   1       3.298  -0.148   2.581  0.00  0.00    -0.349 N 
ATOM     16  H   UNL d   1       2.603  -0.762   2.967  0.00  0.00     0.163 HD
ATOM     17  O   UNL d   1       4.282   0.585   0.637  0.00  0.00    -0.271 OA
BRANCH  15  18
ATOM     18  C   UNL d   1       4.495  -0.172   3.429  0.00  0.00     0.046 C 
ATOM     19  C   UNL d   1       4.109  -0.599   4.873  0.00  0.00     0.040 C 
ATOM     20  C   UNL d   1       5.132   1.224   3.534  0.00  0.00     0.040 C 
BRANCH  18  21
ATOM     21  C   UNL d   1       5.417  -1.234   2.818  0.00  0.00     0.194 C 
BRANCH  21  22
ATOM     22  O   UNL d   1       6.601  -1.409   3.557  0.00  0.00    -0.398 OA
ATOM     23  H   UNL d   1       7.086  -0.566   3.519  0.00  0.00     0.209 HD
ENDBRANCH  21  22
ENDBRANCH  18  21
ENDBRANCH  15  18
ENDBRANCH  12  14
ENDBRANCH   2   3
ENDBRANCH   1   2
BRANCH   1  24
ATOM     24  O   UNL d   1      -1.419  -2.366   0.236  0.00  0.00    -0.392 OA
ATOM     25  H   UNL d   1      -1.650  -2.383   1.184  0.00  0.00     0.210 HD
ENDBRANCH   1  24
BRANCH   1  26
ATOM     26  C   UNL d   1       0.600  -3.607   1.204  0.00  0.00     0.126 C 
BRANCH  26  27
ATOM     27  N   UNL d   1      -0.339  -4.464   1.939  0.00  0.00    -0.329 N 
ATOM     28  C   UNL d   1      -1.409  -3.992   2.640  0.00  0.00     0.361 C 
ATOM     29  O   UNL d   1      -1.619  -2.780   2.792  0.00  0.00    -0.238 OA
ATOM     30  H   UNL d   1      -0.274  -5.475   1.834  0.00  0.00     0.165 HD
BRANCH  28  31
ATOM     31  O   UNL d   1      -2.236  -4.956   3.046  0.00  0.00    -0.299 OA
BRANCH  31  32
ATOM     32  C   UNL d   1      -3.464  -4.502   3.671  0.00  0.00     0.219 C 
BRANCH  32  33
ATOM     33  C   UNL d   1      -4.201  -5.696   4.228  0.00  0.00    -0.034 A 
ATOM     34  C   UNL d   1      -5.212  -5.555   5.192  0.00  0.00     0.009 A 
ATOM     35  C   UNL d   1      -5.747  -6.688   5.817  0.00  0.00     0.001 A 
ATOM     36  C   UNL d   1      -5.341  -7.963   5.426  0.00  0.00     0.000 A 
ATOM     37  C   UNL d   1      -4.399  -8.112   4.415  0.00  0.00     0.001 A 
ATOM     38  C   UNL d   1      -3.844  -6.988   3.817  0.00  0.00     0.009 A 
ENDBRANCH  32  33
ENDBRANCH  31  32
ENDBRANCH  28  31
ENDBRANCH  26  27
BRANCH  26  39
ATOM     39  C   UNL d   1       1.854  -4.354   0.642  0.00  0.00     0.107 C 
BRANCH  39  40
ATOM     40  S   UNL d   1       1.339  -5.881  -0.219  0.00  0.00    -0.128 SA
BRANCH  40  41
ATOM     41  C   UNL d   1       2.878  -6.589  -0.776  0.00  0.00     0.000 A 
ATOM     42  C   UNL d   1       3.029  -7.975  -0.637  0.00  0.00     0.018 A 
ATOM     43  C   UNL d   1       4.190  -8.615  -1.073  0.00  0.00     0.001 A 
ATOM     44  C   UNL d   1       5.180  -7.887  -1.724  0.00  0.00     0.000 A 
ATOM     45  C   UNL d   1       5.030  -6.511  -1.894  0.00  0.00     0.001 A 
ATOM     46  C   UNL d   1       3.887  -5.861  -1.412  0.00  0.00     0.018 A 
ENDBRANCH  40  41
ENDBRANCH  39  40
ENDBRANCH  26  39
ENDBRANCH   1  26
TORSDOF 15
