@<TRIPOS>MOLECULE
*****
 50 52 0 0 0
SMALL
GASTEIGER

@<TRIPOS>ATOM
      1 C           1.1006   -0.0980   -0.0534 C.3     1  UNL1        0.0788
      2 O           2.5232   -0.1099    0.0347 O.3     1  UNL1       -0.4951
      3 C           3.1466   -1.0117   -0.7812 C.ar    1  UNL1        0.1202
      4 C           4.2439   -1.6823   -0.2449 C.ar    1  UNL1       -0.0182
      5 C           5.0017   -2.5617   -1.0366 C.ar    1  UNL1       -0.0371
      6 C           4.6442   -2.8280   -2.3685 C.ar    1  UNL1        0.0311
      7 N           5.3591   -3.7920   -3.1158 N.pl3   1  UNL1       -0.3204
      8 C           5.0881   -4.2420   -4.3894 C.2     1  UNL1       -0.0026
      9 C           5.7127   -5.2080   -5.0805 C.2     1  UNL1        0.0008
     10 C           5.2577   -5.5452   -6.4568 C.2     1  UNL1        0.2045
     11 O           4.3114   -4.9879   -7.0129 O.2     1  UNL1       -0.2858
     12 C           5.9422   -6.6746   -7.1877 C.2     1  UNL1        0.1301
     13 N           6.2135   -6.6320   -8.4508 N.2     1  UNL1       -0.0853
     14 O           6.7926   -7.8691   -8.8066 O.2     1  UNL1       -0.3882
     15 C           6.7079   -8.7692   -7.6922 C.3     1  UNL1        0.1493
     16 C           5.7275   -9.9328   -7.9822 C.3     1  UNL1        0.0542
     17 N           5.4311  -10.1079   -9.4033 N.pl3   1  UNL1       -0.2869
     18 C           4.7082  -11.1730   -9.8903 C.ar    1  UNL1        0.2880
     19 N           3.5461  -11.4863   -9.2894 N.ar    1  UNL1       -0.1965
     20 C           2.8145  -12.5725   -9.5902 C.ar    1  UNL1        0.1828
     21 C           3.1998  -13.4060  -10.6353 C.ar    1  UNL1        0.1196
     22 C           2.4300  -14.6730  -10.8955 C.3     1  UNL1        0.4229
     23 F           2.4644  -15.4886   -9.8098 F       1  UNL1       -0.1657
     24 F           1.1216  -14.4274  -11.1476 F       1  UNL1       -0.1657
     25 F           2.9111  -15.3913  -11.9376 F       1  UNL1       -0.1657
     26 C           4.3336  -13.0601  -11.3738 C.ar    1  UNL1       -0.0182
     27 C           5.1163  -11.9780  -10.9706 C.ar    1  UNL1        0.1288
     28 CL          6.6192  -11.7044  -11.7652 Cl      1  UNL1       -0.0752
     29 C           6.2978   -7.9302   -6.4926 C.3     1  UNL1        0.0376
     30 C           3.5641   -2.1074   -2.8952 C.ar    1  UNL1       -0.0371
     31 C           2.8232   -1.2082   -2.1172 C.ar    1  UNL1       -0.0182
     32 H           0.7331    0.6718    0.6329 H       1  UNL1        0.0660
     33 H           0.6920   -1.0609    0.2695 H       1  UNL1        0.0660
     34 H           0.7375    0.1620   -1.0521 H       1  UNL1        0.0660
     35 H           4.5065   -1.5228    0.7986 H       1  UNL1        0.0655
     36 H           5.8765   -3.0260   -0.5877 H       1  UNL1        0.0637
     37 H           6.0996   -4.2622   -2.6055 H       1  UNL1        0.1516
     38 H           4.2581   -3.7286   -4.8691 H       1  UNL1        0.0782
     39 H           6.5440   -5.7524   -4.6585 H       1  UNL1        0.0669
     40 H           7.7112   -9.1842   -7.5366 H       1  UNL1        0.0780
     41 H           6.1569  -10.8530   -7.5624 H       1  UNL1        0.0500
     42 H           4.7825   -9.7681   -7.4552 H       1  UNL1        0.0500
     43 H           6.0889   -9.6617  -10.0513 H       1  UNL1        0.1517
     44 H           3.2078  -10.8296   -8.5897 H       1  UNL1        0.4542
     45 H           1.9377  -12.7523   -8.9728 H       1  UNL1        0.1382
     46 H           4.6272  -13.6576  -12.2388 H       1  UNL1        0.0642
     47 H           7.1346   -7.7645   -5.8110 H       1  UNL1        0.0368
     48 H           5.4434   -8.3291   -5.9413 H       1  UNL1        0.0368
     49 H           3.2747   -2.2097   -3.9349 H       1  UNL1        0.0637
     50 H           2.0199   -0.6586   -2.5954 H       1  UNL1        0.0655
@<TRIPOS>UNITY_ATOM_ATTR
19 1
charge 1
@<TRIPOS>BOND
     1     1     2    1
     2     2     3    1
     3     3     4   ar
     4     4     5   ar
     5     5     6   ar
     6     6     7    1
     7     7     8    1
     8     8     9    2
     9     9    10    1
    10    10    11    2
    11    10    12    1
    12    12    13    2
    13    13    14    1
    14    14    15    1
    15    16    17    1
    16    17    18    1
    17    18    19   ar
    18    19    20   ar
    19    20    21   ar
    20    21    22    1
    21    22    23    1
    22    22    24    1
    23    22    25    1
    24    21    26   ar
    25    26    27   ar
    26    18    27   ar
    27    27    28    1
    28    15    29    1
    29    12    29    1
    30     6    30   ar
    31    30    31   ar
    32     3    31   ar
    33    15    16    1
    34     1    32    1
    35     1    33    1
    36     1    34    1
    37     4    35    1
    38     5    36    1
    39     7    37    1
    40     8    38    1
    41     9    39    1
    42    15    40    1
    43    16    41    1
    44    16    42    1
    45    17    43    1
    46    19    44    1
    47    20    45    1
    48    26    46    1
    49    29    47    1
    50    29    48    1
    51    30    49    1
    52    31    50    1
