@<TRIPOS>MOLECULE
*****
 52 55 0 0 0
SMALL
GASTEIGER

@<TRIPOS>ATOM
      1 O           2.1930    0.5012   -1.4845 O.2     1  UNL1       -0.2735
      2 C           2.9116    0.3506   -0.4822 C.2     1  UNL1        0.2371
      3 C           3.2924    1.5849    0.1980 C.3     1  UNL1        0.1029
      4 N           2.1813    2.5093    0.3163 N.ar    1  UNL1       -0.3030
      5 C           0.8096    2.3481    0.4895 C.ar    1  UNL1        0.1971
      6 N           0.0833    1.2111    0.7305 N.pl3   1  UNL1       -0.3126
      7 C           0.5796   -0.1297    0.9074 C.3     1  UNL1        0.0349
      8 C          -0.3799   -1.2919    0.9775 C.3     1  UNL1        0.0597
      9 O           0.3756   -2.5180    0.9428 O.3     1  UNL1       -0.3935
     10 N           0.2319    3.5346    0.4026 N.ar    1  UNL1       -0.2144
     11 C           1.2350    4.4713    0.2764 C.ar    1  UNL1        0.0909
     12 C           1.2006    5.8743    0.2371 C.ar    1  UNL1       -0.0342
     13 C           2.4109    6.5855    0.1227 C.ar    1  UNL1       -0.0596
     14 C           3.6315    5.9230    0.0141 C.ar    1  UNL1       -0.0597
     15 C           3.6816    4.5360    0.0402 C.ar    1  UNL1       -0.0360
     16 C           2.4659    3.8536    0.1985 C.ar    1  UNL1        0.0705
     17 N           3.2629   -0.8842    0.0529 N.am    1  UNL1       -0.2831
     18 C           4.6282   -1.1725    0.0026 C.ar    1  UNL1        0.0473
     19 C           5.4077   -0.4280    0.8949 C.ar    1  UNL1       -0.0394
     20 C           6.7490   -0.2494    0.6616 C.ar    1  UNL1       -0.0599
     21 C           7.3482   -1.0260   -0.3145 C.ar    1  UNL1       -0.0606
     22 C           6.5894   -1.9506   -1.0658 C.ar    1  UNL1       -0.0462
     23 C           5.1809   -2.0004   -0.9867 C.ar    1  UNL1        0.0339
     24 S           4.3491   -3.0335   -2.2248 S.3     1  UNL1       -0.0876
     25 C           2.5616   -2.9115   -2.2273 C.ar    1  UNL1        0.0129
     26 C           1.8744   -1.7568   -2.5936 C.ar    1  UNL1       -0.0466
     27 C           0.4799   -1.6068   -2.3822 C.ar    1  UNL1       -0.0423
     28 C          -0.2864   -2.7131   -2.0473 C.ar    1  UNL1        0.0410
     29 CL         -1.9865   -2.6070   -1.7640 Cl      1  UNL1       -0.0835
     30 C           0.3640   -3.9191   -1.8158 C.ar    1  UNL1       -0.0423
     31 C           1.7715   -4.0066   -1.8741 C.ar    1  UNL1       -0.0466
     32 H           4.0101    1.9990   -0.5239 H       1  UNL1        0.0589
     33 H           3.7457    1.5145    1.1786 H       1  UNL1        0.0589
     34 H          -0.9039    1.2829    0.4930 H       1  UNL1        0.1489
     35 H           1.3490   -0.2015    1.6805 H       1  UNL1        0.0484
     36 H           0.9832   -0.4083   -0.0419 H       1  UNL1        0.0484
     37 H          -1.0089   -1.2255    0.0946 H       1  UNL1        0.0573
     38 H          -1.0213   -1.3210    1.8485 H       1  UNL1        0.0573
     39 H           0.9222   -2.5210    0.1377 H       1  UNL1        0.2095
     40 H           0.2574    6.4005    0.3177 H       1  UNL1        0.0639
     41 H           2.4002    7.6719    0.1217 H       1  UNL1        0.0618
     42 H           4.5584    6.4834   -0.0823 H       1  UNL1        0.0618
     43 H           4.6314    4.0177   -0.0430 H       1  UNL1        0.0639
     44 H           2.7406   -1.6434   -0.3549 H       1  UNL1        0.1549
     45 H           4.9417    0.0702    1.7392 H       1  UNL1        0.0636
     46 H           7.2992    0.4843    1.2433 H       1  UNL1        0.0618
     47 H           8.4171   -0.9187   -0.4796 H       1  UNL1        0.0618
     48 H           7.1337   -2.6023   -1.7474 H       1  UNL1        0.0629
     49 H           2.4536   -0.8988   -2.9296 H       1  UNL1        0.0629
     50 H           0.0447   -0.6017   -2.3705 H       1  UNL1        0.0632
     51 H          -0.2176   -4.7756   -1.4874 H       1  UNL1        0.0632
     52 H           2.2385   -4.9509   -1.6140 H       1  UNL1        0.0629
@<TRIPOS>BOND
     1     1     2    2
     2     2     3    1
     3     3     4    1
     4     4     5   ar
     5     5     6    1
     6     6     7    1
     7     7     8    1
     8     8     9    1
     9     5    10   ar
    10    10    11   ar
    11    11    12   ar
    12    12    13   ar
    13    13    14   ar
    14    14    15   ar
    15    15    16   ar
    16    11    16   ar
    17     4    16   ar
    18     2    17   am
    19    17    18    1
    20    18    19   ar
    21    19    20   ar
    22    20    21   ar
    23    21    22   ar
    24    22    23   ar
    25    18    23   ar
    26    23    24    1
    27    24    25    1
    28    25    26   ar
    29    26    27   ar
    30    27    28   ar
    31    28    29    1
    32    28    30   ar
    33    30    31   ar
    34    25    31   ar
    35     3    32    1
    36     3    33    1
    37     6    34    1
    38     7    35    1
    39     7    36    1
    40     8    37    1
    41     8    38    1
    42     9    39    1
    43    12    40    1
    44    13    41    1
    45    14    42    1
    46    15    43    1
    47    17    44    1
    48    19    45    1
    49    20    46    1
    50    21    47    1
    51    22    48    1
    52    26    49    1
    53    27    50    1
    54    30    51    1
    55    31    52    1
