REMARK  7 active torsions:
REMARK  status: ('A' for Active; 'I' for Inactive)
REMARK    1  A    between atoms: C_2  and  C_3 
REMARK    2  A    between atoms: C_3  and  C_4 
REMARK    3  A    between atoms: C_4  and  N_5 
REMARK       I    between atoms: N_5  and  C_6 
REMARK       I    between atoms: C_6  and  N_8 
REMARK    4  A    between atoms: N_8  and  N_9 
REMARK       I    between atoms: N_9  and  C_10 
REMARK    5  A    between atoms: C_10  and  C_12 
REMARK    6  A    between atoms: C_12  and  O_13 
REMARK    7  A    between atoms: O_13  and  C_14 
ROOT
ATOM      1  N   UNL d   1       8.424   4.418  -1.565  0.00  0.00    -0.264 N 
ATOM      2  C   UNL d   1       8.814   5.685  -2.003  0.00  0.00     0.260 C 
ATOM      3  O   UNL d   1       7.968   6.533  -2.299  0.00  0.00    -0.269 OA
ATOM      4  H   UNL d   1       9.064   3.670  -1.302  0.00  0.00     0.190 HD
ENDROOT
BRANCH   1   5
ATOM      5  N   UNL d   1       7.019   4.102  -1.456  0.00  0.00    -0.249 N 
ATOM      6  C   UNL d   1       6.626   2.846  -1.016  0.00  0.00     0.334 C 
ATOM      7  N   UNL d   1       5.258   2.647  -0.947  0.00  0.00    -0.342 N 
ATOM      8  O   UNL d   1       7.446   1.978  -0.713  0.00  0.00    -0.246 OA
ATOM      9  H   UNL d   1       4.628   3.392  -1.207  0.00  0.00     0.164 HD
ATOM     10  H   UNL d   1       6.375   4.845  -1.716  0.00  0.00     0.192 HD
BRANCH   7  11
ATOM     11  C   UNL d   1       4.691   1.368  -0.499  0.00  0.00     0.124 C 
BRANCH  11  12
ATOM     12  C   UNL d   1       3.154   1.325  -0.484  0.00  0.00     0.019 C 
BRANCH  12  13
ATOM     13  C   UNL d   1       2.612  -0.034  -0.008  0.00  0.00    -0.003 C 
ATOM     14  C   UNL d   1       1.087  -0.060   0.001  0.00  0.00     0.005 C 
ENDBRANCH  12  13
ENDBRANCH  11  12
ENDBRANCH   7  11
ENDBRANCH   1   5
BRANCH   2  15
ATOM     15  C   UNL d   1      10.352   5.951  -2.104  0.00  0.00     0.280 C 
BRANCH  15  16
ATOM     16  O   UNL d   1      10.609   7.300  -2.536  0.00  0.00    -0.342 OA
BRANCH  16  17
ATOM     17  C   UNL d   1      11.919   7.697  -2.687  0.00  0.00     0.075 A 
ATOM     18  C   UNL d   1      12.875   6.919  -3.344  0.00  0.00     0.037 A 
ATOM     19  C   UNL d   1      14.168   7.412  -3.549  0.00  0.00     0.003 A 
ATOM     20  C   UNL d   1      14.522   8.679  -3.090  0.00  0.00     0.007 A 
ATOM     21  C   UNL d   1      13.583   9.486  -2.435  0.00  0.00    -0.053 A 
ATOM     22  C   UNL d   1      14.021  10.841  -1.942  0.00  0.00     0.049 C 
ATOM     23  C   UNL d   1      12.261   9.004  -2.255  0.00  0.00    -0.023 A 
ATOM     24  C   UNL d   1      11.201   9.863  -1.613  0.00  0.00     0.052 C 
ENDBRANCH  16  17
ENDBRANCH  15  16
ENDBRANCH   2  15
TORSDOF 7
