REMARK  8 active torsions:
REMARK  status: ('A' for Active; 'I' for Inactive)
REMARK    1  A    between atoms: C_2  and  N_3 
REMARK    2  A    between atoms: N_3  and  C_4 
REMARK    3  A    between atoms: N_3  and  C_6 
REMARK    4  A    between atoms: C_9  and  N_10 
REMARK    5  A    between atoms: C_16  and  N_17 
REMARK       I    between atoms: N_17  and  C_18 
REMARK    6  A    between atoms: C_18  and  C_20 
REMARK    7  A    between atoms: C_20  and  O_21 
REMARK    8  A    between atoms: C_20  and  C_23 
ROOT
ATOM      1  N   UNL d   1       8.886   2.563  -0.104  0.00  0.00    -0.149 N 
ATOM      2  N   UNL d   1       9.099   3.564   0.699  0.00  0.00    -0.147 NA
ATOM      3  C   UNL d   1      10.366   3.796   0.720  0.00  0.00     0.110 A 
ATOM      4  C   UNL d   1      10.884   4.785   1.521  0.00  0.00     0.045 A 
ATOM      5  C   UNL d   1      12.243   5.022   1.459  0.00  0.00    -0.033 A 
ATOM      6  C   UNL d   1      12.588   6.136   2.388  0.00  0.00     0.050 C 
ATOM      7  C   UNL d   1      13.114   4.295   0.599  0.00  0.00     0.043 A 
ATOM      8  C   UNL d   1      12.540   3.182  -0.240  0.00  0.00     0.066 A 
ATOM      9  C   UNL d   1      11.073   2.936  -0.170  0.00  0.00     0.111 A 
ATOM     10  N   UNL d   1      10.080   2.098  -0.719  0.00  0.00    -0.147 NA
ENDROOT
BRANCH   7  11
ATOM     11  N   UNL d   1      14.544   4.656   0.547  0.00  0.00    -0.324 N 
ATOM     12  C   UNL d   1      15.292   5.577   1.344  0.00  0.00     0.255 C 
ATOM     13  O   UNL d   1      14.885   6.409   2.172  0.00  0.00    -0.270 OA
ATOM     14  H   UNL d   1      15.103   4.129  -0.120  0.00  0.00     0.169 HD
BRANCH  12  15
ATOM     15  C   UNL d   1      16.815   5.634   1.274  0.00  0.00     0.246 C 
BRANCH  15  16
ATOM     16  O   UNL d   1      17.135   6.342   0.071  0.00  0.00    -0.377 OA
ATOM     17  C   UNL d   1      18.450   6.883   0.068  0.00  0.00     0.203 C 
ENDBRANCH  15  16
BRANCH  15  18
ATOM     18  C   UNL d   1      17.519   4.316   1.472  0.00  0.00    -0.020 C 
ATOM     19  C   UNL d   1      18.916   4.292   1.601  0.00  0.00     0.013 C 
ATOM     20  C   UNL d   1      19.606   3.094   1.533  0.00  0.00     0.043 C 
ATOM     21  C   UNL d   1      18.892   1.909   1.459  0.00  0.00     0.116 C 
ATOM     22  F   UNL d   1      19.547   0.747   1.386  0.00  0.00    -0.206 F 
ATOM     23  C   UNL d   1      17.509   1.901   1.502  0.00  0.00     0.043 C 
ATOM     24  C   UNL d   1      16.829   3.103   1.551  0.00  0.00     0.013 C 
ENDBRANCH  15  18
ENDBRANCH  12  15
ENDBRANCH   7  11
BRANCH   1  25
ATOM     25  C   UNL d   1       7.432   2.221  -0.131  0.00  0.00     0.085 A 
ATOM     26  C   UNL d   1       6.865   1.218  -0.930  0.00  0.00     0.036 A 
ATOM     27  C   UNL d   1       5.441   0.955  -0.918  0.00  0.00     0.039 A 
ATOM     28  C   UNL d   1       4.521   1.659  -0.119  0.00  0.00     0.135 A 
ATOM     29  C   UNL d   1       5.062   2.643   0.704  0.00  0.00     0.046 A 
ATOM     30  C   UNL d   1       6.478   2.952   0.713  0.00  0.00    -0.029 A 
ATOM     31  C   UNL d   1       6.774   4.100   1.693  0.00  0.00     0.050 C 
BRANCH  28  32
ATOM     32  N   UNL d   1       3.003   1.391  -0.272  0.00  0.00    -0.042 N 
ATOM     33  H   UNL d   1       2.916   1.303  -1.289  0.00  0.00     0.286 HD
BRANCH  32  34
ATOM     34  C   UNL d   1       2.632  -0.035   0.163  0.00  0.00     0.237 C 
ATOM     35  C   UNL d   1       1.147  -0.364   0.115  0.00  0.00     0.035 C 
ENDBRANCH  32  34
BRANCH  32  36
ATOM     36  C   UNL d   1       2.138   2.644  -0.057  0.00  0.00     0.237 C 
ATOM     37  C   UNL d   1       0.631   2.434  -0.084  0.00  0.00     0.035 C 
ENDBRANCH  32  36
ENDBRANCH  28  32
ENDBRANCH   1  25
TORSDOF 8
