@<TRIPOS>MOLECULE
*****
 58 59 0 0 0
SMALL
GASTEIGER

@<TRIPOS>ATOM
      1 C           1.0762    0.2723    0.0859 C.3     1  UNL1       -0.0190
      2 C           2.6022    0.1165   -0.0203 C.3     1  UNL1        0.1741
      3 O           3.0311   -0.9578   -0.8893 O.3     1  UNL1       -0.4784
      4 C           2.6875   -2.2580   -0.5810 C.ar    1  UNL1        0.1399
      5 C           1.3643   -2.6544   -0.3663 C.ar    1  UNL1       -0.0171
      6 C           1.0142   -3.9712   -0.0675 C.ar    1  UNL1       -0.0398
      7 C           1.9797   -4.9597   -0.1174 C.ar    1  UNL1        0.0426
      8 CL          1.5125   -6.5933    0.1420 Cl      1  UNL1       -0.0835
      9 C           3.2945   -4.6273   -0.4335 C.ar    1  UNL1       -0.0215
     10 C           3.6486   -3.2810   -0.6521 C.ar    1  UNL1        0.0839
     11 CL          5.2946   -2.9378   -1.0490 Cl      1  UNL1       -0.0797
     12 C           3.1396    1.4980   -0.5421 C.2     1  UNL1        0.2695
     13 O           2.3881    2.4255   -0.8647 O.2     1  UNL1       -0.2702
     14 N           4.5115    1.6766   -0.5790 N.am    1  UNL1       -0.2313
     15 N           5.0337    2.9285   -1.0400 N.am    1  UNL1       -0.2343
     16 C           6.4068    3.0993   -1.1073 C.2     1  UNL1        0.2291
     17 O           7.1772    2.2011   -0.7690 O.2     1  UNL1       -0.2743
     18 C           6.8934    4.4676   -1.6191 C.3     1  UNL1        0.0259
     19 C           8.4317    4.5414   -1.6467 C.3     1  UNL1       -0.0347
     20 C           9.0226    5.8740   -2.1426 C.3     1  UNL1        0.0454
     21 C          10.5442    5.8147   -2.1250 C.2     1  UNL1        0.3071
     22 O          11.1965    4.8403   -1.7540 O.2     1  UNL1       -0.2509
     23 O          11.1103    6.9714   -2.5720 O.3     1  UNL1       -0.4646
     24 C          12.5556    6.9370   -2.5718 C.3     1  UNL1        0.0928
     25 C          13.0744    8.2711   -3.0706 C.3     1  UNL1       -0.0146
     26 C          14.6090    8.3625   -3.1046 C.3     1  UNL1       -0.0246
     27 C          15.0931    9.7216   -3.5703 C.ar    1  UNL1       -0.0472
     28 C          16.3164    9.8795   -4.2362 C.ar    1  UNL1       -0.0586
     29 C          16.7820   11.1621   -4.5540 C.ar    1  UNL1       -0.0615
     30 C          16.0018   12.2862   -4.2808 C.ar    1  UNL1       -0.0617
     31 C          14.7834   12.1401   -3.6366 C.ar    1  UNL1       -0.0615
     32 C          14.3518   10.8741   -3.2663 C.ar    1  UNL1       -0.0586
     33 H           0.6256   -0.5160    0.6921 H       1  UNL1        0.0270
     34 H           0.6214    0.2617   -0.9133 H       1  UNL1        0.0270
     35 H           0.7770    1.1900    0.5977 H       1  UNL1        0.0270
     36 H           3.0178   -0.0442    0.9833 H       1  UNL1        0.0829
     37 H           0.5293   -1.9834   -0.4957 H       1  UNL1        0.0655
     38 H          -0.0252   -4.2053    0.1503 H       1  UNL1        0.0633
     39 H           4.0363   -5.4168   -0.5239 H       1  UNL1        0.0648
     40 H           5.1906    0.9472   -0.3660 H       1  UNL1        0.1729
     41 H           4.3488    3.6314   -1.3156 H       1  UNL1        0.1728
     42 H           6.5011    5.2535   -0.9637 H       1  UNL1        0.0359
     43 H           6.5005    4.6324   -2.6288 H       1  UNL1        0.0359
     44 H           8.8157    3.7313   -2.2808 H       1  UNL1        0.0275
     45 H           8.8157    4.3430   -0.6372 H       1  UNL1        0.0275
     46 H           8.6927    6.6932   -1.4941 H       1  UNL1        0.0378
     47 H           8.6898    6.0710   -3.1677 H       1  UNL1        0.0378
     48 H          12.9086    6.1341   -3.2263 H       1  UNL1        0.0697
     49 H          12.9136    6.7758   -1.5476 H       1  UNL1        0.0697
     50 H          12.6534    9.0250   -2.3973 H       1  UNL1        0.0301
     51 H          12.6676    8.4918   -4.0656 H       1  UNL1        0.0301
     52 H          15.0099    7.5748   -3.7561 H       1  UNL1        0.0314
     53 H          15.0169    8.1882   -2.1001 H       1  UNL1        0.0314
     54 H          16.9218    9.0179   -4.5123 H       1  UNL1        0.0620
     55 H          17.7606   11.2920   -5.0090 H       1  UNL1        0.0618
     56 H          16.3404   13.2777   -4.5641 H       1  UNL1        0.0618
     57 H          14.1644   12.9994   -3.3980 H       1  UNL1        0.0618
     58 H          13.4104   10.8171   -2.7323 H       1  UNL1        0.0620
@<TRIPOS>BOND
     1     1     2    1
     2     2     3    1
     3     3     4    1
     4     4     5   ar
     5     5     6   ar
     6     6     7   ar
     7     7     8    1
     8     7     9   ar
     9     9    10   ar
    10     4    10   ar
    11    10    11    1
    12     2    12    1
    13    12    13    2
    14    12    14   am
    15    14    15    1
    16    15    16   am
    17    16    17    2
    18    16    18    1
    19    18    19    1
    20    19    20    1
    21    20    21    1
    22    21    22    2
    23    21    23    1
    24    23    24    1
    25    24    25    1
    26    25    26    1
    27    26    27    1
    28    27    28   ar
    29    28    29   ar
    30    29    30   ar
    31    30    31   ar
    32    31    32   ar
    33    27    32   ar
    34     1    33    1
    35     1    34    1
    36     1    35    1
    37     2    36    1
    38     5    37    1
    39     6    38    1
    40     9    39    1
    41    14    40    1
    42    15    41    1
    43    18    42    1
    44    18    43    1
    45    19    44    1
    46    19    45    1
    47    20    46    1
    48    20    47    1
    49    24    48    1
    50    24    49    1
    51    25    50    1
    52    25    51    1
    53    26    52    1
    54    26    53    1
    55    28    54    1
    56    29    55    1
    57    30    56    1
    58    31    57    1
    59    32    58    1
