@<TRIPOS>MOLECULE
*****
 55 59 0 0 0
SMALL
GASTEIGER

@<TRIPOS>ATOM
      1 O           0.9346   -0.2325    0.0645 O.2     1  UNL1       -0.2755
      2 C           2.1551   -0.1363    0.0389 C.2     1  UNL1        0.2162
      3 N           2.9283   -0.7689    0.9956 N.am    1  UNL1       -0.3148
      4 C           2.2650   -1.5569    2.0165 C.3     1  UNL1        0.0155
      5 C           3.2429   -2.2416    2.9619 C.3     1  UNL1       -0.0092
      6 C           2.5664   -3.1009    3.9841 C.2     1  UNL1        0.0092
      7 C           2.6911   -4.4278    4.0984 C.ar    1  UNL1        0.0523
      8 C           3.3973   -5.4051    3.3466 C.ar    1  UNL1       -0.0298
      9 C           3.3533   -6.6837    3.7521 C.ar    1  UNL1        0.0419
     10 CL          4.1989   -7.8913    2.8645 Cl      1  UNL1       -0.0835
     11 C           2.6022   -7.0755    4.9391 C.ar    1  UNL1       -0.0372
     12 C           1.9038   -6.2111    5.7010 C.ar    1  UNL1        0.0112
     13 C           1.9084   -4.7804    5.3031 C.ar    1  UNL1        0.2086
     14 N           1.3622   -3.7747    5.8302 N.2     1  UNL1       -0.2369
     15 C           1.6832   -2.5429    5.0671 C.3     1  UNL1        0.1661
     16 C           2.9140    0.7114   -0.9861 C.3     1  UNL1        0.0379
     17 C           3.3677    2.0344   -0.3716 C.3     1  UNL1       -0.0290
     18 C           2.1515    3.0185   -0.0985 C.3     1  UNL1        0.0020
     19 N           1.1655    3.2033   -1.1880 N.3     1  UNL1       -0.2757
     20 C           0.0762    4.2742   -1.1812 C.3     1  UNL1        0.1289
     21 N          -1.4748    4.3621   -0.9126 N.pl3   1  UNL1       -0.3178
     22 C          -1.9193    5.6433   -1.4834 C.ar    1  UNL1        0.0612
     23 C          -3.0446    6.4239   -1.1719 C.ar    1  UNL1       -0.0368
     24 C          -2.9376    7.8235   -1.3669 C.ar    1  UNL1       -0.0418
     25 C          -1.8734    8.3255   -2.1065 C.ar    1  UNL1        0.0290
     26 N          -0.9585    7.5420   -2.6954 N.ar    1  UNL1       -0.2468
     27 C          -1.0079    6.2455   -2.3480 C.ar    1  UNL1        0.1206
     28 S           0.2979    5.1644   -2.7825 S.3     1  UNL1       -0.0657
     29 C           0.8742    1.9940   -1.9254 C.3     1  UNL1        0.0020
     30 C           2.0714    1.0543   -2.2159 C.3     1  UNL1       -0.0290
     31 H           3.9390   -0.7661    0.9148 H       1  UNL1        0.1487
     32 H           1.6253   -2.2999    1.5222 H       1  UNL1        0.0465
     33 H           1.6050   -0.8828    2.5757 H       1  UNL1        0.0465
     34 H           3.8650   -1.5005    3.4752 H       1  UNL1        0.0327
     35 H           3.9352   -2.8455    2.3628 H       1  UNL1        0.0327
     36 H           3.9525   -5.1106    2.4631 H       1  UNL1        0.0640
     37 H           2.6301   -8.1348    5.1949 H       1  UNL1        0.0634
     38 H           1.3620   -6.5460    6.5784 H       1  UNL1        0.0684
     39 H           0.7810   -3.8119    6.6788 H       1  UNL1        0.4459
     40 H           2.2113   -1.8464    5.7221 H       1  UNL1        0.1077
     41 H           0.7536   -2.1165    4.6822 H       1  UNL1        0.1077
     42 H           3.7833    0.1139   -1.3113 H       1  UNL1        0.0395
     43 H           4.1153    2.4935   -1.0396 H       1  UNL1        0.0285
     44 H           3.9135    1.8301    0.5630 H       1  UNL1        0.0285
     45 H           2.6171    3.9673    0.2015 H       1  UNL1        0.0428
     46 H           1.6335    2.6134    0.7742 H       1  UNL1        0.0428
     47 H           0.4300    4.9674   -0.4080 H       1  UNL1        0.0794
     48 H          -2.0767    3.6083   -1.2395 H       1  UNL1        0.1484
     49 H          -3.9755    6.0642   -0.7376 H       1  UNL1        0.0637
     50 H          -3.6311    8.5313   -0.9123 H       1  UNL1        0.0633
     51 H          -1.7087    9.3913   -2.2431 H       1  UNL1        0.0830
     52 H           0.4412    2.2426   -2.8969 H       1  UNL1        0.0428
     53 H           0.1252    1.4562   -1.3503 H       1  UNL1        0.0428
     54 H           2.7348    1.5043   -2.9720 H       1  UNL1        0.0285
     55 H           1.6821    0.1325   -2.6617 H       1  UNL1        0.0285
@<TRIPOS>UNITY_ATOM_ATTR
14 1
charge 1
@<TRIPOS>BOND
     1     1     2    2
     2     2     3   am
     3     3     4    1
     4     4     5    1
     5     5     6    1
     6     6     7    2
     7     7     8   ar
     8     8     9   ar
     9     9    10    1
    10     9    11   ar
    11    11    12   ar
    12    12    13   ar
    13     7    13   ar
    14    13    14    2
    15    14    15    1
    16     6    15    1
    17     2    16    1
    18    16    17    1
    19    17    18    1
    20    18    19    1
    21    19    20    1
    22    20    21    1
    23    21    22    1
    24    22    23   ar
    25    23    24   ar
    26    24    25   ar
    27    25    26   ar
    28    26    27   ar
    29    22    27   ar
    30    27    28    1
    31    20    28    1
    32    19    29    1
    33    29    30    1
    34    16    30    1
    35     3    31    1
    36     4    32    1
    37     4    33    1
    38     5    34    1
    39     5    35    1
    40     8    36    1
    41    11    37    1
    42    12    38    1
    43    14    39    1
    44    15    40    1
    45    15    41    1
    46    16    42    1
    47    17    43    1
    48    17    44    1
    49    18    45    1
    50    18    46    1
    51    20    47    1
    52    21    48    1
    53    23    49    1
    54    24    50    1
    55    25    51    1
    56    29    52    1
    57    29    53    1
    58    30    54    1
    59    30    55    1
