REMARK  12 active torsions:
REMARK  status: ('A' for Active; 'I' for Inactive)
REMARK    1  A    between atoms: C_2  and  C_3 
REMARK    2  A    between atoms: C_3  and  C_4 
REMARK    3  A    between atoms: C_4  and  O_5 
REMARK    4  A    between atoms: O_5  and  C_6 
REMARK    5  A    between atoms: C_11  and  C_12 
REMARK    6  A    between atoms: C_12  and  N_13 
REMARK       I    between atoms: N_13  and  C_14 
REMARK       I    between atoms: C_14  and  N_16 
REMARK    7  A    between atoms: N_16  and  C_17 
REMARK    8  A    between atoms: C_17  and  C_18 
REMARK    9  A    between atoms: C_18  and  O_19 
REMARK   10  A    between atoms: C_18  and  C_20 
REMARK   11  A    between atoms: C_20  and  O_21 
REMARK   12  A    between atoms: O_21  and  C_22 
ROOT
ATOM      1  N   UNL d   1       7.638  -2.928   0.328  0.00  0.00    -0.339 N 
ATOM      2  C   UNL d   1       7.220  -3.402   1.544  0.00  0.00     0.316 C 
ATOM      3  O   UNL d   1       6.048  -3.386   1.913  0.00  0.00    -0.247 OA
ATOM      4  N   UNL d   1       8.237  -3.927   2.293  0.00  0.00    -0.341 N 
ATOM      5  H   UNL d   1       8.624  -2.788   0.206  0.00  0.00     0.164 HD
ATOM      6  H   UNL d   1       9.198  -3.793   2.011  0.00  0.00     0.164 HD
ENDROOT
BRANCH   1   7
ATOM      7  C   UNL d   1       6.693  -2.228  -0.516  0.00  0.00     0.167 C 
BRANCH   7   8
ATOM      8  C   UNL d   1       7.189  -1.597  -1.793  0.00  0.00     0.013 A 
ATOM      9  C   UNL d   1       8.556  -1.600  -2.114  0.00  0.00     0.014 A 
ATOM     10  C   UNL d   1       9.015  -1.051  -3.301  0.00  0.00     0.020 A 
ATOM     11  C   UNL d   1       8.087  -0.504  -4.159  0.00  0.00     0.119 A 
ATOM     12  N   UNL d   1       6.763  -0.457  -3.893  0.00  0.00    -0.237 NA
ATOM     13  C   UNL d   1       6.324  -0.980  -2.718  0.00  0.00     0.172 A 
BRANCH  13  14
ATOM     14  O   UNL d   1       4.953  -0.941  -2.611  0.00  0.00    -0.334 OA
BRANCH  14  15
ATOM     15  C   UNL d   1       4.443  -0.438  -1.380  0.00  0.00     0.177 C 
BRANCH  15  16
ATOM     16  C   UNL d   1       2.923  -0.424  -1.370  0.00  0.00     0.026 C 
BRANCH  16  17
ATOM     17  C   UNL d   1       2.419  -0.019   0.019  0.00  0.00    -0.002 C 
ATOM     18  C   UNL d   1       0.905  -0.027   0.062  0.00  0.00     0.005 C 
ENDBRANCH  16  17
ENDBRANCH  15  16
ENDBRANCH  14  15
ENDBRANCH  13  14
ENDBRANCH   7   8
ENDBRANCH   1   7
BRANCH   4  19
ATOM     19  C   UNL d   1       7.973  -4.529   3.594  0.00  0.00     0.158 C 
BRANCH  19  20
ATOM     20  C   UNL d   1       9.244  -5.029   4.302  0.00  0.00     0.160 C 
BRANCH  20  21
ATOM     21  O   UNL d   1      10.136  -3.917   4.481  0.00  0.00    -0.392 OA
ATOM     22  H   UNL d   1       9.728  -3.308   5.120  0.00  0.00     0.210 HD
ENDBRANCH  20  21
BRANCH  20  23
ATOM     23  C   UNL d   1       8.905  -5.697   5.655  0.00  0.00     0.209 C 
BRANCH  23  24
ATOM     24  O   UNL d   1      10.117  -6.143   6.286  0.00  0.00    -0.349 OA
BRANCH  24  25
ATOM     25  C   UNL d   1       9.968  -6.798   7.481  0.00  0.00     0.069 A 
ATOM     26  C   UNL d   1       8.994  -7.769   7.727  0.00  0.00     0.040 A 
ATOM     27  C   UNL d   1       8.968  -8.443   8.953  0.00  0.00     0.045 A 
ATOM     28  C   UNL d   1       9.922  -8.153   9.922  0.00  0.00     0.116 A 
ATOM     29  F   UNL d   1       9.899  -8.810  11.089  0.00  0.00    -0.206 F 
ATOM     30  C   UNL d   1      10.904  -7.200   9.688  0.00  0.00     0.045 A 
ATOM     31  C   UNL d   1      10.930  -6.526   8.462  0.00  0.00     0.040 A 
ENDBRANCH  24  25
ENDBRANCH  23  24
ENDBRANCH  20  23
ENDBRANCH  19  20
ENDBRANCH   4  19
TORSDOF 12
