@<TRIPOS>MOLECULE
*****
 60 63 0 0 0
SMALL
GASTEIGER

@<TRIPOS>ATOM
      1 C           1.0527    0.0121   -0.0646 C.3     1  UNL1        0.0820
      2 O           2.4892   -0.0344    0.0397 O.3     1  UNL1       -0.4634
      3 C           3.0868   -0.9400   -0.7872 C.2     1  UNL1        0.3573
      4 O           2.4802   -1.6849   -1.5532 O.2     1  UNL1       -0.2433
      5 C           4.5352   -0.8823   -0.6754 C.ar    1  UNL1        0.1468
      6 N           5.3182   -1.0679   -1.8088 N.ar    1  UNL1       -0.3475
      7 C           6.6580   -0.9697   -1.5189 C.ar    1  UNL1        0.0490
      8 C           7.7911   -1.0608   -2.3572 C.ar    1  UNL1       -0.0363
      9 C           9.0651   -0.9056   -1.7909 C.ar    1  UNL1       -0.0414
     10 C           9.1949   -0.6717   -0.4409 C.ar    1  UNL1        0.0417
     11 CL         10.7354   -0.4434    0.2947 Cl      1  UNL1       -0.0835
     12 C           8.0650   -0.5945    0.3600 C.ar    1  UNL1       -0.0324
     13 C           6.7549   -0.7411   -0.1456 C.ar    1  UNL1        0.0231
     14 C           5.4161   -0.7081    0.4056 C.ar    1  UNL1        0.0734
     15 N           5.0065   -0.5573    1.7544 N.am    1  UNL1       -0.2785
     16 C           5.8442   -0.4587    2.8632 C.2     1  UNL1        0.2653
     17 O           7.0736   -0.4795    2.9002 O.2     1  UNL1       -0.2693
     18 C           5.2380   -0.3165    4.2710 C.3     1  UNL1        0.0542
     19 C           4.4114   -1.5460    4.5803 C.3     1  UNL1       -0.0129
     20 N           6.4373   -0.1774    5.3605 N.4     1  UNL1        0.2459
     21 C           6.4223    1.1802    6.0802 C.3     1  UNL1       -0.0150
     22 C           7.5160    1.2983    7.1712 C.3     1  UNL1        0.0525
     23 N           7.5037    0.1567    8.0855 N.pl3   1  UNL1       -0.3197
     24 C           6.9772    0.2078    9.3657 C.ar    1  UNL1        0.0305
     25 C           7.6881   -0.3629   10.4342 C.ar    1  UNL1       -0.0406
     26 C           7.1793   -0.3965   11.7399 C.ar    1  UNL1       -0.0595
     27 C           5.9530    0.1896   12.0238 C.ar    1  UNL1       -0.0500
     28 C           5.2147    0.7796   10.9920 C.ar    1  UNL1        0.0566
     29 C           3.8422    1.3336   11.2940 C.3     1  UNL1        0.4175
     30 F           3.0059    0.3849   11.7986 F       1  UNL1       -0.1659
     31 F           3.8605    2.3466   12.1995 F       1  UNL1       -0.1659
     32 F           3.2159    1.8253   10.1869 F       1  UNL1       -0.1659
     33 C           5.7433    0.7960    9.6771 C.ar    1  UNL1       -0.0290
     34 C           7.6907   -1.1382    7.4194 C.3     1  UNL1        0.0525
     35 C           6.5907   -1.3536    6.3517 C.3     1  UNL1       -0.0150
     36 H           0.6916    0.8438    0.5494 H       1  UNL1        0.0661
     37 H           0.6245   -0.9137    0.3314 H       1  UNL1        0.0661
     38 H           0.7112    0.1824   -1.0934 H       1  UNL1        0.0661
     39 H           4.9484   -1.2228   -2.7415 H       1  UNL1        0.1661
     40 H           7.7028   -1.2387   -3.4253 H       1  UNL1        0.0639
     41 H           9.9581   -0.9579   -2.4074 H       1  UNL1        0.0633
     42 H           8.2746   -0.3897    1.3905 H       1  UNL1        0.0639
     43 H           3.9958   -0.5589    1.8711 H       1  UNL1        0.1551
     44 H           4.6726    0.6186    4.3193 H       1  UNL1        0.0947
     45 H           5.0194   -2.4542    4.4843 H       1  UNL1        0.0289
     46 H           3.5780   -1.6547    3.8838 H       1  UNL1        0.0289
     47 H           3.9957   -1.4895    5.5874 H       1  UNL1        0.0289
     48 H           7.2867   -0.1930    4.7552 H       1  UNL1        0.2042
     49 H           5.4275    1.2741    6.5212 H       1  UNL1        0.0830
     50 H           6.5665    1.9555    5.3194 H       1  UNL1        0.0830
     51 H           7.4431    2.2471    7.7134 H       1  UNL1        0.0516
     52 H           8.4990    1.3011    6.6803 H       1  UNL1        0.0516
     53 H           8.6873   -0.7597   10.2660 H       1  UNL1        0.0636
     54 H           7.7406   -0.8850   12.5344 H       1  UNL1        0.0618
     55 H           5.5716    0.1804   13.0460 H       1  UNL1        0.0623
     56 H           5.1417    1.2520    8.8966 H       1  UNL1        0.0641
     57 H           7.6807   -1.9773    8.1261 H       1  UNL1        0.0516
     58 H           8.6720   -1.1428    6.9310 H       1  UNL1        0.0516
     59 H           5.6325   -1.4485    6.8662 H       1  UNL1        0.0830
     60 H           6.8103   -2.2506    5.7639 H       1  UNL1        0.0830
@<TRIPOS>UNITY_ATOM_ATTR
20 1
charge 1
@<TRIPOS>BOND
     1     1     2    1
     2     2     3    1
     3     3     4    2
     4     3     5    1
     5     5     6   ar
     6     6     7   ar
     7     7     8   ar
     8     8     9   ar
     9     9    10   ar
    10    10    11    1
    11    10    12   ar
    12    12    13   ar
    13     7    13   ar
    14    13    14   ar
    15     5    14   ar
    16    14    15    1
    17    15    16   am
    18    16    17    2
    19    16    18    1
    20    18    19    1
    21    18    20    1
    22    20    21    1
    23    21    22    1
    24    22    23    1
    25    23    24    1
    26    24    25   ar
    27    25    26   ar
    28    26    27   ar
    29    27    28   ar
    30    28    29    1
    31    29    30    1
    32    29    31    1
    33    29    32    1
    34    28    33   ar
    35    24    33   ar
    36    23    34    1
    37    34    35    1
    38    20    35    1
    39     1    36    1
    40     1    37    1
    41     1    38    1
    42     6    39    1
    43     8    40    1
    44     9    41    1
    45    12    42    1
    46    15    43    1
    47    18    44    1
    48    19    45    1
    49    19    46    1
    50    19    47    1
    51    20    48    1
    52    21    49    1
    53    21    50    1
    54    22    51    1
    55    22    52    1
    56    25    53    1
    57    26    54    1
    58    27    55    1
    59    33    56    1
    60    34    57    1
    61    34    58    1
    62    35    59    1
    63    35    60    1
