REMARK  7 active torsions:
REMARK  status: ('A' for Active; 'I' for Inactive)
REMARK    1  A    between atoms: C_2  and  C_3 
REMARK       I    between atoms: C_2  and  N_20 
REMARK    2  A    between atoms: C_3  and  N_4 
REMARK    3  A    between atoms: N_4  and  C_5 
REMARK    4  A    between atoms: C_8  and  C_9 
REMARK       I    between atoms: C_9  and  N_11 
REMARK    5  A    between atoms: N_11  and  C_12 
REMARK    6  A    between atoms: C_12  and  C_13 
REMARK    7  A    between atoms: N_20  and  C_21 
ROOT
ATOM      1  C   UNL d   1       2.552   0.189   3.874  0.00  0.00     0.028 A 
ATOM      2  C   UNL d   1       1.975  -0.561   4.900  0.00  0.00     0.030 A 
ATOM      3  C   UNL d   1       2.385  -0.398   6.237  0.00  0.00     0.019 A 
ATOM      4  C   UNL d   1       3.450   0.456   6.569  0.00  0.00     0.032 A 
ATOM      5  C   UNL d   1       4.056   1.175   5.537  0.00  0.00     0.019 A 
ATOM      6  C   UNL d   1       3.626   1.019   4.211  0.00  0.00     0.030 A 
ENDROOT
BRANCH   1   7
ATOM      7  N   UNL d   1       2.096   0.078   2.575  0.00  0.00    -0.381 N 
ATOM      8  H   UNL d   1       1.108  -0.048   2.376  0.00  0.00     0.160 HD
BRANCH   7   9
ATOM      9  C   UNL d   1       3.017   0.054   1.450  0.00  0.00     0.223 C 
BRANCH   9  10
ATOM     10  C   UNL d   1       2.313  -0.049   0.085  0.00  0.00     0.239 C 
ATOM     11  O   UNL d   1       1.084  -0.066  -0.028  0.00  0.00    -0.271 OA
ATOM     12  N   UNL d   1       3.097  -0.013  -1.056  0.00  0.00    -0.326 N 
ATOM     13  H   UNL d   1       2.568   0.129  -1.911  0.00  0.00     0.169 HD
BRANCH  12  14
ATOM     14  C   UNL d   1       4.498  -0.099  -1.146  0.00  0.00     0.036 A 
ATOM     15  C   UNL d   1       5.181   0.644  -2.113  0.00  0.00     0.032 A 
ATOM     16  C   UNL d   1       6.575   0.534  -2.220  0.00  0.00     0.046 A 
ATOM     17  C   UNL d   1       7.282  -0.277  -1.334  0.00  0.00     0.138 A 
ATOM     18  F   UNL d   1       8.619  -0.321  -1.414  0.00  0.00    -0.204 F 
ATOM     19  C   UNL d   1       6.607  -1.038  -0.394  0.00  0.00     0.074 A 
ATOM     20 CL   UNL d   1       7.436  -2.101   0.674  0.00  0.00    -0.081 Cl
ATOM     21  C   UNL d   1       5.220  -0.974  -0.331  0.00  0.00     0.056 A 
ENDBRANCH  12  14
ENDBRANCH   9  10
ENDBRANCH   7   9
ENDBRANCH   1   7
BRANCH   4  22
ATOM     22  C   UNL d   1       3.923   0.520   7.994  0.00  0.00     0.251 C 
ATOM     23  O   UNL d   1       3.348  -0.148   8.859  0.00  0.00    -0.268 OA
ATOM     24  N   UNL d   1       5.015   1.311   8.293  0.00  0.00    -0.351 N 
ATOM     25  H   UNL d   1       5.508   1.822   7.579  0.00  0.00     0.163 HD
BRANCH  24  26
ATOM     26  C   UNL d   1       5.566   1.362   9.636  0.00  0.00     0.187 C 
BRANCH  26  27
ATOM     27  C   UNL d   1       6.644   2.388   9.695  0.00  0.00     0.070 A 
ATOM     28  C   UNL d   1       6.594   3.767   9.723  0.00  0.00     0.036 A 
ATOM     29  C   UNL d   1       7.929   4.223   9.793  0.00  0.00     0.027 A 
ATOM     30  C   UNL d   1       8.717   3.097   9.816  0.00  0.00     0.142 A 
ATOM     31  O   UNL d   1       7.946   1.974   9.752  0.00  0.00    -0.325 OA
ENDBRANCH  26  27
ENDBRANCH  24  26
ENDBRANCH   4  22
TORSDOF 7
