REMARK  10 active torsions:
REMARK  status: ('A' for Active; 'I' for Inactive)
REMARK    1  A    between atoms: C_2  and  O_3 
REMARK    2  A    between atoms: O_3  and  C_4 
REMARK    3  A    between atoms: C_9  and  C_10 
REMARK    4  A    between atoms: C_12  and  C_13 
REMARK       I    between atoms: C_13  and  N_15 
REMARK    5  A    between atoms: N_15  and  C_16 
REMARK    6  A    between atoms: C_16  and  C_17 
REMARK    7  A    between atoms: C_16  and  C_21 
REMARK    8  A    between atoms: C_17  and  C_18 
REMARK    9  A    between atoms: C_18  and  S_19 
REMARK   10  A    between atoms: C_21  and  O_23 
ROOT
ATOM      1  C   UNL d   1       4.703  -1.542  -0.993  0.00  0.00     0.072 C 
ATOM      2  N   UNL d   1       5.237  -2.155   0.018  0.00  0.00    -0.245 NA
ATOM      3  C   UNL d   1       4.645  -3.321   0.451  0.00  0.00     0.122 C 
ATOM      4  C   UNL d   1       3.393  -3.691   0.085  0.00  0.00     0.025 C 
ATOM      5  C   UNL d   1       2.590  -2.818  -0.858  0.00  0.00     0.039 C 
ATOM      6  C   UNL d   1       1.602  -3.262  -1.671  0.00  0.00     0.052 C 
ATOM      7  C   UNL d   1       0.912  -2.549  -2.863  0.00  0.00    -0.008 C 
ATOM      8  C   UNL d   1       0.469  -3.339  -3.875  0.00  0.00    -0.003 C 
ATOM      9  C   UNL d   1       0.555  -4.763  -3.655  0.00  0.00     0.002 C 
ATOM     10  C   UNL d   1       1.663  -5.211  -3.010  0.00  0.00     0.026 C 
ATOM     11  C   UNL d   1       2.555  -4.087  -2.485  0.00  0.00     0.021 C 
ATOM     12  N   UNL d   1       3.578  -3.300  -2.753  0.00  0.00    -0.381 N 
ATOM     13  C   UNL d   1       3.515  -2.082  -1.777  0.00  0.00     0.149 C 
ATOM     14  H   UNL d   1       3.887  -3.089  -3.702  0.00  0.00     0.160 HD
ENDROOT
BRANCH   3  15
ATOM     15  C   UNL d   1       5.368  -4.043   1.567  0.00  0.00     0.270 C 
ATOM     16  O   UNL d   1       5.881  -3.378   2.467  0.00  0.00    -0.266 OA
ATOM     17  N   UNL d   1       5.385  -5.415   1.543  0.00  0.00    -0.342 N 
ATOM     18  H   UNL d   1       5.199  -5.917   0.682  0.00  0.00     0.163 HD
BRANCH  17  19
ATOM     19  C   UNL d   1       5.900  -6.230   2.676  0.00  0.00     0.185 C 
BRANCH  19  20
ATOM     20  C   UNL d   1       4.916  -6.219   3.871  0.00  0.00     0.045 C 
BRANCH  20  21
ATOM     21  C   UNL d   1       4.615  -4.821   4.426  0.00  0.00     0.076 C 
BRANCH  21  22
ATOM     22  S   UNL d   1       3.488  -4.841   5.850  0.00  0.00    -0.173 SA
ATOM     23  C   UNL d   1       3.334  -3.044   6.118  0.00  0.00     0.089 C 
ENDBRANCH  21  22
ENDBRANCH  20  21
ENDBRANCH  19  20
BRANCH  19  24
ATOM     24  C   UNL d   1       6.113  -7.683   2.187  0.00  0.00     0.281 C 
ATOM     25  O   UNL d   1       5.844  -8.043   1.019  0.00  0.00    -0.263 OA
BRANCH  24  26
ATOM     26  O   UNL d   1       6.621  -8.502   3.140  0.00  0.00    -0.325 OA
ATOM     27  C   UNL d   1       6.822  -9.876   2.759  0.00  0.00     0.213 C 
ENDBRANCH  24  26
ENDBRANCH  19  24
ENDBRANCH  17  19
ENDBRANCH   3  15
BRANCH   1  28
ATOM     28  C   UNL d   1       5.146  -0.118  -1.229  0.00  0.00     0.024 A 
ATOM     29  C   UNL d   1       6.506   0.080  -1.514  0.00  0.00     0.016 A 
ATOM     30  C   UNL d   1       7.005   1.359  -1.794  0.00  0.00     0.001 A 
ATOM     31  C   UNL d   1       6.158   2.462  -1.764  0.00  0.00     0.003 A 
ATOM     32  C   UNL d   1       4.821   2.293  -1.397  0.00  0.00     0.037 A 
ATOM     33  C   UNL d   1       4.301   1.009  -1.132  0.00  0.00     0.081 A 
BRANCH  33  34
ATOM     34  O   UNL d   1       2.943   0.982  -0.937  0.00  0.00    -0.351 OA
BRANCH  34  35
ATOM     35  C   UNL d   1       2.459   0.275   0.205  0.00  0.00     0.171 C 
ATOM     36  C   UNL d   1       0.948   0.173   0.092  0.00  0.00     0.034 C 
ENDBRANCH  34  35
ENDBRANCH  33  34
ENDBRANCH   1  28
TORSDOF 10
