@<TRIPOS>MOLECULE
*****
 66 69 0 0 0
SMALL
GASTEIGER

@<TRIPOS>ATOM
      1 C           1.0405   -0.0294    0.6078 C.3     1  UNL1       -0.0636
      2 C           2.5766    0.1246    0.4363 C.3     1  UNL1       -0.0376
      3 C           3.1121    1.5355   -0.0123 C.3     1  UNL1        0.0204
      4 C           2.4379    2.6110    0.7445 C.3     1  UNL1       -0.0466
      5 N           4.5664    1.8212    0.2846 N.am    1  UNL1       -0.3087
      6 C           5.2998    2.6878   -0.5484 C.2     1  UNL1        0.2461
      7 O           4.7817    3.5723   -1.2264 O.2     1  UNL1       -0.2701
      8 C           6.7826    2.3614   -0.7657 C.ar    1  UNL1        0.0594
      9 C           7.5588    3.5410   -0.4129 C.ar    1  UNL1       -0.0265
     10 C           8.9214    3.5939   -0.6560 C.ar    1  UNL1        0.0356
     11 N           9.7108    4.8117   -0.4579 N.am    1  UNL1       -0.2692
     12 C          11.0636    4.9112   -0.8000 C.2     1  UNL1        0.3081
     13 O          11.7120    3.9579   -1.2245 O.2     1  UNL1       -0.2522
     14 N          11.6933    6.1385   -0.6021 N.am    1  UNL1       -0.2692
     15 C          13.0862    6.2990   -0.9327 C.ar    1  UNL1        0.0350
     16 C          13.9547    7.0434   -0.1270 C.ar    1  UNL1       -0.0404
     17 C          15.2926    7.2482   -0.5180 C.ar    1  UNL1       -0.0598
     18 C          15.7949    6.6604   -1.6790 C.ar    1  UNL1       -0.0587
     19 C          14.9464    5.9170   -2.4943 C.ar    1  UNL1       -0.0487
     20 C          15.4183    5.3602   -3.8028 C.3     1  UNL1       -0.0397
     21 C          13.6081    5.7383   -2.1091 C.ar    1  UNL1       -0.0375
     22 C           9.4514    2.3851   -1.1481 C.ar    1  UNL1       -0.0386
     23 C           8.7043    1.1906   -1.5388 C.ar    1  UNL1       -0.0382
     24 C           7.3285    1.0663   -1.3895 C.ar    1  UNL1        0.0423
     25 N           6.5211   -0.0700   -1.7900 N.pl3   1  UNL1       -0.3247
     26 C           5.2910    0.6082   -1.8875 C.3     1  UNL1        0.0165
     27 C           4.6596   -0.4210   -2.4374 C.3     1  UNL1       -0.0116
     28 C           3.5309   -1.1437   -2.7576 C.ar    1  UNL1       -0.0412
     29 C           2.4694   -0.0821   -2.8522 C.ar    1  UNL1       -0.0582
     30 C           1.2580   -0.3170   -2.3680 C.ar    1  UNL1       -0.0615
     31 C           1.2948   -1.6163   -1.9202 C.ar    1  UNL1       -0.0614
     32 C           2.7147   -2.5617   -1.8910 C.ar    1  UNL1       -0.0568
     33 C           4.1476   -2.4070   -2.4668 C.ar    1  UNL1       -0.0270
     34 C           6.0888   -1.8627   -2.2761 C.3     1  UNL1        0.0375
     35 H           0.7975   -1.0590    0.9003 H       1  UNL1        0.0230
     36 H           0.3824    0.1606   -0.2413 H       1  UNL1        0.0230
     37 H           0.6641    0.6792    1.3374 H       1  UNL1        0.0230
     38 H           2.9531   -0.6824   -0.1932 H       1  UNL1        0.0280
     39 H           3.0320   -0.1386    1.3901 H       1  UNL1        0.0280
     40 H           2.8932    1.7295   -1.0709 H       1  UNL1        0.0495
     41 H           2.7415    2.4582    1.7810 H       1  UNL1        0.0247
     42 H           1.3651    2.5724    0.6016 H       1  UNL1        0.0247
     43 H           2.8115    3.5656    0.3727 H       1  UNL1        0.0247
     44 H           5.1000    1.0507    0.6821 H       1  UNL1        0.1493
     45 H           7.0398    4.3813    0.0544 H       1  UNL1        0.0644
     46 H           9.2161    5.6529   -0.1818 H       1  UNL1        0.1564
     47 H          11.2488    6.8972   -0.1071 H       1  UNL1        0.1564
     48 H          13.6445    7.4100    0.8467 H       1  UNL1        0.0636
     49 H          15.9544    7.8741    0.0770 H       1  UNL1        0.0618
     50 H          16.8426    6.7870   -1.9461 H       1  UNL1        0.0620
     51 H          16.4723    5.5956   -3.9811 H       1  UNL1        0.0278
     52 H          14.8361    5.8046   -4.6173 H       1  UNL1        0.0278
     53 H          15.2996    4.2731   -3.8220 H       1  UNL1        0.0278
     54 H          12.9606    5.1669   -2.7704 H       1  UNL1        0.0639
     55 H          10.5279    2.2949   -1.2471 H       1  UNL1        0.0637
     56 H           9.3030    0.4199   -2.0074 H       1  UNL1        0.0637
     57 H           5.0300    1.4377   -2.5348 H       1  UNL1        0.0467
     58 H           4.8689    0.4799   -0.9315 H       1  UNL1        0.0467
     59 H           4.7577   -1.0297   -1.3583 H       1  UNL1        0.0328
     60 H           5.0730   -0.5647   -3.4424 H       1  UNL1        0.0328
     61 H           2.8113    0.9524   -2.9431 H       1  UNL1        0.0620
     62 H           0.5793    0.5186   -2.1458 H       1  UNL1        0.0618
     63 H           0.3263   -1.9428   -1.4969 H       1  UNL1        0.0618
     64 H           2.2704   -3.5360   -1.6265 H       1  UNL1        0.0621
     65 H           6.4857   -1.8078   -3.3276 H       1  UNL1        0.0513
     66 H           6.7934   -2.4343   -1.6675 H       1  UNL1        0.0513
@<TRIPOS>BOND
     1     1     2    1
     2     2     3    1
     3     3     4    1
     4     3     5    1
     5     5     6   am
     6     6     7    2
     7     6     8    1
     8     8     9   ar
     9     9    10   ar
    10    10    11    1
    11    11    12   am
    12    12    13    2
    13    12    14   am
    14    14    15    1
    15    15    16   ar
    16    16    17   ar
    17    17    18   ar
    18    18    19   ar
    19    19    20    1
    20    19    21   ar
    21    15    21   ar
    22    10    22   ar
    23    22    23   ar
    24    23    24   ar
    25     8    24   ar
    26    24    25    1
    27    25    26    1
    28    26    27    1
    29    27    28    1
    30    28    29   ar
    31    29    30   ar
    32    30    31   ar
    33    31    32   ar
    34    32    33   ar
    35    28    33   ar
    36    33    34    1
    37    25    34    1
    38     1    35    1
    39     1    36    1
    40     1    37    1
    41     2    38    1
    42     2    39    1
    43     3    40    1
    44     4    41    1
    45     4    42    1
    46     4    43    1
    47     5    44    1
    48     9    45    1
    49    11    46    1
    50    14    47    1
    51    16    48    1
    52    17    49    1
    53    18    50    1
    54    20    51    1
    55    20    52    1
    56    20    53    1
    57    21    54    1
    58    22    55    1
    59    23    56    1
    60    26    57    1
    61    26    58    1
    62    27    59    1
    63    27    60    1
    64    29    61    1
    65    30    62    1
    66    31    63    1
    67    32    64    1
    68    34    65    1
    69    34    66    1
