REMARK  9 active torsions:
REMARK  status: ('A' for Active; 'I' for Inactive)
REMARK    1  A    between atoms: CA_4  and  C_2 
REMARK    2  A    between atoms: CA_4  and  N_15 
REMARK    3  A    between atoms: CA_4  and  CB_5 
REMARK    4  A    between atoms: CB_5  and  CG_6 
REMARK       I    between atoms: N_15  and  C_16 
REMARK    5  A    between atoms: C_16  and  C_18 
REMARK    6  A    between atoms: C_18  and  C_19 
REMARK    7  A    between atoms: C_18  and  N_26 
REMARK    8  A    between atoms: C_19  and  C_20 
REMARK    9  A    between atoms: C_36  and  O_37 
ROOT
ATOM      1  C   UNK d   0       6.832  -1.852   0.318  0.00  0.00     0.188 C 
ENDROOT
BRANCH   1   2
ATOM      2  C   UNK d   0       5.314  -2.037   0.448  0.00  0.00     0.241 C 
ATOM      3  N   TRP d   1       4.463  -1.125  -0.143  0.00  0.00    -0.344 N 
ATOM      4  H   TRP d   1       4.790  -0.303  -0.641  0.00  0.00     0.163 HD
ATOM      5  O   UNK d   0       4.885  -2.917   1.210  0.00  0.00    -0.271 OA
BRANCH   3   6
ATOM      6  CA  TRP d   1       3.002  -1.374  -0.094  0.00  0.00     0.190 C 
BRANCH   6   7
ATOM      7  CB  TRP d   1       2.142  -0.094  -0.093  0.00  0.00     0.077 C 
BRANCH   7   8
ATOM      8  CG  TRP d   1       0.691  -0.280  -0.405  0.00  0.00    -0.028 C 
ATOM      9  CD1 TRP d   1       0.016  -1.481  -0.476  0.00  0.00     0.096 C 
ATOM     10  NE1 TRP d   1      -1.193  -1.256  -1.052  0.00  0.00    -0.365 N 
ATOM     11  CE2 TRP d   1      -1.411   0.092  -1.169  0.00  0.00     0.042 A 
ATOM     12  HE1 TRP d   1      -1.807  -1.990  -1.372  0.00  0.00     0.165 HD
ATOM     13  CZ2 TRP d   1      -2.528   0.776  -1.646  0.00  0.00     0.030 A 
ATOM     14  CD2 TRP d   1      -0.247   0.738  -0.749  0.00  0.00    -0.002 A 
ATOM     15  CH2 TRP d   1      -2.460   2.170  -1.673  0.00  0.00     0.002 A 
ATOM     16  CZ3 TRP d   1      -1.318   2.849  -1.248  0.00  0.00     0.001 A 
ATOM     17  CE3 TRP d   1      -0.199   2.146  -0.791  0.00  0.00     0.014 A 
ENDBRANCH   7   8
ENDBRANCH   6   7
BRANCH   6  18
ATOM     18  C   TRP d   1       2.684  -2.418  -1.210  0.00  0.00     0.197 C 
ATOM     19  O   TRP d   1       2.907  -3.622  -0.885  0.00  0.00    -0.646 OA
ATOM     20  OXT TRP d   1       2.330  -1.948  -2.328  0.00  0.00    -0.646 OA
ENDBRANCH   6  18
ENDBRANCH   3   6
ENDBRANCH   1   2
BRANCH   1  21
ATOM     21  C   UNK d   0       7.208  -0.815   1.462  0.00  0.00     0.073 C 
BRANCH  21  22
ATOM     22  C   UNK d   0       6.531   0.554   1.445  0.00  0.00    -0.056 C 
ATOM     23  C   UNK d   0       7.229   1.746   1.242  0.00  0.00     0.007 C 
ATOM     24  C   UNK d   0       6.541   2.969   1.194  0.00  0.00     0.001 C 
ATOM     25  C   UNK d   0       5.153   2.997   1.147  0.00  0.00     0.000 C 
ATOM     26  C   UNK d   0       4.463   1.830   1.378  0.00  0.00     0.001 C 
ATOM     27  C   UNK d   0       5.159   0.665   1.681  0.00  0.00     0.007 C 
ENDBRANCH  21  22
ENDBRANCH   1  21
BRANCH   1  28
ATOM     28  N   UNK d   0       7.652  -3.152   0.375  0.00  0.00    -0.290 N 
ATOM     29  C   UNK d   0       9.031  -3.052   0.577  0.00  0.00     0.260 C 
ATOM     30  O   UNK d   0       9.680  -1.998   0.511  0.00  0.00    -0.267 OA
ATOM     31  C   UNK d   0       9.795  -4.294   0.821  0.00  0.00     0.058 C 
ATOM     32  C   UNK d   0      10.976  -4.328   1.557  0.00  0.00     0.019 C 
ATOM     33  C   UNK d   0       9.303  -5.432   0.193  0.00  0.00     0.047 C 
ATOM     34  C   UNK d   0      11.729  -5.501   1.574  0.00  0.00     0.001 C 
ATOM     35  C   UNK d   0      11.296  -6.620   0.856  0.00  0.00     0.002 C 
ATOM     36  C   UNK d   0      10.095  -6.578   0.141  0.00  0.00     0.030 C 
ATOM     37  N   UNK d   0       7.993  -5.427  -0.228  0.00  0.00    -0.346 N 
ATOM     38  C   UNK d   0       7.108  -4.515   0.471  0.00  0.00     0.332 C 
ATOM     39  H   UNK d   0       7.741  -5.590  -1.194  0.00  0.00     0.164 HD
BRANCH  38  40
ATOM     40  O   UNK d   0       5.909  -4.763  -0.187  0.00  0.00    -0.359 OA
ATOM     41  H   UNK d   0       5.218  -4.138   0.098  0.00  0.00     0.214 HD
ENDBRANCH  38  40
ENDBRANCH   1  28
TORSDOF 9
