@<TRIPOS>MOLECULE
*****
 39 41 0 0 0
SMALL
GASTEIGER

@<TRIPOS>ATOM
      1 C           1.4531   -5.2190   -0.7447 C.3     1  UNL1       -0.0205
      2 C           1.4473   -3.9503   -1.5370 C.2     1  UNL1        0.0647
      3 C           2.0799   -2.8047   -1.2515 C.2     1  UNL1        0.0166
      4 C           2.9012   -2.5553   -0.0536 C.3     1  UNL1        0.0391
      5 C           3.4071   -1.1812    0.3571 C.ar    1  UNL1       -0.0356
      6 C           3.9791   -0.1637   -0.4275 C.ar    1  UNL1       -0.0574
      7 C           4.8337    0.7743    0.1647 C.ar    1  UNL1       -0.0586
      8 C           5.0934    0.7084    1.5355 C.ar    1  UNL1       -0.0504
      9 C           6.1108    1.5602    2.2094 C.3     1  UNL1       -0.0397
     10 C           4.4153   -0.2118    2.3254 C.ar    1  UNL1       -0.0586
     11 C           3.5395   -1.0965    1.7492 C.ar    1  UNL1       -0.0574
     12 C           4.1309   -3.4525    0.0335 C.ar    1  UNL1       -0.0031
     13 C           5.2364   -3.5399   -0.8679 C.ar    1  UNL1        0.0632
     14 C           5.5191   -2.7505   -2.0796 C.3     1  UNL1       -0.0203
     15 N           6.1060   -4.4865   -0.5087 N.ar    1  UNL1       -0.1794
     16 N           5.5906   -4.9453    0.6439 N.ar    1  UNL1       -0.2915
     17 C           4.4137   -4.3724    1.0455 C.ar    1  UNL1       -0.0132
     18 O           3.9254   -4.7683    2.0962 O.co2   1  UNL1       -0.8603
     19 C           1.6449   -1.8389   -2.2712 C.3     1  UNL1        0.1919
     20 O           2.7496   -1.3547   -3.0058 O.3     1  UNL1       -0.3659
     21 N           0.7207   -2.6555   -3.0994 N.2     1  UNL1       -0.1508
     22 N           0.6821   -3.8427   -2.6684 N.2     1  UNL1       -0.1563
     23 H           1.9643   -5.1162    0.2112 H       1  UNL1        0.0293
     24 H           1.9525   -6.0192   -1.2975 H       1  UNL1        0.0293
     25 H           0.4359   -5.5326   -0.4935 H       1  UNL1        0.0293
     26 H           2.2105   -2.8440    0.7575 H       1  UNL1        0.0446
     27 H           3.8802   -0.1063   -1.5058 H       1  UNL1        0.0621
     28 H           5.3523    1.4984   -0.4607 H       1  UNL1        0.0620
     29 H           6.5792    2.2587    1.5145 H       1  UNL1        0.0278
     30 H           6.8879    0.9228    2.6466 H       1  UNL1        0.0278
     31 H           5.6163    2.1231    3.0057 H       1  UNL1        0.0278
     32 H           4.6260   -0.3377    3.3806 H       1  UNL1        0.0620
     33 H           3.1051   -1.8759    2.3756 H       1  UNL1        0.0621
     34 H           4.8057   -1.9497   -2.2026 H       1  UNL1        0.0293
     35 H           5.4766   -3.3758   -2.9755 H       1  UNL1        0.0293
     36 H           6.4925   -2.2592   -2.0156 H       1  UNL1        0.0293
     37 H           6.0748   -5.6722    1.1469 H       1  UNL1        0.1875
     38 H           1.1113   -0.9972   -1.8165 H       1  UNL1        0.0919
     39 H           3.1943   -2.1705   -3.2926 H       1  UNL1        0.2124
@<TRIPOS>UNITY_ATOM_ATTR
18 1
charge -1
@<TRIPOS>BOND
     1     1     2    1
     2     2     3    2
     3     5     6   ar
     4     6     7   ar
     5     7     8   ar
     6     8     9    1
     7     8    10   ar
     8    10    11   ar
     9     5    11   ar
    10     4    12    1
    11    12    13   ar
    12    13    14    1
    13    13    15   ar
    14    15    16   ar
    15    16    17   ar
    16    12    17   ar
    17    17    18    1
    18     3    19    1
    19    19    20    1
    20    19    21    1
    21    21    22    2
    22     2    22    1
    23     4     5    1
    24     4     3    1
    25     1    23    1
    26     1    24    1
    27     1    25    1
    28     4    26    1
    29     6    27    1
    30     7    28    1
    31     9    29    1
    32     9    30    1
    33     9    31    1
    34    10    32    1
    35    11    33    1
    36    14    34    1
    37    14    35    1
    38    14    36    1
    39    16    37    1
    40    19    38    1
    41    20    39    1
