@<TRIPOS>MOLECULE
*****
 67 70 0 0 0
SMALL
GASTEIGER

@<TRIPOS>ATOM
      1 C           1.0272   -0.8765    0.6077 C.3     1  UNL1        0.0788
      2 O           2.8977   -0.5963    0.7115 O.3     1  UNL1       -0.4947
      3 C           4.0575    0.6359    0.3180 C.ar    1  UNL1        0.1261
      4 C           4.1261    1.9294    0.9009 C.ar    1  UNL1       -0.0190
      5 C           4.5286    3.2516    0.4360 C.ar    1  UNL1       -0.0506
      6 C           5.0972    3.3867   -0.7664 C.ar    1  UNL1       -0.0173
      7 C           5.5898    4.6548   -1.0881 C.ar    1  UNL1       -0.0540
      8 C           6.6313    4.6807   -1.9733 C.ar    1  UNL1       -0.0612
      9 C           6.8764    3.5368   -2.7117 C.ar    1  UNL1       -0.0612
     10 C           5.9952    2.4419   -2.6547 C.ar    1  UNL1       -0.0536
     11 C           5.1987    2.2168   -1.5121 C.ar    1  UNL1       -0.0090
     12 C           4.5796    0.8821   -0.9940 C.ar    1  UNL1        0.0315
     13 C           4.7904   -0.2764   -1.8810 C.3     1  UNL1        0.1362
     14 C           6.1644   -0.7524   -1.3222 C.2     1  UNL1        0.2390
     15 O           6.2624   -1.5983   -0.4454 O.2     1  UNL1       -0.2734
     16 N           7.2676   -0.0271   -1.7605 N.am    1  UNL1       -0.3087
     17 C           8.6170   -0.2880   -1.3300 C.3     1  UNL1        0.0262
     18 C           8.7017   -0.3573    0.1969 C.3     1  UNL1       -0.0442
     19 C           9.0080   -1.5697   -2.0443 C.3     1  UNL1       -0.0442
     20 C           9.5249    0.8706   -1.8000 C.3     1  UNL1       -0.0442
     21 N           3.6204   -1.1050   -1.8720 N.am    1  UNL1       -0.2511
     22 C           2.3177   -0.6162   -1.3617 C.2     1  UNL1        0.2554
     23 O           1.5710   -1.6345   -1.3183 O.2     1  UNL1       -0.2695
     24 C           1.8058    0.9455   -0.4125 C.ar    1  UNL1        0.0822
     25 C           1.7455    2.0898   -1.1937 C.ar    1  UNL1       -0.0458
     26 C           1.5921    3.2700   -0.4033 C.ar    1  UNL1       -0.0574
     27 C           1.4484    3.4474    1.1206 C.ar    1  UNL1       -0.0165
     28 C           1.4208    2.3934    2.0261 C.ar    1  UNL1        0.1590
     29 O           1.8235    2.3667    3.3460 O.3     1  UNL1       -0.5033
     30 C           1.5726    1.2167    1.3128 C.ar    1  UNL1        0.1706
     31 O           1.7444    0.1288    2.3698 O.3     1  UNL1       -0.5028
     32 C           3.7799   -2.5635   -2.2551 C.ar    1  UNL1        0.0377
     33 C           2.6634   -3.3481   -2.6049 C.ar    1  UNL1       -0.0402
     34 C           2.7012   -4.7269   -2.8115 C.ar    1  UNL1       -0.0600
     35 C           3.9136   -5.3798   -2.8302 C.ar    1  UNL1       -0.0616
     36 C           5.0573   -4.6674   -2.5263 C.ar    1  UNL1       -0.0600
     37 C           4.9849   -3.2901   -2.2552 C.ar    1  UNL1       -0.0402
     38 H           0.7526   -1.8905    0.8607 H       1  UNL1        0.0660
     39 H           0.4855   -0.5816   -0.3656 H       1  UNL1        0.0660
     40 H           0.2723   -0.1843    1.1054 H       1  UNL1        0.0660
     41 H           3.2124    2.2636    1.2120 H       1  UNL1        0.0654
     42 H           3.9827    4.1571    0.7690 H       1  UNL1        0.0625
     43 H           5.3327    5.5465   -0.5167 H       1  UNL1        0.0624
     44 H           7.2654    5.5575   -2.0402 H       1  UNL1        0.0618
     45 H           7.7843    3.4660   -3.3020 H       1  UNL1        0.0618
     46 H           6.1599    1.6422   -3.3722 H       1  UNL1        0.0624
     47 H           4.8663    0.0054   -2.9377 H       1  UNL1        0.0653
     48 H           7.1456    0.9461   -1.9138 H       1  UNL1        0.1493
     49 H           8.0628   -1.1266    0.6314 H       1  UNL1        0.0250
     50 H           8.3851    0.5935    0.6475 H       1  UNL1        0.0250
     51 H           9.7167   -0.5876    0.5187 H       1  UNL1        0.0250
     52 H           8.3268   -2.3863   -1.7849 H       1  UNL1        0.0250
     53 H          10.0263   -1.8660   -1.8061 H       1  UNL1        0.0250
     54 H           8.9162   -1.4283   -3.1316 H       1  UNL1        0.0250
     55 H           9.2474    1.8211   -1.3223 H       1  UNL1        0.0250
     56 H           9.4561    1.0339   -2.8821 H       1  UNL1        0.0250
     57 H          10.5698    0.6677   -1.5474 H       1  UNL1        0.0250
     58 H           2.0792    2.0133   -2.2144 H       1  UNL1        0.0626
     59 H           1.9208    4.1598   -0.9547 H       1  UNL1        0.0619
     60 H           1.7750    4.4024    1.5342 H       1  UNL1        0.0655
     61 H           2.1137    3.2219    3.7055 H       1  UNL1        0.2923
     62 H           2.0733    0.3709    3.2506 H       1  UNL1        0.2923
     63 H           1.6760   -2.9191   -2.7217 H       1  UNL1        0.0636
     64 H           1.7660   -5.2585   -2.9542 H       1  UNL1        0.0618
     65 H           3.9656   -6.4281   -3.0914 H       1  UNL1        0.0618
     66 H           6.0214   -5.1677   -2.4739 H       1  UNL1        0.0618
     67 H           5.9529   -2.8974   -2.0058 H       1  UNL1        0.0636
@<TRIPOS>BOND
     1     1     2    1
     2     2     3    1
     3     3     4   ar
     4     4     5   ar
     5     5     6   ar
     6     6     7   ar
     7     7     8   ar
     8     8     9   ar
     9     9    10   ar
    10    10    11   ar
    11     6    11   ar
    12    11    12   ar
    13     3    12   ar
    14    12    13    1
    15    13    14    1
    16    14    15    2
    17    14    16   am
    18    16    17    1
    19    17    18    1
    20    17    19    1
    21    17    20    1
    22    13    21    1
    23    21    22   am
    24    22    23    2
    25    22    24    1
    26    24    25   ar
    27    25    26   ar
    28    26    27   ar
    29    27    28   ar
    30    28    29    1
    31    28    30   ar
    32    24    30   ar
    33    30    31    1
    34    21    32    1
    35    32    33   ar
    36    33    34   ar
    37    34    35   ar
    38    35    36   ar
    39    36    37   ar
    40    32    37   ar
    41     1    38    1
    42     1    39    1
    43     1    40    1
    44     4    41    1
    45     5    42    1
    46     7    43    1
    47     8    44    1
    48     9    45    1
    49    10    46    1
    50    13    47    1
    51    16    48    1
    52    18    49    1
    53    18    50    1
    54    18    51    1
    55    19    52    1
    56    19    53    1
    57    19    54    1
    58    20    55    1
    59    20    56    1
    60    20    57    1
    61    25    58    1
    62    26    59    1
    63    27    60    1
    64    29    61    1
    65    31    62    1
    66    33    63    1
    67    34    64    1
    68    35    65    1
    69    36    66    1
    70    37    67    1
