REMARK  9 active torsions:
REMARK  status: ('A' for Active; 'I' for Inactive)
REMARK    1  A    between atoms: O_2  and  C_3 
REMARK    2  A    between atoms: C_6  and  N_7 
REMARK       I    between atoms: N_7  and  C_8 
REMARK    3  A    between atoms: C_8  and  C_10 
REMARK    4  A    between atoms: C_10  and  S_11 
REMARK    5  A    between atoms: S_11  and  C_12 
REMARK    6  A    between atoms: C_15  and  C_16 
REMARK    7  A    between atoms: C_21  and  O_22 
REMARK    8  A    between atoms: N_23  and  C_24 
REMARK    9  A    between atoms: C_30  and  O_31 
ROOT
ATOM      1  C   UNL d   1       4.971   8.418  -6.278  0.00  0.00     0.197 A 
ATOM      2  N   UNL d   1       4.806   9.726  -6.362  0.00  0.00    -0.122 NA
ATOM      3  N   UNL d   1       5.427  10.174  -7.516  0.00  0.00    -0.128 NA
ATOM      4  C   UNL d   1       5.925   9.123  -8.139  0.00  0.00     0.172 A 
ATOM      5  N   UNL d   1       5.699   8.000  -7.356  0.00  0.00    -0.271 N 
ENDROOT
BRANCH   1   6
ATOM      6  S   UNL d   1       4.391   7.455  -4.960  0.00  0.00    -0.080 SA
BRANCH   6   7
ATOM      7  C   UNL d   1       5.218   5.783  -4.880  0.00  0.00     0.185 C 
BRANCH   7   8
ATOM      8  C   UNL d   1       4.467   4.908  -3.882  0.00  0.00     0.232 C 
ATOM      9  N   UNL d   1       4.997   3.639  -3.571  0.00  0.00    -0.324 N 
ATOM     10  H   UNL d   1       5.753   3.281  -4.147  0.00  0.00     0.169 HD
ATOM     11  O   UNL d   1       3.356   5.329  -3.533  0.00  0.00    -0.272 OA
BRANCH   9  12
ATOM     12  C   UNL d   1       4.406   2.685  -2.646  0.00  0.00     0.068 A 
ATOM     13  C   UNL d   1       4.896   1.363  -2.560  0.00  0.00     0.035 A 
ATOM     14  C   UNL d   1       4.258   0.396  -1.736  0.00  0.00     0.039 A 
ATOM     15  C   UNL d   1       3.141   0.737  -0.977  0.00  0.00     0.070 A 
ATOM     16  C   UNL d   1       2.716   2.050  -0.991  0.00  0.00     0.075 A 
ATOM     17  C   UNL d   1       3.348   3.011  -1.776  0.00  0.00     0.097 A 
BRANCH  15  18
ATOM     18  O   UNL d   1       2.569  -0.193  -0.150  0.00  0.00    -0.356 OA
ATOM     19  C   UNL d   1       1.143  -0.084  -0.045  0.00  0.00     0.210 C 
ENDBRANCH  15  18
BRANCH  17  20
ATOM     20  O   UNL d   1       3.065   4.321  -1.567  0.00  0.00    -0.354 OA
ATOM     21  C   UNL d   1       1.838   4.714  -0.989  0.00  0.00     0.210 C 
ENDBRANCH  17  20
ENDBRANCH   9  12
ENDBRANCH   7   8
ENDBRANCH   6   7
ENDBRANCH   1   6
BRANCH   5  22
ATOM     22  C   UNL d   1       6.128   6.713  -7.686  0.00  0.00     0.043 A 
ATOM     23  C   UNL d   1       7.489   6.510  -7.909  0.00  0.00     0.030 A 
ATOM     24  C   UNL d   1       7.898   5.284  -8.403  0.00  0.00     0.002 A 
ATOM     25  C   UNL d   1       6.968   4.254  -8.571  0.00  0.00     0.000 A 
ATOM     26  C   UNL d   1       5.609   4.469  -8.335  0.00  0.00     0.002 A 
ATOM     27  C   UNL d   1       5.174   5.724  -7.937  0.00  0.00     0.030 A 
ENDBRANCH   5  22
BRANCH   4  28
ATOM     28  C   UNL d   1       6.526   9.056  -9.478  0.00  0.00     0.045 A 
ATOM     29  C   UNL d   1       7.719   9.730  -9.761  0.00  0.00     0.018 A 
ATOM     30  C   UNL d   1       8.311   9.611 -11.024  0.00  0.00     0.001 A 
ATOM     31  C   UNL d   1       7.770   8.750 -11.980  0.00  0.00     0.003 A 
ATOM     32  C   UNL d   1       6.605   8.042 -11.702  0.00  0.00     0.037 A 
ATOM     33  C   UNL d   1       5.977   8.221 -10.472  0.00  0.00     0.079 A 
BRANCH  33  34
ATOM     34  O   UNL d   1       4.806   7.553 -10.221  0.00  0.00    -0.360 OA
ATOM     35  H   UNL d   1       4.683   6.856 -10.885  0.00  0.00     0.217 HD
ENDBRANCH  33  34
ENDBRANCH   4  28
TORSDOF 9
