@<TRIPOS>MOLECULE
*****
 52 53 0 0 0
SMALL
GASTEIGER

@<TRIPOS>ATOM
      1 C           1.2420   -0.0464   -0.6462 C.3     1  UNL1        0.0790
      2 O           2.5810   -0.0599   -0.1495 O.3     1  UNL1       -0.4913
      3 C           3.0504    0.8109    0.8169 C.ar    1  UNL1        0.1659
      4 C           4.3201    1.3861    0.5005 C.ar    1  UNL1       -0.0039
      5 C           5.1449    2.0243    1.4690 C.ar    1  UNL1        0.0453
      6 C           6.5883    2.3944    1.1497 C.2     1  UNL1        0.2604
      7 O           7.0329    2.2052    0.0070 O.2     1  UNL1       -0.2687
      8 N           7.3993    2.8933    2.1716 N.am    1  UNL1       -0.2304
      9 N           8.7816    3.1918    1.9490 N.am    1  UNL1       -0.2341
     10 C           9.5322    3.6990    3.0070 C.2     1  UNL1        0.2295
     11 O           9.0423    3.8756    4.1248 O.2     1  UNL1       -0.2743
     12 C          10.9929    4.0232    2.7016 C.3     1  UNL1        0.0336
     13 C          11.7720    4.5773    3.9242 C.3     1  UNL1        0.0326
     14 C          13.2402    4.7995    3.5693 C.2     1  UNL1        0.2177
     15 O          13.6850    4.4027    2.4927 O.2     1  UNL1       -0.2755
     16 N          14.0318    5.4008    4.5460 N.am    1  UNL1       -0.2843
     17 C          15.3829    5.7914    4.2884 C.ar    1  UNL1        0.0520
     18 C          16.3762    5.5143    5.2482 C.ar    1  UNL1       -0.0377
     19 C          17.7045    5.9350    5.0486 C.ar    1  UNL1       -0.0415
     20 C          18.0572    6.5921    3.8726 C.ar    1  UNL1        0.0425
     21 CL         19.6941    7.0340    3.5781 Cl      1  UNL1       -0.0835
     22 C          17.0898    6.8891    2.9228 C.ar    1  UNL1       -0.0232
     23 C          15.7601    6.5083    3.1312 C.ar    1  UNL1        0.0635
     24 CL         14.6228    7.1345    1.9808 Cl      1  UNL1       -0.0816
     25 C           4.6236    2.1895    2.7525 C.ar    1  UNL1       -0.0039
     26 C           3.3765    1.6417    3.0964 C.ar    1  UNL1        0.1659
     27 O           3.0739    1.7986    4.4438 O.3     1  UNL1       -0.4913
     28 C           1.8866    1.1818    4.9536 C.3     1  UNL1        0.0790
     29 C           2.5854    0.9482    2.1376 C.ar    1  UNL1        0.2035
     30 O           1.4694    0.4461    2.7145 O.3     1  UNL1       -0.4885
     31 C           0.4683   -0.2101    2.0263 C.3     1  UNL1        0.0791
     32 H           1.1962   -0.6091   -1.5816 H       1  UNL1        0.0660
     33 H           0.8369    0.9607   -0.7649 H       1  UNL1        0.0660
     34 H           0.5470   -0.6674   -0.0867 H       1  UNL1        0.0660
     35 H           4.6908    1.2922   -0.5223 H       1  UNL1        0.0663
     36 H           7.1008    3.0216    3.1362 H       1  UNL1        0.1731
     37 H           9.1418    3.0173    1.0111 H       1  UNL1        0.1728
     38 H          11.0295    4.7563    1.8857 H       1  UNL1        0.0363
     39 H          11.4812    3.1078    2.3446 H       1  UNL1        0.0363
     40 H          11.7259    3.8634    4.7544 H       1  UNL1        0.0363
     41 H          11.3257    5.5209    4.2607 H       1  UNL1        0.0363
     42 H          13.7284    5.3628    5.5124 H       1  UNL1        0.1548
     43 H          16.1609    4.9190    6.1336 H       1  UNL1        0.0637
     44 H          18.4649    5.7422    5.8042 H       1  UNL1        0.0633
     45 H          17.3559    7.4450    2.0281 H       1  UNL1        0.0647
     46 H           5.1719    2.7093    3.5303 H       1  UNL1        0.0663
     47 H           1.8020    1.3501    6.0271 H       1  UNL1        0.0660
     48 H           1.9154    0.0898    4.8240 H       1  UNL1        0.0660
     49 H           0.9946    1.6381    4.5031 H       1  UNL1        0.0660
     50 H          -0.3530   -0.5144    2.6755 H       1  UNL1        0.0660
     51 H           0.9092   -1.1332    1.6474 H       1  UNL1        0.0660
     52 H           0.0323    0.5152    1.3366 H       1  UNL1        0.0660
@<TRIPOS>BOND
     1     1     2    1
     2     2     3    1
     3     3     4   ar
     4     4     5   ar
     5     5     6    1
     6     6     7    2
     7     6     8   am
     8     8     9    1
     9     9    10   am
    10    10    11    2
    11    10    12    1
    12    12    13    1
    13    13    14    1
    14    14    15    2
    15    14    16   am
    16    16    17    1
    17    17    18   ar
    18    18    19   ar
    19    19    20   ar
    20    20    21    1
    21    20    22   ar
    22    22    23   ar
    23    17    23   ar
    24    23    24    1
    25     5    25   ar
    26    25    26   ar
    27    26    27    1
    28    27    28    1
    29    26    29   ar
    30     3    29   ar
    31    29    30    1
    32    30    31    1
    33     1    32    1
    34     1    33    1
    35     1    34    1
    36     4    35    1
    37     8    36    1
    38     9    37    1
    39    12    38    1
    40    12    39    1
    41    13    40    1
    42    13    41    1
    43    16    42    1
    44    18    43    1
    45    19    44    1
    46    22    45    1
    47    25    46    1
    48    28    47    1
    49    28    48    1
    50    28    49    1
    51    31    50    1
    52    31    51    1
    53    31    52    1
