REMARK  14 active torsions:
REMARK  status: ('A' for Active; 'I' for Inactive)
REMARK    1  A    between atoms: C_2  and  C_3 
REMARK       I    between atoms: C_2  and  N_18 
REMARK    2  A    between atoms: C_3  and  C_4 
REMARK    3  A    between atoms: C_4  and  C_5 
REMARK    4  A    between atoms: C_5  and  C_6 
REMARK    5  A    between atoms: C_6  and  O_8 
REMARK    6  A    between atoms: O_8  and  C_9 
REMARK    7  A    between atoms: C_9  and  C_10 
REMARK    8  A    between atoms: C_10  and  C_11 
REMARK    9  A    between atoms: C_11  and  C_12 
REMARK   10  A    between atoms: N_18  and  N_19 
REMARK       I    between atoms: N_19  and  C_20 
REMARK   11  A    between atoms: C_20  and  C_22 
REMARK   12  A    between atoms: C_22  and  O_23 
REMARK   13  A    between atoms: O_23  and  C_24 
REMARK   14  A    between atoms: C_29  and  C_30 
ROOT
ATOM      1  O   UNL d   1       1.022   0.163  -0.108  0.00  0.00    -0.272 OA
ATOM      2  C   UNL d   1       2.250   0.111  -0.052  0.00  0.00     0.236 C 
ATOM      3  N   UNL d   1       3.000   0.897  -0.895  0.00  0.00    -0.267 N 
ATOM      4  H   UNL d   1       2.494   1.519  -1.530  0.00  0.00     0.190 HD
ENDROOT
BRANCH   3   5
ATOM      5  N   UNL d   1       4.399   1.018  -0.897  0.00  0.00    -0.266 N 
ATOM      6  C   UNL d   1       4.971   1.927  -1.794  0.00  0.00     0.260 C 
ATOM      7  O   UNL d   1       4.289   2.589  -2.574  0.00  0.00    -0.269 OA
ATOM      8  H   UNL d   1       4.956   0.384  -0.337  0.00  0.00     0.190 HD
BRANCH   6   9
ATOM      9  C   UNL d   1       6.508   1.984  -1.730  0.00  0.00     0.280 C 
BRANCH   9  10
ATOM     10  O   UNL d   1       7.064   2.884  -2.690  0.00  0.00    -0.341 OA
BRANCH  10  11
ATOM     11  C   UNL d   1       8.424   2.909  -2.903  0.00  0.00     0.080 A 
ATOM     12  C   UNL d   1       8.959   4.183  -3.153  0.00  0.00     0.037 A 
ATOM     13  C   UNL d   1      10.301   4.350  -3.526  0.00  0.00     0.003 A 
ATOM     14  C   UNL d   1      11.146   3.251  -3.605  0.00  0.00     0.001 A 
ATOM     15  C   UNL d   1      10.630   1.984  -3.363  0.00  0.00     0.015 A 
ATOM     16  C   UNL d   1       9.269   1.791  -3.029  0.00  0.00     0.007 A 
BRANCH  16  17
ATOM     17  C   UNL d   1       8.808   0.416  -2.895  0.00  0.00    -0.023 A 
ATOM     18  C   UNL d   1       9.315  -0.398  -1.871  0.00  0.00     0.012 A 
ATOM     19  C   UNL d   1       8.861  -1.704  -1.732  0.00  0.00     0.001 A 
ATOM     20  C   UNL d   1       7.821  -2.167  -2.540  0.00  0.00     0.000 A 
ATOM     21  C   UNL d   1       7.274  -1.350  -3.528  0.00  0.00     0.001 A 
ATOM     22  C   UNL d   1       7.796  -0.079  -3.736  0.00  0.00     0.012 A 
ENDBRANCH  16  17
ENDBRANCH  10  11
ENDBRANCH   9  10
ENDBRANCH   6   9
ENDBRANCH   3   5
BRANCH   2  23
ATOM     23  C   UNL d   1       2.982  -0.811   0.918  0.00  0.00     0.105 C 
BRANCH  23  24
ATOM     24  C   UNL d   1       2.007  -1.631   1.777  0.00  0.00     0.019 C 
BRANCH  24  25
ATOM     25  C   UNL d   1       2.700  -2.577   2.769  0.00  0.00     0.111 C 
BRANCH  25  26
ATOM     26  C   UNL d   1       1.676  -3.351   3.581  0.00  0.00     0.258 C 
ATOM     27  O   UNL d   1       0.457  -3.233   3.457  0.00  0.00    -0.265 OA
BRANCH  26  28
ATOM     28  O   UNL d   1       2.272  -4.200   4.469  0.00  0.00    -0.321 OA
BRANCH  28  29
ATOM     29  C   UNL d   1       1.333  -4.956   5.258  0.00  0.00     0.179 C 
BRANCH  29  30
ATOM     30  C   UNL d   1       2.082  -5.877   6.217  0.00  0.00     0.031 C 
BRANCH  30  31
ATOM     31  C   UNL d   1       1.106  -6.692   7.063  0.00  0.00     0.041 C 
BRANCH  31  32
ATOM     32  C   UNL d   1       1.785  -7.615   8.042  0.00  0.00    -0.058 A 
ATOM     33  C   UNL d   1       1.629  -9.002   7.928  0.00  0.00     0.007 A 
ATOM     34  C   UNL d   1       2.070  -9.845   8.947  0.00  0.00     0.001 A 
ATOM     35  C   UNL d   1       2.758  -9.319  10.040  0.00  0.00     0.000 A 
ATOM     36  C   UNL d   1       2.982  -7.947  10.127  0.00  0.00     0.001 A 
ATOM     37  C   UNL d   1       2.491  -7.097   9.137  0.00  0.00     0.007 A 
ENDBRANCH  31  32
ENDBRANCH  30  31
ENDBRANCH  29  30
ENDBRANCH  28  29
ENDBRANCH  26  28
ENDBRANCH  25  26
ENDBRANCH  24  25
ENDBRANCH  23  24
ENDBRANCH   2  23
TORSDOF 14
