REMARK  9 active torsions:
REMARK  status: ('A' for Active; 'I' for Inactive)
REMARK    1  A    between atoms: C_4  and  O_5 
REMARK    2  A    between atoms: O_5  and  C_6 
REMARK    3  A    between atoms: C_6  and  C_7 
REMARK       I    between atoms: C_7  and  N_9 
REMARK    4  A    between atoms: N_9  and  N_10 
REMARK    5  A    between atoms: N_10  and  C_11 
REMARK    6  A    between atoms: C_11  and  N_13 
REMARK       I    between atoms: N_13  and  C_14 
REMARK    7  A    between atoms: C_14  and  C_16 
REMARK    8  A    between atoms: C_17  and  C_18 
REMARK    9  A    between atoms: C_21  and  N_22 
ROOT
ATOM      1  N   UNL d   1       8.519   1.845  -0.084  0.00  0.00    -0.273 N 
ATOM      2  H   UNL d   1       8.841   0.878  -0.095  0.00  0.00     0.189 HD
ENDROOT
BRANCH   1   3
ATOM      3  N   UNL d   1       7.058   1.991  -0.060  0.00  0.00    -0.266 N 
ATOM      4  C   UNL d   1       6.216   0.881  -0.055  0.00  0.00     0.260 C 
ATOM      5  O   UNL d   1       6.679  -0.261  -0.073  0.00  0.00    -0.269 OA
ATOM      6  H   UNL d   1       6.720   2.954  -0.046  0.00  0.00     0.190 HD
BRANCH   4   7
ATOM      7  C   UNL d   1       4.682   1.184  -0.027  0.00  0.00     0.280 C 
BRANCH   7   8
ATOM      8  O   UNL d   1       3.904  -0.026  -0.017  0.00  0.00    -0.342 OA
BRANCH   8   9
ATOM      9  C   UNL d   1       2.533   0.059  -0.005  0.00  0.00     0.070 A 
ATOM     10  C   UNL d   1       1.802   1.243   0.007  0.00  0.00     0.045 A 
ATOM     11  C   UNL d   1       0.393   1.232   0.004  0.00  0.00    -0.037 A 
ATOM     12  C   UNL d   1      -0.340   2.546  -0.004  0.00  0.00     0.050 C 
ATOM     13  C   UNL d   1      -0.293   0.004   0.001  0.00  0.00     0.046 A 
ATOM     14  C   UNL d   1       0.421  -1.206   0.000  0.00  0.00    -0.037 A 
ATOM     15 CL   UNL d   1      -2.030  -0.012  -0.004  0.00  0.00    -0.083 Cl
ATOM     16  C   UNL d   1       1.833  -1.160  -0.006  0.00  0.00     0.045 A 
ATOM     17  C   UNL d   1      -0.293  -2.533   0.008  0.00  0.00     0.050 C 
ENDBRANCH   8   9
ENDBRANCH   7   8
ENDBRANCH   4   7
ENDBRANCH   1   3
BRANCH   1  18
ATOM     18  C   UNL d   1       9.322   3.004  -0.085  0.00  0.00     0.193 C 
ATOM     19  S   UNL d   1       8.568   4.516  -0.061  0.00  0.00    -0.039 SA
BRANCH  18  20
ATOM     20  N   UNL d   1      10.728   2.792  -0.105  0.00  0.00    -0.299 N 
ATOM     21  C   UNL d   1      11.718   3.797  -0.101  0.00  0.00     0.247 C 
ATOM     22  O   UNL d   1      11.478   5.008  -0.105  0.00  0.00    -0.268 OA
ATOM     23  H   UNL d   1      11.052   1.835  -0.115  0.00  0.00     0.171 HD
BRANCH  21  24
ATOM     24  C   UNL d   1      13.171   3.394  -0.105  0.00  0.00     0.075 C 
ATOM     25  C   UNL d   1      14.119   4.366  -0.082  0.00  0.00     0.017 C 
BRANCH  25  26
ATOM     26  C   UNL d   1      15.584   4.165  -0.154  0.00  0.00    -0.036 A 
ATOM     27  C   UNL d   1      16.476   4.954   0.600  0.00  0.00     0.014 A 
ATOM     28  C   UNL d   1      17.869   4.818   0.450  0.00  0.00     0.037 A 
ATOM     29  C   UNL d   1      18.376   3.845  -0.418  0.00  0.00     0.102 A 
ATOM     30  C   UNL d   1      17.504   3.074  -1.194  0.00  0.00     0.037 A 
ATOM     31  C   UNL d   1      16.121   3.249  -1.068  0.00  0.00     0.014 A 
BRANCH  29  32
ATOM     32  N   UNL d   1      19.823   3.583  -0.475  0.00  0.00    -0.116 N 
ATOM     33  O   UNL d   1      20.563   4.267   0.244  0.00  0.00    -0.532 OA
ATOM     34  O   UNL d   1      20.213   2.670  -1.219  0.00  0.00    -0.532 OA
ENDBRANCH  29  32
ENDBRANCH  25  26
ENDBRANCH  21  24
ENDBRANCH  18  20
ENDBRANCH   1  18
TORSDOF 9
