REMARK  3 active torsions:
REMARK  status: ('A' for Active; 'I' for Inactive)
REMARK    1  A    between atoms: O_2  and  C_3 
REMARK       I    between atoms: N_11  and  C_12 
REMARK       I    between atoms: C_12  and  N_14 
REMARK    2  A    between atoms: N_14  and  C_15 
REMARK    3  A    between atoms: C_15  and  C_16 
ROOT
ATOM      1  C   UNL d   1       3.075  -0.348   1.211  0.00  0.00     0.068 A 
ATOM      2  C   UNL d   1       2.671  -1.469   1.926  0.00  0.00     0.039 A 
ATOM      3  C   UNL d   1       3.398  -1.909   3.027  0.00  0.00     0.033 A 
ATOM      4  C   UNL d   1       4.519  -1.215   3.452  0.00  0.00     0.045 A 
ATOM      5  C   UNL d   1       4.923  -0.083   2.739  0.00  0.00    -0.027 A 
ATOM      6  C   UNL d   1       4.220   0.349   1.610  0.00  0.00     0.046 A 
ATOM      7  C   UNL d   1       6.113   0.567   3.378  0.00  0.00     0.061 C 
ATOM      8  C   UNL d   1       6.529  -0.496   4.411  0.00  0.00     0.138 C 
ATOM      9  N   UNL d   1       5.406  -1.464   4.528  0.00  0.00    -0.299 N 
ATOM     10  C   UNL d   1       5.396  -2.426   5.524  0.00  0.00     0.323 C 
ATOM     11  O   UNL d   1       6.305  -2.544   6.353  0.00  0.00    -0.247 OA
ATOM     12  N   UNL d   1       4.319  -3.266   5.567  0.00  0.00    -0.338 N 
ATOM     13  H   UNL d   1       3.534  -3.042   5.010  0.00  0.00     0.164 HD
ENDROOT
BRANCH  12  14
ATOM     14  C   UNL d   1       4.129  -4.306   6.540  0.00  0.00     0.166 C 
BRANCH  14  15
ATOM     15  C   UNL d   1       2.872  -5.124   6.293  0.00  0.00     0.004 A 
ATOM     16  C   UNL d   1       1.625  -4.480   6.126  0.00  0.00     0.014 A 
ATOM     17  C   UNL d   1       0.458  -5.218   5.948  0.00  0.00     0.018 A 
ATOM     18  C   UNL d   1       0.547  -6.597   5.941  0.00  0.00     0.089 A 
ATOM     19  N   UNL d   1       1.740  -7.188   6.094  0.00  0.00    -0.352 N 
ATOM     20  C   UNL d   1       2.903  -6.531   6.282  0.00  0.00     0.111 A 
ATOM     21  H   UNL d   1       1.797  -8.202   6.141  0.00  0.00     0.166 HD
ATOM     22  N   UNL d   1       3.972  -7.328   6.580  0.00  0.00    -0.367 N 
ATOM     23  C   UNL d   1       4.694  -8.079   5.544  0.00  0.00     0.124 C 
ATOM     24  C   UNL d   1       4.794  -7.061   7.768  0.00  0.00     0.124 C 
ATOM     25  C   UNL d   1       4.988  -9.466   6.129  0.00  0.00     0.020 C 
ATOM     26  C   UNL d   1       5.742  -9.371   7.464  0.00  0.00     0.003 C 
ATOM     27  C   UNL d   1       5.063  -8.402   8.437  0.00  0.00     0.020 C 
ENDBRANCH  14  15
ENDBRANCH  12  14
BRANCH   1  28
ATOM     28  O   UNL d   1       2.448   0.058   0.066  0.00  0.00    -0.356 OA
ATOM     29  C   UNL d   1       1.023  -0.045   0.085  0.00  0.00     0.210 C 
ENDBRANCH   1  28
TORSDOF 3
