@<TRIPOS>MOLECULE
*****
 42 44 0 0 0
SMALL
GASTEIGER

@<TRIPOS>ATOM
      1 N           1.0636    0.0268    0.0650 N.3     1  UNL1       -0.2078
      2 S           2.7335   -0.1226    0.1043 S.O2    1  UNL1        0.0310
      3 O           3.0887   -0.2019    1.5038 O.2     1  UNL1       -0.1581
      4 O           2.9757   -1.2267   -0.8003 O.2     1  UNL1       -0.1581
      5 C           3.3515    1.4247   -0.6192 C.3     1  UNL1        0.1065
      6 C           4.8714    1.4452   -0.5979 C.ar    1  UNL1       -0.0233
      7 C           5.6591    0.2905   -0.6039 C.ar    1  UNL1       -0.0569
      8 C           7.0317    0.3589   -0.3977 C.ar    1  UNL1       -0.0597
      9 C           7.6724    1.5931   -0.3414 C.ar    1  UNL1       -0.0405
     10 C           6.9432    2.7766   -0.4620 C.ar    1  UNL1        0.0340
     11 N           7.6875    3.9934   -0.4750 N.am    1  UNL1       -0.2814
     12 C           7.1490    5.2448   -0.6482 C.2     1  UNL1        0.2521
     13 O           5.9351    5.4662   -0.6801 O.2     1  UNL1       -0.2697
     14 C           8.0269    6.4663   -0.6146 C.ar    1  UNL1        0.0886
     15 C           7.3180    7.4376    0.2617 C.ar    1  UNL1        0.0315
     16 C           7.6764    8.7852    0.3983 C.ar    1  UNL1        0.2776
     17 N           6.8582    9.8318    1.0317 N.pl3   1  UNL1        0.0797
     18 O           5.8042    9.5053    1.5849 O.2     1  UNL1        0.0414
     19 O           7.2707   11.0020    0.9447 O.co2   1  UNL1       -0.5760
     20 C           8.8295    9.2059   -0.1825 C.ar    1  UNL1        0.0609
     21 C           9.5339    8.3402   -0.9832 C.ar    1  UNL1        0.1693
     22 C           9.2120    6.9098   -1.3039 C.ar    1  UNL1        0.1746
     23 O          10.1608    6.1566   -2.3674 O.3     1  UNL1       -0.4842
     24 C          11.4732    7.0474   -3.0708 C.3     1  UNL1        0.1237
     25 C          11.0155    8.1047   -2.2669 C.3     1  UNL1        0.1237
     26 O          10.6014    9.1066   -1.5340 O.3     1  UNL1       -0.4847
     27 C           5.5398    2.6859   -0.5717 C.ar    1  UNL1       -0.0357
     28 H           0.6915   -0.8009    0.5446 H       1  UNL1        0.1439
     29 H           0.7204    0.0305   -0.8961 H       1  UNL1        0.1439
     30 H           2.9553    2.2342    0.0063 H       1  UNL1        0.0565
     31 H           2.9673    1.5146   -1.6394 H       1  UNL1        0.0565
     32 H           5.2374   -0.7021   -0.7307 H       1  UNL1        0.0621
     33 H           7.5916   -0.5645   -0.2787 H       1  UNL1        0.0618
     34 H           8.7519    1.6064   -0.2387 H       1  UNL1        0.0636
     35 H           8.6794    3.9252   -0.2982 H       1  UNL1        0.1551
     36 H           6.4296    7.1162    0.8220 H       1  UNL1        0.0694
     37 H           9.2046   10.2180   -0.0983 H       1  UNL1        0.0724
     38 H          11.4092    7.4849   -4.0954 H       1  UNL1        0.0731
     39 H          12.5277    6.9558   -2.6993 H       1  UNL1        0.0731
     40 H          11.3561    7.4745   -1.4004 H       1  UNL1        0.0731
     41 H          10.1087    8.0985   -2.9520 H       1  UNL1        0.0731
     42 H           4.9191    3.5755   -0.6290 H       1  UNL1        0.0639
@<TRIPOS>UNITY_ATOM_ATTR
17 1
charge 1
19 1
charge -1
@<TRIPOS>BOND
     1     1     2    1
     2     2     3    2
     3     2     4    2
     4     2     5    1
     5     5     6    1
     6     6     7   ar
     7     7     8   ar
     8     8     9   ar
     9     9    10   ar
    10    10    11    1
    11    11    12   am
    12    12    13    2
    13    12    14    1
    14    14    15   ar
    15    15    16   ar
    16    16    17    1
    17    17    18    2
    18    17    19    1
    19    16    20   ar
    20    20    21   ar
    21    21    22   ar
    22    14    22   ar
    23    22    23    1
    24    23    24    1
    25    24    25    1
    26    25    26    1
    27    21    26    1
    28    10    27   ar
    29     6    27   ar
    30     1    28    1
    31     1    29    1
    32     5    30    1
    33     5    31    1
    34     7    32    1
    35     8    33    1
    36     9    34    1
    37    11    35    1
    38    15    36    1
    39    20    37    1
    40    24    38    1
    41    24    39    1
    42    25    40    1
    43    25    41    1
    44    27    42    1
