@<TRIPOS>MOLECULE
*****
 66 69 0 0 0
SMALL
GASTEIGER

@<TRIPOS>ATOM
      1 C           0.9462   -0.4680   -0.5074 C.3     1  UNL1        0.0788
      2 O           2.3317   -0.2516   -0.2079 O.3     1  UNL1       -0.4942
      3 C           2.9320    0.7648   -0.9124 C.ar    1  UNL1        0.1357
      4 C           4.0465    0.3891   -1.6961 C.ar    1  UNL1       -0.0190
      5 C           4.7357    1.3251   -2.4651 C.ar    1  UNL1       -0.0548
      6 C           4.2743    2.6314   -2.4999 C.ar    1  UNL1       -0.0190
      7 C           3.1974    3.0510   -1.6834 C.ar    1  UNL1        0.1357
      8 O           3.0111    4.4029   -1.8897 O.3     1  UNL1       -0.4942
      9 C           1.9541    5.0641   -1.2279 C.3     1  UNL1        0.0788
     10 C           2.5351    2.1120   -0.8201 C.ar    1  UNL1        0.1200
     11 C           1.3101    2.4671   -0.0149 C.2     1  UNL1        0.2566
     12 O           0.5149    3.1620   -0.5888 O.2     1  UNL1       -0.2695
     13 N           0.8859    1.8244    1.1770 N.am    1  UNL1       -0.2634
     14 C          -0.3689    2.1696    1.7392 C.2     1  UNL1        0.1411
     15 S          -0.9510    3.7689    1.7648 S.2     1  UNL1       -0.0182
     16 N          -1.0799    1.0836    2.2954 N.am    1  UNL1       -0.2966
     17 C          -2.3407    1.2357    2.9674 C.ar    1  UNL1        0.0327
     18 C          -2.5083    0.7619    4.2637 C.ar    1  UNL1       -0.0388
     19 C          -3.7156    1.0103    4.9565 C.ar    1  UNL1       -0.0389
     20 C          -4.7807    1.7477    4.4028 C.ar    1  UNL1        0.0301
     21 N          -5.9257    1.9775    5.1454 N.pl3   1  UNL1       -0.3198
     22 C          -7.2858    1.8408    4.6230 C.3     1  UNL1        0.0525
     23 C          -7.9616    3.2119    4.3565 C.3     1  UNL1       -0.0154
     24 N          -7.9129    4.1230    5.6063 N.4     1  UNL1        0.2407
     25 C          -8.4319    5.5543    5.3111 C.3     1  UNL1       -0.0044
     26 C          -8.4806    6.5376    6.4730 C.ar    1  UNL1        0.0153
     27 C          -9.7126    7.0976    6.8824 C.ar    1  UNL1       -0.0521
     28 C          -9.7579    8.0817    7.8854 C.ar    1  UNL1       -0.0612
     29 C          -8.6195    8.3911    8.6205 C.ar    1  UNL1       -0.0604
     30 C          -7.4092    7.8325    8.2595 C.ar    1  UNL1       -0.0429
     31 C          -7.3289    7.0412    7.1166 C.ar    1  UNL1        0.0492
     32 CL         -5.7255    6.9570    6.4692 Cl      1  UNL1       -0.0831
     33 C          -6.4952    4.1199    6.1791 C.3     1  UNL1       -0.0154
     34 C          -5.8456    2.7453    6.3820 C.3     1  UNL1        0.0525
     35 C          -4.6040    2.1925    3.0934 C.ar    1  UNL1       -0.0389
     36 C          -3.4197    1.9122    2.3819 C.ar    1  UNL1       -0.0388
     37 H           0.5496   -1.0634    0.3217 H       1  UNL1        0.0660
     38 H           0.8055   -0.9743   -1.4587 H       1  UNL1        0.0660
     39 H           0.3318    0.4307   -0.5518 H       1  UNL1        0.0660
     40 H           4.3788   -0.6468   -1.7316 H       1  UNL1        0.0654
     41 H           5.6188    1.0490   -3.0408 H       1  UNL1        0.0620
     42 H           4.7610    3.3476   -3.1672 H       1  UNL1        0.0654
     43 H           1.9805    6.1433   -1.3826 H       1  UNL1        0.0660
     44 H           2.0444    4.9043   -0.1492 H       1  UNL1        0.0660
     45 H           1.0149    4.7683   -1.6984 H       1  UNL1        0.0660
     46 H           1.3400    0.9587    1.4292 H       1  UNL1        0.1568
     47 H          -0.5946    0.2099    2.4627 H       1  UNL1        0.1538
     48 H          -1.6947    0.2675    4.7884 H       1  UNL1        0.0637
     49 H          -3.8311    0.5871    5.9523 H       1  UNL1        0.0637
     50 H          -7.8652    1.3360    5.4083 H       1  UNL1        0.0516
     51 H          -7.3165    1.1894    3.7458 H       1  UNL1        0.0516
     52 H          -9.0188    3.0689    4.1069 H       1  UNL1        0.0830
     53 H          -7.4581    3.7495    3.5473 H       1  UNL1        0.0830
     54 H          -8.5400    3.7273    6.3162 H       1  UNL1        0.2038
     55 H          -9.4481    5.4072    4.9140 H       1  UNL1        0.0868
     56 H          -7.8299    5.9686    4.4953 H       1  UNL1        0.0868
     57 H         -10.6564    6.8453    6.3961 H       1  UNL1        0.0623
     58 H         -10.6767    8.6308    8.0908 H       1  UNL1        0.0618
     59 H          -8.6464    9.1195    9.4271 H       1  UNL1        0.0618
     60 H          -6.5044    8.1025    8.7998 H       1  UNL1        0.0632
     61 H          -6.5652    4.5742    7.1670 H       1  UNL1        0.0830
     62 H          -5.8930    4.6718    5.4550 H       1  UNL1        0.0830
     63 H          -6.3857    2.2145    7.1730 H       1  UNL1        0.0516
     64 H          -4.8168    2.8952    6.7336 H       1  UNL1        0.0516
     65 H          -5.3483    2.8008    2.5893 H       1  UNL1        0.0637
     66 H          -3.3455    2.2675    1.3555 H       1  UNL1        0.0637
@<TRIPOS>UNITY_ATOM_ATTR
24 1
charge 1
@<TRIPOS>BOND
     1     1     2    1
     2     2     3    1
     3     3     4   ar
     4     4     5   ar
     5     5     6   ar
     6     6     7   ar
     7     7     8    1
     8     8     9    1
     9     7    10   ar
    10     3    10   ar
    11    10    11    1
    12    11    12    2
    13    11    13   am
    14    13    14    1
    15    14    15    2
    16    14    16    1
    17    16    17    1
    18    17    18   ar
    19    18    19   ar
    20    19    20   ar
    21    20    21    1
    22    21    22    1
    23    22    23    1
    24    23    24    1
    25    24    25    1
    26    25    26    1
    27    26    27   ar
    28    27    28   ar
    29    28    29   ar
    30    29    30   ar
    31    30    31   ar
    32    26    31   ar
    33    31    32    1
    34    24    33    1
    35    33    34    1
    36    21    34    1
    37    20    35   ar
    38    35    36   ar
    39    17    36   ar
    40     1    37    1
    41     1    38    1
    42     1    39    1
    43     4    40    1
    44     5    41    1
    45     6    42    1
    46     9    43    1
    47     9    44    1
    48     9    45    1
    49    13    46    1
    50    16    47    1
    51    18    48    1
    52    19    49    1
    53    22    50    1
    54    22    51    1
    55    23    52    1
    56    23    53    1
    57    24    54    1
    58    25    55    1
    59    25    56    1
    60    27    57    1
    61    28    58    1
    62    29    59    1
    63    30    60    1
    64    33    61    1
    65    33    62    1
    66    34    63    1
    67    34    64    1
    68    35    65    1
    69    36    66    1
