@<TRIPOS>MOLECULE
*****
 47 48 0 0 0
SMALL
GASTEIGER

@<TRIPOS>ATOM
      1 C         -10.6021   -6.0993   -8.9763 C.3     1  UNL1       -0.0397
      2 C          -9.8821   -6.4927   -7.7227 C.ar    1  UNL1       -0.0501
      3 C          -9.2918   -5.5027   -6.9653 C.ar    1  UNL1       -0.0571
      4 C          -8.6152   -5.8285   -5.7989 C.ar    1  UNL1       -0.0399
      5 C          -8.4816   -7.1370   -5.3072 C.ar    1  UNL1        0.0377
      6 N          -7.7391   -7.3818   -4.0929 N.am    1  UNL1       -0.2689
      7 C          -7.1267   -6.3723   -3.3547 C.2     1  UNL1        0.3102
      8 O          -7.2061   -5.1784   -3.6330 O.2     1  UNL1       -0.2521
      9 N          -6.4092   -6.7565   -2.2538 N.am    1  UNL1       -0.2390
     10 C          -5.8023   -5.8067   -1.4339 C.2     1  UNL1        0.2334
     11 O          -5.8834   -4.5866   -1.6132 O.2     1  UNL1       -0.2741
     12 C          -5.0766   -6.2500   -0.1668 C.3     1  UNL1        0.0836
     13 C          -3.7487   -5.4805   -0.0693 C.3     1  UNL1       -0.0445
     14 S          -4.6521   -7.9919   -0.0925 S.3     1  UNL1       -0.1120
     15 C          -6.1826   -8.9214    0.0014 C.ar    1  UNL1        0.0207
     16 C          -7.4306   -8.2741    0.1383 C.ar    1  UNL1       -0.0476
     17 C          -8.6211   -8.9915    0.2187 C.ar    1  UNL1       -0.0607
     18 C          -8.5913  -10.3723    0.1403 C.ar    1  UNL1       -0.0610
     19 C          -7.3715  -11.0364   -0.0091 C.ar    1  UNL1       -0.0486
     20 C          -6.1530  -10.3348   -0.0967 C.ar    1  UNL1        0.0499
     21 C          -4.8683  -11.0989   -0.3386 C.2     1  UNL1        0.2426
     22 N          -4.9059  -12.4603   -0.3815 N.am    1  UNL1       -0.3253
     23 O          -3.7679  -10.5909   -0.5384 O.2     1  UNL1       -0.2704
     24 C          -9.0900   -8.1601   -6.0664 C.ar    1  UNL1       -0.0290
     25 C          -9.0579   -9.6193   -5.6964 C.3     1  UNL1       -0.0379
     26 C          -9.7790   -7.8180   -7.2726 C.ar    1  UNL1       -0.0542
     27 H         -10.5469   -5.0136   -9.1361 H       1  UNL1        0.0278
     28 H         -11.6607   -6.3619   -8.9072 H       1  UNL1        0.0278
     29 H         -10.1483   -6.5772   -9.8480 H       1  UNL1        0.0278
     30 H          -9.3323   -4.4551   -7.2534 H       1  UNL1        0.0621
     31 H          -8.1975   -4.9621   -5.3101 H       1  UNL1        0.0636
     32 H          -7.6740   -8.3362   -3.7729 H       1  UNL1        0.1564
     33 H          -6.2646   -7.7365   -2.0789 H       1  UNL1        0.1591
     34 H          -5.6873   -5.9820    0.7033 H       1  UNL1        0.0508
     35 H          -3.1122   -5.6740   -0.9424 H       1  UNL1        0.0245
     36 H          -3.1829   -5.7377    0.8339 H       1  UNL1        0.0245
     37 H          -3.9197   -4.3982   -0.0382 H       1  UNL1        0.0245
     38 H          -7.5293   -7.1914    0.1552 H       1  UNL1        0.0629
     39 H          -9.5646   -8.4665    0.3566 H       1  UNL1        0.0618
     40 H          -9.5181  -10.9382    0.1962 H       1  UNL1        0.0618
     41 H          -7.4107  -12.1178   -0.0475 H       1  UNL1        0.0625
     42 H          -5.7140  -13.0458   -0.2705 H       1  UNL1        0.1453
     43 H          -4.0100  -12.9054   -0.5395 H       1  UNL1        0.1453
     44 H          -8.5442   -9.8094   -4.7533 H       1  UNL1        0.0278
     45 H          -8.5403  -10.1958   -6.4712 H       1  UNL1        0.0278
     46 H         -10.0776  -10.0067   -5.5876 H       1  UNL1        0.0278
     47 H         -10.2420   -8.6010   -7.8739 H       1  UNL1        0.0623
@<TRIPOS>BOND
     1     1     2    1
     2     2     3   ar
     3     3     4   ar
     4     4     5   ar
     5     5     6    1
     6     6     7   am
     7     7     8    2
     8     7     9   am
     9     9    10   am
    10    10    11    2
    11    12    14    1
    12    14    15    1
    13    15    16   ar
    14    16    17   ar
    15    17    18   ar
    16    18    19   ar
    17    19    20   ar
    18    15    20   ar
    19    20    21    1
    20    21    22   am
    21    21    23    2
    22     5    24   ar
    23    24    25    1
    24    24    26   ar
    25     2    26   ar
    26    12    13    1
    27    12    10    1
    28     1    27    1
    29     1    28    1
    30     1    29    1
    31     3    30    1
    32     4    31    1
    33     6    32    1
    34     9    33    1
    35    12    34    1
    36    13    35    1
    37    13    36    1
    38    13    37    1
    39    16    38    1
    40    17    39    1
    41    18    40    1
    42    19    41    1
    43    22    42    1
    44    22    43    1
    45    25    44    1
    46    25    45    1
    47    25    46    1
    48    26    47    1
