REMARK  6 active torsions:
REMARK  status: ('A' for Active; 'I' for Inactive)
REMARK    1  A    between atoms: C_2  and  N_5 
REMARK    2  A    between atoms: C_10  and  C_9 
REMARK    3  A    between atoms: C_10  and  N_25 
REMARK    4  A    between atoms: C_10  and  C_11 
REMARK    5  A    between atoms: N_28  and  C_29 
REMARK    6  A    between atoms: C_32  and  O_33 
ROOT
ATOM      1  C   UNL d   1       3.717  -1.311  -2.356  0.00  0.00     0.299 C 
ENDROOT
BRANCH   1   2
ATOM      2  N   UNL d   1       3.371  -2.104  -1.030  0.00  0.00    -0.052 N 
ATOM      3  C   UNL d   1       4.194  -1.657   0.217  0.00  0.00     0.256 C 
ATOM      4  C   UNL d   1       3.576  -1.963   1.570  0.00  0.00     0.150 C 
ATOM      5  N   UNL d   1       2.167  -1.552   1.510  0.00  0.00    -0.378 N 
ATOM      6  C   UNL d   1       1.377  -2.370   0.581  0.00  0.00     0.150 C 
ATOM      7  C   UNL d   1       1.807  -2.027  -0.842  0.00  0.00     0.256 C 
ATOM      8  H   UNL d   1       3.634  -3.082  -1.216  0.00  0.00     0.281 HD
BRANCH   5   9
ATOM      9  C   UNL d   1       1.589  -0.556   2.280  0.00  0.00     0.030 A 
ATOM     10  C   UNL d   1       2.012   0.789   2.340  0.00  0.00     0.032 A 
ATOM     11  C   UNL d   1       1.432   1.725   3.236  0.00  0.00     0.039 A 
ATOM     12  C   UNL d   1       0.364   1.339   4.030  0.00  0.00     0.065 A 
ATOM     13  C   UNL d   1      -0.145   0.058   3.908  0.00  0.00     0.039 A 
ATOM     14  C   UNL d   1       0.486  -0.877   3.077  0.00  0.00     0.032 A 
BRANCH  12  15
ATOM     15  O   UNL d   1      -0.222   2.164   4.942  0.00  0.00    -0.361 OA
ATOM     16  H   UNL d   1       0.292   2.983   5.042  0.00  0.00     0.217 HD
ENDBRANCH  12  15
ENDBRANCH   5   9
ENDBRANCH   1   2
BRANCH   1  17
ATOM     17  C   UNL d   1       3.064   0.057  -2.153  0.00  0.00     0.049 C 
ATOM     18  C   UNL d   1       3.385   0.869  -1.115  0.00  0.00     0.028 C 
ATOM     19  C   UNL d   1       3.160   2.303  -1.041  0.00  0.00    -0.009 C 
ATOM     20  C   UNL d   1       3.889   3.158  -0.163  0.00  0.00     0.035 C 
ATOM     21  C   UNL d   1       2.609   2.812  -2.207  0.00  0.00     0.047 C 
ATOM     22  C   UNL d   1       3.904   4.522  -0.466  0.00  0.00     0.171 C 
ATOM     23  C   UNL d   1       3.756   4.875  -1.782  0.00  0.00     0.093 C 
ATOM     24  O   UNL d   1       3.042   5.470   0.201  0.00  0.00    -0.341 OA
ATOM     25  C   UNL d   1       2.936   4.095  -2.582  0.00  0.00     0.066 C 
ATOM     26  O   UNL d   1       3.611   6.229  -1.948  0.00  0.00    -0.327 OA
ATOM     27  C   UNL d   1       2.629   6.330  -0.920  0.00  0.00     0.346 C 
ATOM     28  N   UNL d   1       2.023   1.981  -3.179  0.00  0.00    -0.322 N 
ATOM     29  C   UNL d   1       2.203   0.629  -3.217  0.00  0.00     0.254 C 
ATOM     30  H   UNL d   1       1.707   2.420  -4.036  0.00  0.00     0.169 HD
ATOM     31  O   UNL d   1       1.861  -0.074  -4.193  0.00  0.00    -0.268 OA
ENDBRANCH   1  17
BRANCH   1  32
ATOM     32  C   UNL d   1       5.217  -1.518  -2.783  0.00  0.00     0.184 A 
ATOM     33  N   UNL d   1       5.726  -2.746  -2.856  0.00  0.00    -0.111 NA
ATOM     34  N   UNL d   1       7.044  -2.632  -3.202  0.00  0.00    -0.023 NA
ATOM     35  N   UNL d   1       7.384  -1.366  -3.340  0.00  0.00    -0.043 NA
ATOM     36  N   UNL d   1       6.258  -0.643  -3.171  0.00  0.00    -0.223 N 
BRANCH  36  37
ATOM     37  C   UNL d   1       6.382   0.804  -3.408  0.00  0.00     0.048 C 
ATOM     38  C   UNL d   1       6.356   1.232  -4.873  0.00  0.00     0.040 C 
ATOM     39  C   UNL d   1       7.332   1.546  -2.433  0.00  0.00     0.040 C 
ATOM     40  C   UNL d   1       5.132   1.456  -3.044  0.00  0.00     0.040 C 
ENDBRANCH  36  37
ENDBRANCH   1  32
TORSDOF 6
