@<TRIPOS>MOLECULE
*****
 35 37 0 0 0
SMALL
GASTEIGER

@<TRIPOS>ATOM
      1 O           1.0724   -0.1495    0.0364 O.2     1  UNL1       -0.2649
      2 C           2.3067   -0.0559    0.0209 C.2     1  UNL1        0.3018
      3 N           3.0480   -0.8312   -0.8651 N.am    1  UNL1       -0.3052
      4 C           2.3719   -1.7490   -1.7710 C.3     1  UNL1        0.0352
      5 C           3.3205   -2.5813   -2.6323 C.3     1  UNL1        0.0597
      6 O           2.6056   -3.4141   -3.5385 O.3     1  UNL1       -0.3935
      7 C           3.0418    0.8112    0.9234 C.ar    1  UNL1        0.3133
      8 N           2.7505    1.0340    2.1831 N.ar    1  UNL1       -0.1876
      9 C           3.6631    1.9910    2.5561 C.ar    1  UNL1        0.1766
     10 C           3.7348    2.5470    3.9502 C.3     1  UNL1        0.0378
     11 C           2.7648    1.8820    4.8876 C.ar    1  UNL1       -0.0150
     12 C           1.6687    2.4546    5.5055 C.ar    1  UNL1        0.0063
     13 N           0.9759    1.4632    6.1510 N.ar    1  UNL1       -0.3604
     14 C           1.6420    0.2642    6.0413 C.ar    1  UNL1        0.0467
     15 C           1.3256   -1.0033    6.5462 C.ar    1  UNL1       -0.0378
     16 C           2.2134   -2.0507    6.2733 C.ar    1  UNL1       -0.0598
     17 C           3.3548   -1.8449    5.5032 C.ar    1  UNL1       -0.0611
     18 C           3.6411   -0.5791    4.9871 C.ar    1  UNL1       -0.0523
     19 C           2.7786    0.5003    5.2701 C.ar    1  UNL1        0.0032
     20 N           4.4964    2.3661    1.5706 N.ar    1  UNL1       -0.0604
     21 O           4.0912    1.5693    0.4816 O.2     1  UNL1       -0.3280
     22 H           4.0596   -0.8262   -0.8053 H       1  UNL1        0.1492
     23 H           1.7015   -1.1632   -2.4117 H       1  UNL1        0.0485
     24 H           1.7233   -2.4135   -1.1852 H       1  UNL1        0.0485
     25 H           3.9628   -3.2149   -2.0120 H       1  UNL1        0.0573
     26 H           3.9684   -1.9270   -3.2235 H       1  UNL1        0.0573
     27 H           2.0619   -4.0332   -3.0206 H       1  UNL1        0.2095
     28 H           3.5344    3.6253    3.9212 H       1  UNL1        0.0394
     29 H           4.7503    2.4234    4.3484 H       1  UNL1        0.0394
     30 H           1.2957    3.4703    5.4979 H       1  UNL1        0.0810
     31 H           0.0967    1.5879    6.6332 H       1  UNL1        0.1653
     32 H           0.4279   -1.1757    7.1303 H       1  UNL1        0.0638
     33 H           2.0072   -3.0434    6.6660 H       1  UNL1        0.0618
     34 H           4.0278   -2.6719    5.2937 H       1  UNL1        0.0618
     35 H           4.5188   -0.4314    4.3659 H       1  UNL1        0.0624
@<TRIPOS>BOND
     1     1     2    2
     2     2     3   am
     3     3     4    1
     4     4     5    1
     5     5     6    1
     6     2     7    1
     7     7     8   ar
     8     8     9   ar
     9     9    10    1
    10    10    11    1
    11    11    12   ar
    12    12    13   ar
    13    13    14   ar
    14    14    15   ar
    15    15    16   ar
    16    16    17   ar
    17    17    18   ar
    18    18    19   ar
    19    11    19   ar
    20    14    19   ar
    21     9    20   ar
    22    20    21   ar
    23     7    21   ar
    24     3    22    1
    25     4    23    1
    26     4    24    1
    27     5    25    1
    28     5    26    1
    29     6    27    1
    30    10    28    1
    31    10    29    1
    32    12    30    1
    33    13    31    1
    34    15    32    1
    35    16    33    1
    36    17    34    1
    37    18    35    1
