@<TRIPOS>MOLECULE
*****
 69 71 0 0 0
SMALL
GASTEIGER

@<TRIPOS>ATOM
      1 C          12.6578    4.5197    2.8999 C.2     1  UNL1       -0.1005
      2 C          12.2111    3.3363    2.4796 C.2     1  UNL1       -0.0658
      3 C          10.7745    3.0690    2.5078 C.3     1  UNL1        0.0657
      4 O          10.5944    1.7053    2.1549 O.3     1  UNL1       -0.3730
      5 C           9.2308    1.5214    2.3697 C.3     1  UNL1        0.0790
      6 C           8.7540    0.1889    1.9651 C.3     1  UNL1        0.1180
      7 O           7.4381    0.2514    2.5348 O.3     1  UNL1       -0.3842
      8 C           9.4755   -1.0122    2.4528 C.3     1  UNL1       -0.0024
      9 N           8.9547   -2.3499    1.8528 N.4     1  UNL1        0.2447
     10 C           7.4070   -2.5871    1.7159 C.3     1  UNL1        0.0278
     11 C           6.5763   -1.4801    1.0306 C.ar    1  UNL1        0.1564
     12 N           7.0849   -0.7552    0.0709 N.ar    1  UNL1       -0.2211
     13 C           6.5565    0.5209    0.0052 C.ar    1  UNL1        0.1166
     14 S           7.4349    1.8523   -0.6430 S.2     1  UNL1       -0.0617
     15 C           6.3301    3.0216   -0.0133 C.ar    1  UNL1        0.1018
     16 C           6.6548    4.4369   -0.2052 C.2     1  UNL1        0.3465
     17 O           7.7855    4.9084   -0.2696 O.2     1  UNL1       -0.2444
     18 O           5.5148    5.1664   -0.3642 O.3     1  UNL1       -0.4581
     19 C           5.6295    6.5284   -0.8237 C.3     1  UNL1        0.0978
     20 C           6.2364    6.5635   -2.2230 C.3     1  UNL1       -0.0280
     21 C           4.2187    7.1198   -0.8843 C.3     1  UNL1       -0.0280
     22 C           5.1808    2.3687    0.4277 C.ar    1  UNL1       -0.0149
     23 C           3.8299    2.9649    0.5780 C.3     1  UNL1       -0.0376
     24 C           5.4187    0.9625    0.6419 C.ar    1  UNL1        0.0756
     25 C           4.6544   -0.0500    1.3430 C.ar    1  UNL1        0.2602
     26 O           3.4682    0.0610    1.6656 O.2     1  UNL1       -0.2671
     27 N           5.3638   -1.1957    1.6372 N.ar    1  UNL1       -0.3061
     28 C           9.6998   -3.4661    2.6125 C.3     1  UNL1       -0.0203
     29 C           9.5336   -3.2450    4.1298 C.3     1  UNL1       -0.0096
     30 C          10.1096   -4.3564    4.9678 C.3     1  UNL1       -0.0480
     31 C           9.5504   -5.6927    4.5298 C.3     1  UNL1       -0.0527
     32 C           9.8284   -5.9433    3.0490 C.3     1  UNL1       -0.0480
     33 C           9.2220   -4.8493    2.1785 C.3     1  UNL1       -0.0096
     34 H          13.7136    4.7390    2.8892 H       1  UNL1        0.0532
     35 H          11.9577    5.2779    3.2449 H       1  UNL1        0.0532
     36 H          12.8725    2.5569    2.1195 H       1  UNL1        0.0589
     37 H          10.2253    3.7083    1.8034 H       1  UNL1        0.0604
     38 H          10.3794    3.2189    3.5232 H       1  UNL1        0.0604
     39 H           8.6643    2.2631    1.7946 H       1  UNL1        0.0588
     40 H           8.9763    1.6803    3.4215 H       1  UNL1        0.0588
     41 H           8.8696    0.1424    0.8806 H       1  UNL1        0.0670
     42 H           7.2991   -0.3466    3.2813 H       1  UNL1        0.2101
     43 H           9.2555   -1.0228    3.5133 H       1  UNL1        0.0841
     44 H          10.5512   -0.9858    2.2537 H       1  UNL1        0.0841
     45 H           9.2811   -2.3614    0.8712 H       1  UNL1        0.2042
     46 H           7.2749   -3.4892    1.1154 H       1  UNL1        0.0897
     47 H           7.0553   -2.7677    2.7383 H       1  UNL1        0.0897
     48 H           6.2269    7.1051   -0.1084 H       1  UNL1        0.0728
     49 H           5.6371    5.9626   -2.9163 H       1  UNL1        0.0265
     50 H           7.2431    6.1394   -2.2410 H       1  UNL1        0.0265
     51 H           6.3004    7.5881   -2.5973 H       1  UNL1        0.0265
     52 H           3.5792    6.5456   -1.5662 H       1  UNL1        0.0265
     53 H           4.2429    8.1581   -1.2323 H       1  UNL1        0.0265
     54 H           3.7329    7.0923    0.0965 H       1  UNL1        0.0265
     55 H           3.7700    3.9960    0.2412 H       1  UNL1        0.0278
     56 H           3.4387    2.9073    1.5937 H       1  UNL1        0.0278
     57 H           3.1856    2.3964   -0.1013 H       1  UNL1        0.0278
     58 H           4.8439   -1.8938    2.1530 H       1  UNL1        0.1702
     59 H          10.7604   -3.3524    2.3424 H       1  UNL1        0.0851
     60 H           8.4737   -3.1123    4.3765 H       1  UNL1        0.0320
     61 H          10.0660   -2.3505    4.4678 H       1  UNL1        0.0320
     62 H           9.8700   -4.1574    6.0183 H       1  UNL1        0.0267
     63 H          11.2014   -4.3429    4.8725 H       1  UNL1        0.0267
     64 H           8.4679   -5.7076    4.7127 H       1  UNL1        0.0265
     65 H           9.9992   -6.4826    5.1361 H       1  UNL1        0.0265
     66 H           9.4000   -6.9072    2.7582 H       1  UNL1        0.0267
     67 H          10.9093   -5.9900    2.8769 H       1  UNL1        0.0267
     68 H           8.1375   -4.9398    2.2860 H       1  UNL1        0.0320
     69 H           9.4630   -5.0207    1.1229 H       1  UNL1        0.0320
@<TRIPOS>UNITY_ATOM_ATTR
9 1
charge 1
@<TRIPOS>BOND
     1     1     2    2
     2     2     3    1
     3     3     4    1
     4     4     5    1
     5     6     8    1
     6    10    11    1
     7    11    12   ar
     8    12    13   ar
     9    13    14   ar
    10    14    15   ar
    11    15    16    1
    12    16    17    2
    13    16    18    1
    14    18    19    1
    15    19    20    1
    16    19    21    1
    17    15    22   ar
    18    22    23    1
    19    22    24   ar
    20    13    24   ar
    21    24    25   ar
    22    25    26    2
    23    25    27   ar
    24    11    27   ar
    25     9    28    1
    26    28    29    1
    27    29    30    1
    28    30    31    1
    29    31    32    1
    30    32    33    1
    31    28    33    1
    32     6     7    1
    33     6     5    1
    34     9    10    1
    35     9     8    1
    36     1    34    1
    37     1    35    1
    38     2    36    1
    39     3    37    1
    40     3    38    1
    41     5    39    1
    42     5    40    1
    43     6    41    1
    44     7    42    1
    45     8    43    1
    46     8    44    1
    47     9    45    1
    48    10    46    1
    49    10    47    1
    50    19    48    1
    51    20    49    1
    52    20    50    1
    53    20    51    1
    54    21    52    1
    55    21    53    1
    56    21    54    1
    57    23    55    1
    58    23    56    1
    59    23    57    1
    60    27    58    1
    61    28    59    1
    62    29    60    1
    63    29    61    1
    64    30    62    1
    65    30    63    1
    66    31    64    1
    67    31    65    1
    68    32    66    1
    69    32    67    1
    70    33    68    1
    71    33    69    1
