@<TRIPOS>MOLECULE
*****
 33 34 0 0 0
SMALL
GASTEIGER

@<TRIPOS>ATOM
      1 C           0.9468    0.1146    0.0887 C.3     1  UNL1       -0.0598
      2 C           2.4628    0.2034    0.1252 C.3     1  UNL1       -0.0131
      3 C           2.9857    0.5325   -1.2253 C.ar    1  UNL1        0.0479
      4 N           2.9483    1.8353   -1.6639 N.ar    1  UNL1       -0.2809
      5 N           3.3582    1.9910   -2.9253 N.ar    1  UNL1       -0.1813
      6 C           3.6910    0.7527   -3.2979 C.ar    1  UNL1        0.0616
      7 C           3.4969   -0.2250   -2.2762 C.ar    1  UNL1        0.0784
      8 C           3.7709   -1.6660   -2.4007 C.2     1  UNL1        0.2634
      9 O           4.2179   -2.1436   -3.4496 O.2     1  UNL1       -0.2685
     10 N           3.5174   -2.4753   -1.3037 N.am    1  UNL1       -0.2300
     11 N           3.7705   -3.8629   -1.3184 N.am    1  UNL1       -0.2301
     12 C           3.4446   -4.5997   -0.1844 C.2     1  UNL1        0.2601
     13 O           2.9496   -4.0935    0.8217 O.2     1  UNL1       -0.2687
     14 C           3.7474   -6.0590   -0.2194 C.ar    1  UNL1        0.0382
     15 C           2.8801   -6.9871    0.3792 C.ar    1  UNL1       -0.0496
     16 C           3.2425   -8.3389    0.4581 C.ar    1  UNL1       -0.0610
     17 C           4.4399   -8.7757   -0.1079 C.ar    1  UNL1       -0.0617
     18 C           5.2998   -7.8567   -0.7076 C.ar    1  UNL1       -0.0610
     19 C           4.9615   -6.5015   -0.7547 C.ar    1  UNL1       -0.0496
     20 H           0.5695   -0.2839    1.0333 H       1  UNL1        0.0233
     21 H           0.6002   -0.5387   -0.7214 H       1  UNL1        0.0233
     22 H           0.5082    1.1052   -0.0718 H       1  UNL1        0.0233
     23 H           2.8647   -0.7321    0.4997 H       1  UNL1        0.0326
     24 H           2.7961    0.9407    0.8624 H       1  UNL1        0.0326
     25 H           2.6229    2.6576   -1.1617 H       1  UNL1        0.1885
     26 H           4.0570    0.6086   -4.3078 H       1  UNL1        0.0855
     27 H           3.1270   -2.1516   -0.4330 H       1  UNL1        0.1731
     28 H           4.1099   -4.2631   -2.1893 H       1  UNL1        0.1731
     29 H           1.9238   -6.6702    0.7909 H       1  UNL1        0.0625
     30 H           2.6029   -9.0528    0.9744 H       1  UNL1        0.0618
     31 H           4.7088   -9.8299   -0.0734 H       1  UNL1        0.0618
     32 H           6.2502   -8.1917   -1.1157 H       1  UNL1        0.0618
     33 H           5.6708   -5.7949   -1.1748 H       1  UNL1        0.0625
@<TRIPOS>BOND
     1     1     2    1
     2     2     3    1
     3     3     4   ar
     4     4     5   ar
     5     5     6   ar
     6     6     7   ar
     7     3     7   ar
     8     7     8    1
     9     8     9    2
    10     8    10   am
    11    10    11    1
    12    11    12   am
    13    12    13    2
    14    12    14    1
    15    14    15   ar
    16    15    16   ar
    17    16    17   ar
    18    17    18   ar
    19    18    19   ar
    20    14    19   ar
    21     1    20    1
    22     1    21    1
    23     1    22    1
    24     2    23    1
    25     2    24    1
    26     4    25    1
    27     6    26    1
    28    10    27    1
    29    11    28    1
    30    15    29    1
    31    16    30    1
    32    17    31    1
    33    18    32    1
    34    19    33    1
