REMARK  4 active torsions:
REMARK  status: ('A' for Active; 'I' for Inactive)
REMARK    1  A    between atoms: C_2  and  N_3 
REMARK       I    between atoms: N_3  and  C_4 
REMARK       I    between atoms: C_4  and  N_6 
REMARK    2  A    between atoms: N_6  and  N_7 
REMARK       I    between atoms: N_7  and  C_8 
REMARK    3  A    between atoms: C_8  and  C_10 
REMARK    4  A    between atoms: C_11  and  C_12 
ROOT
ATOM      1  N   UNL d   1       6.402  -2.877   1.614  0.00  0.00    -0.263 N 
ATOM      2  C   UNL d   1       6.804  -4.051   2.241  0.00  0.00     0.259 C 
ATOM      3  O   UNL d   1       6.003  -4.876   2.683  0.00  0.00    -0.267 OA
ATOM      4  H   UNL d   1       7.039  -2.177   1.238  0.00  0.00     0.190 HD
ENDROOT
BRANCH   2   5
ATOM      5  C   UNL d   1       8.297  -4.263   2.356  0.00  0.00     0.076 C 
ATOM      6  C   UNL d   1       8.833  -5.364   2.933  0.00  0.00     0.017 C 
BRANCH   6   7
ATOM      7  C   UNL d   1      10.291  -5.626   3.082  0.00  0.00    -0.033 A 
ATOM      8  C   UNL d   1      10.831  -6.900   2.819  0.00  0.00     0.014 A 
ATOM      9  C   UNL d   1      12.211  -7.148   2.951  0.00  0.00     0.040 A 
ATOM     10  C   UNL d   1      13.066  -6.135   3.377  0.00  0.00     0.102 A 
ATOM     11  C   UNL d   1      12.543  -4.872   3.660  0.00  0.00     0.102 A 
ATOM     12  O   UNL d   1      14.399  -6.441   3.487  0.00  0.00    -0.346 OA
ATOM     13  C   UNL d   1      11.168  -4.628   3.532  0.00  0.00     0.051 A 
ATOM     14  O   UNL d   1      13.316  -3.817   4.076  0.00  0.00    -0.346 OA
ATOM     15  C   UNL d   1      14.707  -4.049   3.830  0.00  0.00     0.202 C 
ATOM     16  C   UNL d   1      15.111  -5.454   4.244  0.00  0.00     0.202 C 
ENDBRANCH   6   7
ENDBRANCH   2   5
BRANCH   1  17
ATOM     17  N   UNL d   1       4.996  -2.580   1.454  0.00  0.00    -0.249 N 
ATOM     18  C   UNL d   1       4.604  -1.405   0.824  0.00  0.00     0.334 C 
ATOM     19  N   UNL d   1       3.234  -1.221   0.726  0.00  0.00    -0.342 N 
ATOM     20  O   UNL d   1       5.419  -0.592   0.388  0.00  0.00    -0.246 OA
ATOM     21  H   UNL d   1       2.604  -1.915   1.098  0.00  0.00     0.164 HD
ATOM     22  H   UNL d   1       4.350  -3.270   1.825  0.00  0.00     0.192 HD
BRANCH  19  23
ATOM     23  C   UNL d   1       2.663  -0.030   0.087  0.00  0.00     0.120 C 
ATOM     24  C   UNL d   1       1.136   0.005   0.068  0.00  0.00     0.026 C 
ENDBRANCH  19  23
ENDBRANCH   1  17
TORSDOF 4
