REMARK  4 active torsions:
REMARK  status: ('A' for Active; 'I' for Inactive)
REMARK    1  A    between atoms: N_1  and  C_2 
REMARK    2  A    between atoms: C_7  and  N_8 
REMARK       I    between atoms: N_8  and  C_9 
REMARK    3  A    between atoms: C_11  and  C_9 
REMARK    4  A    between atoms: C_13  and  C_14 
ROOT
ATOM      1  C   UNL d   1       1.929  -0.975   2.656  0.00  0.00     0.036 C 
ATOM      2  C   UNL d   1       1.458  -1.067   1.337  0.00  0.00     0.030 C 
ATOM      3  C   UNL d   1       1.261   0.069   0.597  0.00  0.00     0.003 C 
ATOM      4  C   UNL d   1       1.477   1.291   1.197  0.00  0.00     0.014 C 
ATOM      5  C   UNL d   1       2.115   1.480   2.421  0.00  0.00     0.003 A 
ATOM      6  C   UNL d   1       2.487   2.790   2.862  0.00  0.00     0.045 A 
ATOM      7  C   UNL d   1       2.937   2.904   4.196  0.00  0.00     0.030 A 
ATOM      8  C   UNL d   1       3.087   1.767   5.016  0.00  0.00     0.003 A 
ATOM      9  C   UNL d   1       2.777   0.490   4.532  0.00  0.00     0.014 A 
ATOM     10  C   UNL d   1       2.289   0.304   3.217  0.00  0.00     0.003 A 
ENDROOT
BRANCH   6  11
ATOM     11  N   UNL d   1       2.370   4.011   2.052  0.00  0.00    -0.326 N 
ATOM     12  C   UNL d   1       2.268   4.125   0.636  0.00  0.00     0.227 C 
ATOM     13  O   UNL d   1       2.624   3.310  -0.180  0.00  0.00    -0.273 OA
ATOM     14  H   UNL d   1       2.466   4.879   2.560  0.00  0.00     0.169 HD
BRANCH  12  15
ATOM     15  C   UNL d   1       1.427   5.242   0.104  0.00  0.00     0.087 A 
ATOM     16  C   UNL d   1       1.593   6.702   0.387  0.00  0.00     0.025 A 
ATOM     17  C   UNL d   1       1.679   6.193  -1.039  0.00  0.00     0.032 A 
BRANCH  17  18
ATOM     18  C   UNL d   1       2.853   6.499  -1.953  0.00  0.00    -0.053 A 
ATOM     19  C   UNL d   1       4.208   6.251  -1.717  0.00  0.00     0.007 A 
ATOM     20  C   UNL d   1       5.197   6.703  -2.617  0.00  0.00     0.001 A 
ATOM     21  C   UNL d   1       4.854   7.318  -3.824  0.00  0.00     0.000 A 
ATOM     22  C   UNL d   1       3.519   7.526  -4.120  0.00  0.00     0.001 A 
ATOM     23  C   UNL d   1       2.551   7.130  -3.194  0.00  0.00     0.007 A 
ENDBRANCH  17  18
ENDBRANCH  12  15
ENDBRANCH   6  11
BRANCH   1  24
ATOM     24  N   UNL d   1       1.942  -2.167   3.378  0.00  0.00    -0.398 N 
ATOM     25  H   UNL d   1       1.695  -3.025   2.899  0.00  0.00     0.156 HD
ATOM     26  H   UNL d   1       2.322  -2.224   4.307  0.00  0.00     0.156 HD
ENDBRANCH   1  24
TORSDOF 4
