REMARK  5 active torsions:
REMARK  status: ('A' for Active; 'I' for Inactive)
REMARK       I    between atoms: C_2  and  N_3 
REMARK    1  A    between atoms: C_2  and  C_17 
REMARK    2  A    between atoms: N_3  and  N_4 
REMARK    3  A    between atoms: C_5  and  C_6 
REMARK    4  A    between atoms: C_7  and  O_8 
REMARK    5  A    between atoms: C_20  and  O_21 
ROOT
ATOM      1  N   UNL d   1       2.166  -1.043  -2.284  0.00  0.00    -0.183 NA
ATOM      2  C   UNL d   1       2.836  -1.607  -3.245  0.00  0.00     0.153 C 
ENDROOT
BRANCH   1   3
ATOM      3  N   UNL d   1       2.873  -0.556  -1.193  0.00  0.00    -0.243 N 
ATOM      4  C   UNL d   1       2.172  -0.092  -0.073  0.00  0.00     0.271 C 
ATOM      5  O   UNL d   1       0.944  -0.116   0.039  0.00  0.00    -0.266 OA
ATOM      6  H   UNL d   1       3.886  -0.621  -1.183  0.00  0.00     0.192 HD
BRANCH   4   7
ATOM      7  C   UNL d   1       2.964   0.476   1.066  0.00  0.00     0.033 A 
ATOM      8  C   UNL d   1       2.594   0.199   2.398  0.00  0.00     0.020 A 
ATOM      9  C   UNL d   1       3.263   0.804   3.478  0.00  0.00     0.037 A 
ATOM     10  C   UNL d   1       4.290   1.705   3.223  0.00  0.00     0.065 A 
ATOM     11  C   UNL d   1       4.647   2.010   1.913  0.00  0.00     0.037 A 
ATOM     12  C   UNL d   1       3.992   1.397   0.835  0.00  0.00     0.020 A 
BRANCH  10  13
ATOM     13  O   UNL d   1       4.979   2.334   4.220  0.00  0.00    -0.361 OA
ATOM     14  H   UNL d   1       4.655   2.036   5.086  0.00  0.00     0.217 HD
ENDBRANCH  10  13
ENDBRANCH   4   7
ENDBRANCH   1   3
BRANCH   2  15
ATOM     15  C   UNL d   1       2.151  -2.182  -4.451  0.00  0.00     0.027 A 
ATOM     16  C   UNL d   1       1.048  -1.517  -5.004  0.00  0.00     0.078 A 
ATOM     17  C   UNL d   1       0.424  -2.001  -6.155  0.00  0.00     0.038 A 
ATOM     18  C   UNL d   1       0.900  -3.153  -6.779  0.00  0.00     0.015 A 
ATOM     19  C   UNL d   1       1.998  -3.846  -6.253  0.00  0.00    -0.025 A 
ATOM     20  C   UNL d   1       2.457  -5.012  -6.894  0.00  0.00     0.012 A 
ATOM     21  C   UNL d   1       2.636  -3.372  -5.070  0.00  0.00    -0.011 A 
ATOM     22  C   UNL d   1       3.530  -5.734  -6.377  0.00  0.00     0.001 A 
ATOM     23  C   UNL d   1       4.149  -5.302  -5.212  0.00  0.00     0.001 A 
ATOM     24  C   UNL d   1       3.710  -4.141  -4.569  0.00  0.00     0.013 A 
BRANCH  16  25
ATOM     25  O   UNL d   1       0.546  -0.351  -4.492  0.00  0.00    -0.360 OA
ATOM     26  H   UNL d   1       0.942  -0.208  -3.606  0.00  0.00     0.217 HD
ENDBRANCH  16  25
ENDBRANCH   2  15
TORSDOF 5
