REMARK  7 active torsions:
REMARK  status: ('A' for Active; 'I' for Inactive)
REMARK    1  A    between atoms: C_7  and  N_8 
REMARK       I    between atoms: N_8  and  C_9 
REMARK    2  A    between atoms: C_9  and  C_11 
REMARK    3  A    between atoms: C_11  and  N_12 
REMARK    4  A    between atoms: N_12  and  C_13 
REMARK    5  A    between atoms: C_16  and  C_17 
REMARK       I    between atoms: C_17  and  N_19 
REMARK    6  A    between atoms: N_19  and  C_20 
REMARK    7  A    between atoms: C_20  and  C_21 
ROOT
ATOM      1  C   UNL d   1      -1.005   7.508   0.000  0.00  0.00     0.028 A 
ATOM      2  C   UNL d   1      -0.386   8.520  -0.743  0.00  0.00     0.030 A 
ATOM      3  C   UNL d   1      -0.773   9.864  -0.610  0.00  0.00     0.019 A 
ATOM      4  C   UNL d   1      -1.830  10.227   0.235  0.00  0.00     0.032 A 
ATOM      5  C   UNL d   1      -2.429   9.218   1.000  0.00  0.00     0.019 A 
ATOM      6  C   UNL d   1      -2.022   7.881   0.874  0.00  0.00     0.030 A 
ENDROOT
BRANCH   1   7
ATOM      7  N   UNL d   1      -0.617   6.200  -0.180  0.00  0.00    -0.381 N 
ATOM      8  H   UNL d   1       0.382   5.989  -0.083  0.00  0.00     0.160 HD
BRANCH   7   9
ATOM      9  C   UNL d   1      -1.494   5.032  -0.020  0.00  0.00     0.223 C 
BRANCH   9  10
ATOM     10  C   UNL d   1      -0.623   3.769  -0.007  0.00  0.00     0.239 C 
ATOM     11  N   UNL d   1      -1.297   2.546  -0.003  0.00  0.00    -0.325 N 
ATOM     12  H   UNL d   1      -2.310   2.551  -0.007  0.00  0.00     0.169 HD
ATOM     13  O   UNL d   1       0.602   3.921   0.013  0.00  0.00    -0.271 OA
BRANCH  11  14
ATOM     14  C   UNL d   1      -0.663   1.264   0.000  0.00  0.00     0.041 A 
ATOM     15  C   UNL d   1      -1.405   0.064  -0.000  0.00  0.00    -0.035 A 
ATOM     16  C   UNL d   1      -0.716  -1.173  -0.000  0.00  0.00     0.009 A 
ATOM     17  C   UNL d   1      -2.909   0.021  -0.001  0.00  0.00     0.050 C 
ATOM     18  C   UNL d   1       0.679  -1.234   0.003  0.00  0.00     0.007 A 
ATOM     19  C   UNL d   1       1.414  -0.060   0.002  0.00  0.00    -0.060 A 
ATOM     20  C   UNL d   1       2.913  -0.042   0.005  0.00  0.00     0.048 C 
ATOM     21  C   UNL d   1       0.735   1.160   0.001  0.00  0.00     0.037 A 
ENDBRANCH  11  14
ENDBRANCH   9  10
ENDBRANCH   7   9
ENDBRANCH   1   7
BRANCH   4  22
ATOM     22  C   UNL d   1      -2.301  11.659   0.234  0.00  0.00     0.251 C 
ATOM     23  O   UNL d   1      -1.754  12.494  -0.487  0.00  0.00    -0.268 OA
ATOM     24  N   UNL d   1      -3.374  11.977   1.033  0.00  0.00    -0.351 N 
ATOM     25  H   UNL d   1      -3.784  11.269   1.611  0.00  0.00     0.163 HD
BRANCH  24  26
ATOM     26  C   UNL d   1      -3.968  13.309   1.091  0.00  0.00     0.187 C 
BRANCH  26  27
ATOM     27  C   UNL d   1      -5.139  13.283   2.023  0.00  0.00     0.070 A 
ATOM     28  C   UNL d   1      -5.886  12.254   2.567  0.00  0.00     0.036 A 
ATOM     29  C   UNL d   1      -6.872  12.840   3.386  0.00  0.00     0.027 A 
ATOM     30  C   UNL d   1      -6.694  14.198   3.282  0.00  0.00     0.142 A 
ATOM     31  O   UNL d   1      -5.644  14.481   2.460  0.00  0.00    -0.325 OA
ENDBRANCH  26  27
ENDBRANCH  24  26
ENDBRANCH   4  22
TORSDOF 7
