@<TRIPOS>MOLECULE
*****
 37 37 0 0 0
SMALL
GASTEIGER

@<TRIPOS>ATOM
      1 C           1.0997    0.0049    0.0292 C.3     1  UNL1       -0.0627
      2 C           2.6335   -0.0099    0.0514 C.3     1  UNL1       -0.0463
      3 C           3.1094   -0.1598    1.4961 C.3     1  UNL1       -0.0627
      4 C           3.1758   -1.1428   -0.8458 C.3     1  UNL1       -0.0424
      5 C           4.7151   -1.2149   -0.9164 C.3     1  UNL1        0.0256
      6 C           5.2049   -2.3596   -1.8050 C.2     1  UNL1        0.2291
      7 O           4.4412   -3.1228   -2.3976 O.2     1  UNL1       -0.2743
      8 N           6.5844   -2.4968   -1.8960 N.am    1  UNL1       -0.2342
      9 N           7.1107   -3.5431   -2.7068 N.am    1  UNL1       -0.2304
     10 C           8.4831   -3.7471   -2.7963 C.2     1  UNL1        0.2604
     11 O           9.3053   -3.0660   -2.1818 O.2     1  UNL1       -0.2687
     12 C           8.9653   -4.8354   -3.7191 C.ar    1  UNL1        0.0447
     13 C           8.3380   -5.0202   -4.9526 C.ar    1  UNL1       -0.0478
     14 C           8.8323   -5.9585   -5.8685 C.ar    1  UNL1       -0.0361
     15 C           9.9609   -6.7422   -5.5849 C.ar    1  UNL1        0.1178
     16 CL         10.4030   -7.8485   -6.8405 Cl      1  UNL1       -0.0765
     17 C          10.6139   -6.5651   -4.3568 C.ar    1  UNL1        0.2920
     18 N          11.8273   -7.3305   -3.9948 N.pl3   1  UNL1        0.0811
     19 O          12.3288   -7.1036   -2.8849 O.2     1  UNL1        0.0415
     20 O          12.2918   -8.1538   -4.7917 O.co2   1  UNL1       -0.5760
     21 C          10.1137   -5.6054   -3.4267 C.ar    1  UNL1        0.0292
     22 H           0.7080    0.8199    0.6488 H       1  UNL1        0.0232
     23 H           0.6895   -0.9345    0.4166 H       1  UNL1        0.0232
     24 H           0.7187    0.1470   -0.9873 H       1  UNL1        0.0232
     25 H           2.9866    0.9535   -0.3384 H       1  UNL1        0.0296
     26 H           2.7777   -1.1158    1.9157 H       1  UNL1        0.0232
     27 H           2.7154    0.6447    2.1252 H       1  UNL1        0.0232
     28 H           4.1992   -0.1161    1.5658 H       1  UNL1        0.0232
     29 H           2.7757   -1.0111   -1.8602 H       1  UNL1        0.0272
     30 H           2.7828   -2.1027   -0.4857 H       1  UNL1        0.0272
     31 H           5.1289   -1.3768    0.0839 H       1  UNL1        0.0359
     32 H           5.1035   -0.2641   -1.2993 H       1  UNL1        0.0359
     33 H           7.2552   -1.8950   -1.4205 H       1  UNL1        0.1728
     34 H           6.4106   -4.1456   -3.1392 H       1  UNL1        0.1731
     35 H           7.4878   -4.4087   -5.2444 H       1  UNL1        0.0626
     36 H           8.3337   -6.0627   -6.8321 H       1  UNL1        0.0634
     37 H          10.6227   -5.4484   -2.4741 H       1  UNL1        0.0693
@<TRIPOS>UNITY_ATOM_ATTR
18 1
charge 1
20 1
charge -1
@<TRIPOS>BOND
     1     1     2    1
     2     2     3    1
     3     2     4    1
     4     4     5    1
     5     5     6    1
     6     6     7    2
     7     6     8   am
     8     8     9    1
     9     9    10   am
    10    10    11    2
    11    10    12    1
    12    12    13   ar
    13    13    14   ar
    14    14    15   ar
    15    15    16    1
    16    15    17   ar
    17    17    18    1
    18    18    19    2
    19    18    20    1
    20    17    21   ar
    21    12    21   ar
    22     1    22    1
    23     1    23    1
    24     1    24    1
    25     2    25    1
    26     3    26    1
    27     3    27    1
    28     3    28    1
    29     4    29    1
    30     4    30    1
    31     5    31    1
    32     5    32    1
    33     8    33    1
    34     9    34    1
    35    13    35    1
    36    14    36    1
    37    21    37    1
