@<TRIPOS>MOLECULE
*****
 49 50 0 0 0
SMALL
GASTEIGER

@<TRIPOS>ATOM
      1 C           3.3372   -3.2250    2.0125 C.3     1  UNL1       -0.0588
      2 C           2.5565   -2.0076    1.5047 C.3     1  UNL1       -0.0009
      3 C           1.9940   -2.5017    0.1656 C.3     1  UNL1       -0.0588
      4 C           3.1210   -0.5487    1.3847 C.3     1  UNL1        0.1780
      5 O           2.5842    0.2074    0.2410 O.3     1  UNL1       -0.4781
      6 C           1.2308    0.2975   -0.0344 C.ar    1  UNL1        0.1389
      7 C           0.2309   -0.1912    0.8268 C.ar    1  UNL1       -0.0186
      8 C          -1.0753   -0.4244    0.3818 C.ar    1  UNL1       -0.0582
      9 C          -1.4442   -0.0612   -0.9040 C.ar    1  UNL1       -0.0603
     10 C          -0.4891    0.4883   -1.7617 C.ar    1  UNL1       -0.0408
     11 C           0.8489    0.6687   -1.3411 C.ar    1  UNL1        0.0933
     12 C           1.7904    1.1976   -2.2811 C.1     1  UNL1        0.1028
     13 N           2.5014    1.6713   -3.0810 N.1     1  UNL1       -0.1907
     14 C           4.6709   -0.5118    1.3110 C.2     1  UNL1        0.2582
     15 O           5.2473   -0.0836    0.3107 O.2     1  UNL1       -0.2714
     16 N           5.3543   -0.9989    2.4315 N.am    1  UNL1       -0.2824
     17 C           6.7655   -0.9846    2.5205 C.ar    1  UNL1        0.0335
     18 C           7.4796   -2.0348    3.1044 C.ar    1  UNL1       -0.0402
     19 C           8.8798   -1.9453    3.2388 C.ar    1  UNL1       -0.0553
     20 C           9.5883   -0.8359    2.7388 C.ar    1  UNL1       -0.0302
     21 C          11.1017   -0.8426    2.7476 C.3     1  UNL1        0.0383
     22 N          11.7337    0.3226    2.1601 N.am    1  UNL1       -0.2955
     23 C          13.0445    0.5853    2.0090 C.2     1  UNL1        0.2973
     24 N          13.9130   -0.3333    2.4619 N.am    1  UNL1       -0.3134
     25 O          13.4248    1.6244    1.4840 O.2     1  UNL1       -0.2531
     26 C           8.8437    0.2130    2.1939 C.ar    1  UNL1       -0.0553
     27 C           7.4609    0.1329    2.0772 C.ar    1  UNL1       -0.0402
     28 H           2.6217   -4.0639    2.0519 H       1  UNL1        0.0234
     29 H           3.7143   -3.1339    3.0307 H       1  UNL1        0.0234
     30 H           4.1310   -3.5307    1.3251 H       1  UNL1        0.0234
     31 H           1.8045   -1.9155    2.2977 H       1  UNL1        0.0336
     32 H           2.7822   -2.4976   -0.5910 H       1  UNL1        0.0234
     33 H           1.2019   -1.9201   -0.2682 H       1  UNL1        0.0234
     34 H           1.5089   -3.4716    0.2607 H       1  UNL1        0.0234
     35 H           2.8501    0.0569    2.2612 H       1  UNL1        0.0834
     36 H           0.4694   -0.5924    1.8004 H       1  UNL1        0.0654
     37 H          -1.7774   -0.9480    1.0288 H       1  UNL1        0.0619
     38 H          -2.4691   -0.2130   -1.2354 H       1  UNL1        0.0618
     39 H          -0.7942    0.7526   -2.7742 H       1  UNL1        0.0632
     40 H           4.8585   -1.4555    3.1843 H       1  UNL1        0.1549
     41 H           6.9866   -2.9638    3.3823 H       1  UNL1        0.0636
     42 H           9.4194   -2.7578    3.7254 H       1  UNL1        0.0621
     43 H          11.4518   -1.7112    2.1756 H       1  UNL1        0.0512
     44 H          11.4700   -0.9358    3.7749 H       1  UNL1        0.0512
     45 H          11.1717    1.0569    1.7593 H       1  UNL1        0.1506
     46 H          13.6333   -1.2076    2.8692 H       1  UNL1        0.1465
     47 H          14.8965   -0.1383    2.3408 H       1  UNL1        0.1465
     48 H           9.2940    1.1304    1.8364 H       1  UNL1        0.0621
     49 H           6.9360    0.9797    1.6448 H       1  UNL1        0.0636
@<TRIPOS>BOND
     1     1     2    1
     2     2     3    1
     3     5     6    1
     4     6     7   ar
     5     7     8   ar
     6     8     9   ar
     7     9    10   ar
     8    10    11   ar
     9     6    11   ar
    10    11    12    1
    11    12    13    3
    12     4    14    1
    13    14    15    2
    14    14    16   am
    15    16    17    1
    16    17    18   ar
    17    18    19   ar
    18    19    20   ar
    19    20    21    1
    20    21    22    1
    21    22    23   am
    22    23    24   am
    23    23    25    2
    24    20    26   ar
    25    26    27   ar
    26    17    27   ar
    27     4     5    1
    28     4     2    1
    29     1    28    1
    30     1    29    1
    31     1    30    1
    32     2    31    1
    33     3    32    1
    34     3    33    1
    35     3    34    1
    36     4    35    1
    37     7    36    1
    38     8    37    1
    39     9    38    1
    40    10    39    1
    41    16    40    1
    42    18    41    1
    43    19    42    1
    44    21    43    1
    45    21    44    1
    46    22    45    1
    47    24    46    1
    48    24    47    1
    49    26    48    1
    50    27    49    1
