REMARK  7 active torsions:
REMARK  status: ('A' for Active; 'I' for Inactive)
REMARK       I    between atoms: N_1  and  C_2 
REMARK    1  A    between atoms: C_2  and  C_4 
REMARK    2  A    between atoms: C_4  and  S_5 
REMARK    3  A    between atoms: S_5  and  C_6 
REMARK    4  A    between atoms: C_11  and  N_12 
REMARK    5  A    between atoms: N_12  and  C_13 
REMARK    6  A    between atoms: C_13  and  C_14 
REMARK       I    between atoms: C_14  and  N_16 
REMARK    7  A    between atoms: N_16  and  C_17 
ROOT
ATOM      1  N   UNL d   1       7.299  -0.786   2.396  0.00  0.00    -0.380 N 
ATOM      2  H   UNL d   1       8.098  -0.722   3.027  0.00  0.00     0.160 HD
ENDROOT
BRANCH   1   3
ATOM      3  C   UNL d   1       6.849  -2.033   1.977  0.00  0.00     0.045 A 
ATOM      4  C   UNL d   1       7.415  -3.164   2.613  0.00  0.00     0.030 A 
ATOM      5  C   UNL d   1       7.020  -4.469   2.292  0.00  0.00     0.002 A 
ATOM      6  C   UNL d   1       6.047  -4.677   1.326  0.00  0.00     0.002 A 
ATOM      7  C   UNL d   1       5.496  -3.589   0.661  0.00  0.00     0.021 A 
ATOM      8  C   UNL d   1       5.842  -2.272   1.001  0.00  0.00     0.027 A 
BRANCH   8   9
ATOM      9  S   UNL d   1       5.021  -1.025  -0.004  0.00  0.00    -0.118 SA
BRANCH   9  10
ATOM     10  C   UNL d   1       3.266  -1.165   0.507  0.00  0.00     0.182 C 
BRANCH  10  11
ATOM     11  C   UNL d   1       2.507   0.078   0.036  0.00  0.00     0.225 C 
ATOM     12  N   UNL d   1       1.146   0.005   0.067  0.00  0.00    -0.369 N 
ATOM     13  H   UNL d   1       0.638   0.818  -0.262  0.00  0.00     0.159 HD
ATOM     14  H   UNL d   1       0.619  -0.785   0.413  0.00  0.00     0.159 HD
ATOM     15  O   UNL d   1       3.029   1.131  -0.347  0.00  0.00    -0.273 OA
ENDBRANCH  10  11
ENDBRANCH   9  10
ENDBRANCH   8   9
ENDBRANCH   1   3
BRANCH   1  16
ATOM     16  C   UNL d   1       6.903   0.477   1.779  0.00  0.00     0.223 C 
BRANCH  16  17
ATOM     17  C   UNL d   1       7.630   1.662   2.390  0.00  0.00     0.239 C 
ATOM     18  O   UNL d   1       8.498   1.500   3.251  0.00  0.00    -0.271 OA
ATOM     19  N   UNL d   1       7.204   2.904   1.913  0.00  0.00    -0.326 N 
ATOM     20  H   UNL d   1       6.359   2.964   1.351  0.00  0.00     0.169 HD
BRANCH  19  21
ATOM     21  C   UNL d   1       7.856   4.100   2.270  0.00  0.00     0.036 A 
ATOM     22  C   UNL d   1       7.149   5.295   2.420  0.00  0.00     0.031 A 
ATOM     23  C   UNL d   1       7.843   6.476   2.723  0.00  0.00     0.028 A 
ATOM     24  C   UNL d   1       9.233   6.460   2.898  0.00  0.00     0.055 A 
ATOM     25 CL   UNL d   1      10.020   7.929   3.349  0.00  0.00    -0.083 Cl
ATOM     26  C   UNL d   1       9.937   5.269   2.727  0.00  0.00     0.058 A 
ATOM     27 CL   UNL d   1      11.657   5.166   2.826  0.00  0.00    -0.082 Cl
ATOM     28  C   UNL d   1       9.245   4.101   2.421  0.00  0.00     0.055 A 
ENDBRANCH  19  21
ENDBRANCH  16  17
ENDBRANCH   1  16
TORSDOF 7
