@<TRIPOS>MOLECULE
*****
 52 55 0 0 0
SMALL
GASTEIGER

@<TRIPOS>ATOM
      1 O           4.2410   -0.4390    1.9914 O.2     1  UNL1       -0.2754
      2 C           3.7228   -1.4316    1.4783 C.2     1  UNL1        0.2189
      3 N           3.6462   -2.6313    2.1517 N.am    1  UNL1       -0.3107
      4 C           4.2393   -2.9283    3.4356 C.3     1  UNL1        0.0424
      5 C           4.1849   -4.4136    3.8028 C.ar    1  UNL1        0.0333
      6 C           3.5439   -5.4027    3.0441 C.ar    1  UNL1       -0.0438
      7 C           3.4990   -6.7326    3.4704 C.ar    1  UNL1        0.0267
      8 C           4.1044   -7.1020    4.6697 C.ar    1  UNL1        0.2718
      9 N           4.3064   -8.4081    5.0825 N.pl3   1  UNL1       -0.2780
     10 C           3.3734   -9.0248    6.0455 C.3     1  UNL1        0.0173
     11 C           4.1802   -9.4890    7.2673 C.3     1  UNL1       -0.0371
     12 C           5.0498  -10.7315    7.0416 C.3     1  UNL1       -0.0516
     13 C           5.9825  -10.6562    5.8326 C.3     1  UNL1       -0.0516
     14 C           5.2280  -10.6710    4.5065 C.3     1  UNL1       -0.0371
     15 C           4.8237   -9.2849    4.0178 C.3     1  UNL1        0.0173
     16 N           4.7172   -6.1345    5.3700 N.ar    1  UNL1       -0.1978
     17 C           4.7809   -4.8439    4.9893 C.ar    1  UNL1        0.1757
     18 C           3.1114   -1.4100    0.0611 C.3     1  UNL1        0.0640
     19 C           4.0630   -1.2435   -1.1457 C.3     1  UNL1       -0.0131
     20 C           3.6419   -2.3976   -2.0774 C.3     1  UNL1        0.0599
     21 C           4.1898   -3.7117   -1.5455 C.3     1  UNL1       -0.0242
     22 C           3.3009   -3.9335   -0.3419 C.3     1  UNL1       -0.0235
     23 C           2.3834   -2.6959   -0.3465 C.3     1  UNL1        0.0703
     24 O           2.2342   -2.5146   -1.7699 O.3     1  UNL1       -0.3726
     25 H           2.8659   -3.2117    1.9010 H       1  UNL1        0.1490
     26 H           3.6703   -2.3582    4.1757 H       1  UNL1        0.0513
     27 H           5.2763   -2.5715    3.4316 H       1  UNL1        0.0513
     28 H           3.0708   -5.1971    2.0901 H       1  UNL1        0.0625
     29 H           3.0160   -7.4714    2.8347 H       1  UNL1        0.0698
     30 H           2.8352   -9.8755    5.6042 H       1  UNL1        0.0465
     31 H           2.6038   -8.3160    6.3757 H       1  UNL1        0.0465
     32 H           3.4934   -9.7094    8.0940 H       1  UNL1        0.0280
     33 H           4.8254   -8.6685    7.6043 H       1  UNL1        0.0280
     34 H           4.4110  -11.6202    6.9572 H       1  UNL1        0.0266
     35 H           5.6645  -10.8857    7.9379 H       1  UNL1        0.0266
     36 H           6.6413  -11.5320    5.8584 H       1  UNL1        0.0266
     37 H           6.6281   -9.7732    5.9059 H       1  UNL1        0.0266
     38 H           4.3468  -11.3214    4.5741 H       1  UNL1        0.0280
     39 H           5.8677  -11.1135    3.7337 H       1  UNL1        0.0280
     40 H           4.0977   -9.4045    3.2044 H       1  UNL1        0.0465
     41 H           5.7172   -8.8061    3.5963 H       1  UNL1        0.0465
     42 H           5.2048   -6.4484    6.2054 H       1  UNL1        0.4542
     43 H           5.3322   -4.1781    5.6458 H       1  UNL1        0.1379
     44 H           2.4064   -0.5653    0.0374 H       1  UNL1        0.0420
     45 H           5.1259   -1.2679   -0.8923 H       1  UNL1        0.0298
     46 H           3.8534   -0.2959   -1.6580 H       1  UNL1        0.0298
     47 H           3.8265   -2.2462   -3.1425 H       1  UNL1        0.0596
     48 H           5.2440   -3.6259   -1.2603 H       1  UNL1        0.0291
     49 H           4.0793   -4.5534   -2.2332 H       1  UNL1        0.0291
     50 H           3.9718   -4.0649    0.5009 H       1  UNL1        0.0291
     51 H           2.7031   -4.8461   -0.4168 H       1  UNL1        0.0291
     52 H           1.4194   -2.8253    0.1547 H       1  UNL1        0.0603
@<TRIPOS>UNITY_ATOM_ATTR
16 1
charge 1
@<TRIPOS>BOND
     1     1     2    2
     2     2     3   am
     3     3     4    1
     4     4     5    1
     5     5     6   ar
     6     6     7   ar
     7     7     8   ar
     8     8     9    1
     9     9    10    1
    10    10    11    1
    11    11    12    1
    12    12    13    1
    13    13    14    1
    14    14    15    1
    15     9    15    1
    16     8    16   ar
    17    16    17   ar
    18     5    17   ar
    19    18    19    1
    20    19    20    1
    21    20    21    1
    22    21    22    1
    23    22    23    1
    24    18    23    1
    25    23    24    1
    26    20    24    1
    27    18     2    1
    28     3    25    1
    29     4    26    1
    30     4    27    1
    31     6    28    1
    32     7    29    1
    33    10    30    1
    34    10    31    1
    35    11    32    1
    36    11    33    1
    37    12    34    1
    38    12    35    1
    39    13    36    1
    40    13    37    1
    41    14    38    1
    42    14    39    1
    43    15    40    1
    44    15    41    1
    45    16    42    1
    46    17    43    1
    47    18    44    1
    48    19    45    1
    49    19    46    1
    50    20    47    1
    51    21    48    1
    52    21    49    1
    53    22    50    1
    54    22    51    1
    55    23    52    1
