@<TRIPOS>MOLECULE
*****
 53 54 0 0 0
SMALL
GASTEIGER

@<TRIPOS>ATOM
      1 C           6.0754  -10.1756    1.4558 C.3     1  UNL1       -0.0466
      2 C           5.2984   -8.9862    2.0288 C.3     1  UNL1        0.0221
      3 C           4.5369   -9.4348    3.2812 C.3     1  UNL1       -0.0307
      4 C           3.5093  -10.5515    3.0539 C.3     1  UNL1       -0.0260
      5 C           2.8125  -10.9565    4.3311 C.ar    1  UNL1       -0.0473
      6 C           2.7078  -10.0887    5.4279 C.ar    1  UNL1       -0.0586
      7 C           2.2256  -10.5412    6.6485 C.ar    1  UNL1       -0.0615
      8 C           1.7292  -11.8342    6.7556 C.ar    1  UNL1       -0.0617
      9 C           1.7548  -12.6873    5.6529 C.ar    1  UNL1       -0.0615
     10 C           2.3002  -12.2542    4.4456 C.ar    1  UNL1       -0.0586
     11 N           6.1766   -7.8248    2.3323 N.am    1  UNL1       -0.2968
     12 C           5.6559   -6.6268    2.7570 C.2     1  UNL1        0.2999
     13 O           4.4452   -6.4619    2.9408 O.2     1  UNL1       -0.2529
     14 N           6.5540   -5.5901    2.9530 N.am    1  UNL1       -0.2968
     15 C           5.9800   -4.3678    3.5338 C.3     1  UNL1        0.0423
     16 C           6.7850   -3.0704    3.7861 C.3     1  UNL1        0.1046
     17 O           6.6030   -2.1230    2.7241 O.3     1  UNL1       -0.3869
     18 C           8.2713   -3.2038    4.0770 C.3     1  UNL1        0.1169
     19 O           8.4602   -4.1114    5.1539 O.3     1  UNL1       -0.4893
     20 C           9.7498   -4.2678    5.5723 C.ar    1  UNL1        0.1210
     21 C          10.0786   -5.5541    6.0047 C.ar    1  UNL1       -0.0135
     22 C          11.3324   -5.8141    6.5595 C.ar    1  UNL1        0.0190
     23 C          12.2822   -4.7871    6.6178 C.ar    1  UNL1        0.2734
     24 N          13.6454   -5.0844    7.0728 N.pl3   1  UNL1        0.0796
     25 O          13.9000   -6.2469    7.4113 O.2     1  UNL1        0.0414
     26 O          14.4701   -4.1569    7.0615 O.co2   1  UNL1       -0.5760
     27 C          11.9565   -3.4925    6.1953 C.ar    1  UNL1        0.0190
     28 C          10.6828   -3.2343    5.6804 C.ar    1  UNL1       -0.0135
     29 H           5.4077  -11.0046    1.1904 H       1  UNL1        0.0247
     30 H           6.7963  -10.5610    2.1853 H       1  UNL1        0.0247
     31 H           6.6108   -9.9061    0.5435 H       1  UNL1        0.0247
     32 H           4.5687   -8.6480    1.2812 H       1  UNL1        0.0496
     33 H           4.0033   -8.5710    3.6786 H       1  UNL1        0.0286
     34 H           5.2535   -9.7398    4.0560 H       1  UNL1        0.0286
     35 H           4.0222  -11.4445    2.6787 H       1  UNL1        0.0314
     36 H           2.7682  -10.2539    2.3030 H       1  UNL1        0.0314
     37 H           3.0287   -9.0525    5.3689 H       1  UNL1        0.0620
     38 H           2.2546   -9.8802    7.5096 H       1  UNL1        0.0618
     39 H           1.3169  -12.1720    7.7003 H       1  UNL1        0.0618
     40 H           1.3723  -13.6996    5.7405 H       1  UNL1        0.0618
     41 H           2.3456  -12.9399    3.6021 H       1  UNL1        0.0620
     42 H           7.1675   -7.9135    2.1701 H       1  UNL1        0.1505
     43 H           7.5470   -5.7791    2.9777 H       1  UNL1        0.1503
     44 H           5.5159   -4.6604    4.4844 H       1  UNL1        0.0489
     45 H           5.1721   -4.0965    2.8444 H       1  UNL1        0.0489
     46 H           6.3185   -2.5947    4.6625 H       1  UNL1        0.0643
     47 H           6.8735   -2.5453    1.8925 H       1  UNL1        0.2100
     48 H           8.6533   -2.1993    4.3045 H       1  UNL1        0.0723
     49 H           8.7909   -3.5624    3.1819 H       1  UNL1        0.0723
     50 H           9.3531   -6.3588    5.9045 H       1  UNL1        0.0656
     51 H          11.5484   -6.8103    6.9382 H       1  UNL1        0.0686
     52 H          12.6720   -2.6757    6.2700 H       1  UNL1        0.0686
     53 H          10.4428   -2.2149    5.3951 H       1  UNL1        0.0656
@<TRIPOS>UNITY_ATOM_ATTR
24 1
charge 1
26 1
charge -1
@<TRIPOS>BOND
     1     1     2    1
     2     2     3    1
     3     3     4    1
     4     4     5    1
     5     5     6   ar
     6     6     7   ar
     7     7     8   ar
     8     8     9   ar
     9     9    10   ar
    10     5    10   ar
    11     2    11    1
    12    11    12   am
    13    12    13    2
    14    12    14   am
    15    14    15    1
    16    16    18    1
    17    18    19    1
    18    19    20    1
    19    20    21   ar
    20    21    22   ar
    21    22    23   ar
    22    23    24    1
    23    24    25    2
    24    24    26    1
    25    23    27   ar
    26    27    28   ar
    27    20    28   ar
    28    16    17    1
    29    16    15    1
    30     1    29    1
    31     1    30    1
    32     1    31    1
    33     2    32    1
    34     3    33    1
    35     3    34    1
    36     4    35    1
    37     4    36    1
    38     6    37    1
    39     7    38    1
    40     8    39    1
    41     9    40    1
    42    10    41    1
    43    11    42    1
    44    14    43    1
    45    15    44    1
    46    15    45    1
    47    16    46    1
    48    17    47    1
    49    18    48    1
    50    18    49    1
    51    21    50    1
    52    22    51    1
    53    27    52    1
    54    28    53    1
