@<TRIPOS>MOLECULE
*****
 70 72 0 0 0
SMALL
GASTEIGER

@<TRIPOS>ATOM
      1 C           0.8706    0.0273   -0.0007 C.3     1  UNL1       -0.0652
      2 C           2.3750    0.0772   -0.0131 C.3     1  UNL1       -0.0545
      3 C           2.7427    1.4996   -0.3898 C.3     1  UNL1       -0.0376
      4 C           4.2072    1.6275   -0.4418 C.3     1  UNL1        0.0116
      5 N           4.6238    2.9748   -0.8591 N.am    1  UNL1       -0.3135
      6 C           5.9794    3.0454   -0.9431 C.2     1  UNL1        0.2381
      7 O           6.4089    1.9223   -0.8723 O.2     1  UNL1       -0.2734
      8 C           6.8561    4.3801   -1.1015 C.3     1  UNL1        0.1275
      9 C           6.3861    5.4411   -0.0931 C.ar    1  UNL1       -0.0178
     10 C           6.4236    6.8176   -0.3945 C.ar    1  UNL1       -0.0499
     11 C           6.3568    7.7707    0.6185 C.ar    1  UNL1        0.0159
     12 C           6.0458    7.3559    1.9128 C.ar    1  UNL1        0.2732
     13 N           5.7902    8.3551    2.9498 N.pl3   1  UNL1        0.0796
     14 O           5.9203    9.5495    2.6460 O.2     1  UNL1        0.0414
     15 O           5.4236    7.9463    4.0602 O.co2   1  UNL1       -0.5760
     16 C           5.9010    5.9975    2.2142 C.ar    1  UNL1        0.0159
     17 C           6.0996    5.0483    1.2190 C.ar    1  UNL1       -0.0499
     18 N           8.4291    4.3576   -1.0293 N.am    1  UNL1       -0.2830
     19 C           9.2072    3.2285   -0.3870 C.3     1  UNL1        0.0156
     20 C           8.5222    1.9317   -0.2707 C.3     1  UNL1       -0.0400
     21 C           9.1893    0.6192   -0.0512 C.3     1  UNL1       -0.0639
     22 C           9.0829    5.4999   -1.6236 C.2     1  UNL1        0.2574
     23 O           8.4001    6.2978   -2.2815 O.2     1  UNL1       -0.2716
     24 C          10.7065    5.6860   -1.6033 C.3     1  UNL1        0.1924
     25 O          11.2366    5.4396   -0.2916 O.3     1  UNL1       -0.3711
     26 C          11.2784    4.7277   -2.6938 C.ar    1  UNL1       -0.0027
     27 C          10.7398    3.4589   -2.8243 C.ar    1  UNL1       -0.0550
     28 C          11.2770    2.3657   -3.4647 C.ar    1  UNL1       -0.0614
     29 C          12.1779    2.6534   -4.4436 C.ar    1  UNL1       -0.0617
     30 C          12.5778    3.9784   -4.6118 C.ar    1  UNL1       -0.0614
     31 C          12.1346    4.9982   -3.7479 C.ar    1  UNL1       -0.0550
     32 C          11.1775    7.1523   -1.7842 C.ar    1  UNL1       -0.0027
     33 C          12.5248    7.4461   -2.1045 C.ar    1  UNL1       -0.0550
     34 C          12.9520    8.7389   -2.3929 C.ar    1  UNL1       -0.0614
     35 C          12.0565    9.7908   -2.2815 C.ar    1  UNL1       -0.0617
     36 C          10.7626    9.5507   -1.8295 C.ar    1  UNL1       -0.0614
     37 C          10.3378    8.2495   -1.5584 C.ar    1  UNL1       -0.0550
     38 H           0.5173   -0.9684    0.2607 H       1  UNL1        0.0230
     39 H           0.4874    0.3003   -0.9897 H       1  UNL1        0.0230
     40 H           0.4870    0.7521    0.7248 H       1  UNL1        0.0230
     41 H           2.7833   -0.6433   -0.7352 H       1  UNL1        0.0263
     42 H           2.7864   -0.1923    0.9689 H       1  UNL1        0.0263
     43 H           2.3728    2.2172    0.3457 H       1  UNL1        0.0280
     44 H           2.3556    1.7587   -1.3786 H       1  UNL1        0.0280
     45 H           4.6038    0.8672   -1.1421 H       1  UNL1        0.0462
     46 H           4.6533    1.3939    0.5429 H       1  UNL1        0.0462
     47 H           4.0048    3.7667   -0.8970 H       1  UNL1        0.1487
     48 H           6.6050    4.7253   -2.1170 H       1  UNL1        0.0648
     49 H           6.5773    7.1754   -1.4125 H       1  UNL1        0.0623
     50 H           6.5614    8.8139    0.3829 H       1  UNL1        0.0685
     51 H           5.6658    5.6555    3.2178 H       1  UNL1        0.0685
     52 H           6.0403    3.9943    1.4804 H       1  UNL1        0.0623
     53 H           9.6791    3.5351    0.5349 H       1  UNL1        0.0465
     54 H          10.0227    2.8844   -0.9890 H       1  UNL1        0.0465
     55 H           8.1769    1.7794   -1.3065 H       1  UNL1        0.0278
     56 H           7.8388    2.0844    0.5710 H       1  UNL1        0.0278
     57 H           9.7522    0.3309   -0.9432 H       1  UNL1        0.0230
     58 H           8.3915   -0.1251    0.0868 H       1  UNL1        0.0230
     59 H           9.8185    0.6754    0.8269 H       1  UNL1        0.0230
     60 H          11.1480    4.5093   -0.0741 H       1  UNL1        0.2116
     61 H           9.6696    3.3703   -2.6898 H       1  UNL1        0.0621
     62 H          10.8247    1.3907   -3.3153 H       1  UNL1        0.0618
     63 H          12.4432    1.8787   -5.1500 H       1  UNL1        0.0618
     64 H          13.2124    4.2441   -5.4472 H       1  UNL1        0.0618
     65 H          12.4016    6.0116   -4.0242 H       1  UNL1        0.0621
     66 H          13.2650    6.6510   -2.1874 H       1  UNL1        0.0621
     67 H          13.9797    8.9086   -2.7011 H       1  UNL1        0.0618
     68 H          12.3741   10.8006   -2.5164 H       1  UNL1        0.0618
     69 H          10.0688   10.3729   -1.6848 H       1  UNL1        0.0618
     70 H           9.3296    8.1212   -1.1776 H       1  UNL1        0.0621
@<TRIPOS>UNITY_ATOM_ATTR
13 1
charge 1
15 1
charge -1
@<TRIPOS>BOND
     1     1     2    1
     2     2     3    1
     3     3     4    1
     4     4     5    1
     5     5     6   am
     6     6     7    2
     7     6     8    1
     8     8     9    1
     9     9    10   ar
    10    10    11   ar
    11    11    12   ar
    12    12    13    1
    13    13    14    2
    14    13    15    1
    15    12    16   ar
    16    16    17   ar
    17     9    17   ar
    18     8    18    1
    19    18    19    1
    20    19    20    1
    21    20    21    1
    22    18    22   am
    23    22    23    2
    24    22    24    1
    25    24    25    1
    26    24    26    1
    27    26    27   ar
    28    27    28   ar
    29    28    29   ar
    30    29    30   ar
    31    30    31   ar
    32    26    31   ar
    33    24    32    1
    34    32    33   ar
    35    33    34   ar
    36    34    35   ar
    37    35    36   ar
    38    36    37   ar
    39    32    37   ar
    40     1    38    1
    41     1    39    1
    42     1    40    1
    43     2    41    1
    44     2    42    1
    45     3    43    1
    46     3    44    1
    47     4    45    1
    48     4    46    1
    49     5    47    1
    50     8    48    1
    51    10    49    1
    52    11    50    1
    53    16    51    1
    54    17    52    1
    55    19    53    1
    56    19    54    1
    57    20    55    1
    58    20    56    1
    59    21    57    1
    60    21    58    1
    61    21    59    1
    62    25    60    1
    63    27    61    1
    64    28    62    1
    65    29    63    1
    66    30    64    1
    67    31    65    1
    68    33    66    1
    69    34    67    1
    70    35    68    1
    71    36    69    1
    72    37    70    1
