REMARK  7 active torsions:
REMARK  status: ('A' for Active; 'I' for Inactive)
REMARK    1  A    between atoms: C_2  and  C_3 
REMARK       I    between atoms: C_2  and  N_14 
REMARK    2  A    between atoms: C_3  and  C_4 
REMARK    3  A    between atoms: C_4  and  C_5 
REMARK    4  A    between atoms: N_14  and  N_15 
REMARK    5  A    between atoms: C_25  and  S_26 
REMARK    6  A    between atoms: S_26  and  C_27 
REMARK    7  A    between atoms: C_27  and  C_28 
ROOT
ATOM      1  N   UNL d   1       4.627  -1.381   0.727  0.00  0.00    -0.114 NA
ATOM      2  C   UNL d   1       5.159  -2.522   1.383  0.00  0.00     0.253 C 
ATOM      3  O   UNL d   1       4.505  -3.556   1.498  0.00  0.00    -0.272 OA
ATOM      4  C   UNL d   1       6.743  -2.490   1.521  0.00  0.00     0.051 C 
ATOM      5  C   UNL d   1       7.520  -1.340   1.736  0.00  0.00     0.015 C 
ATOM      6  C   UNL d   1       8.851  -1.191   1.230  0.00  0.00     0.001 C 
ATOM      7  C   UNL d   1       9.506  -2.255   0.623  0.00  0.00    -0.001 C 
ATOM      8  C   UNL d   1       8.744  -3.358   0.299  0.00  0.00     0.023 C 
ATOM      9  C   UNL d   1       7.329  -3.251   0.525  0.00  0.00     0.253 C 
ATOM     10  N   UNL d   1       6.432  -2.738  -0.784  0.00  0.00     0.135 N 
ATOM     11  C   UNL d   1       5.591  -1.197  -0.321  0.00  0.00     0.386 C 
ATOM     12  H   UNL d   1       5.974  -3.719  -0.638  0.00  0.00     0.321 HD
ENDROOT
BRANCH   1  13
ATOM     13  N   UNL d   1       3.130  -1.400   0.353  0.00  0.00    -0.279 N 
ATOM     14  C   UNL d   1       2.251  -0.353   0.118  0.00  0.00     0.232 C 
ATOM     15  O   UNL d   1       1.023  -0.444   0.147  0.00  0.00    -0.272 OA
ATOM     16  H   UNL d   1       2.616  -2.177   0.755  0.00  0.00     0.184 HD
BRANCH  14  17
ATOM     17  C   UNL d   1       2.769   0.924  -0.288  0.00  0.00     0.108 C 
BRANCH  17  18
ATOM     18  C   UNL d   1       1.716   1.898  -0.569  0.00  0.00     0.046 C 
BRANCH  18  19
ATOM     19  C   UNL d   1       2.743   2.894  -0.742  0.00  0.00    -0.050 A 
ATOM     20  C   UNL d   1       2.227   4.402  -0.379  0.00  0.00    -0.006 A 
ATOM     21  C   UNL d   1       0.991   5.107   0.016  0.00  0.00     0.014 C 
ATOM     22  C   UNL d   1       3.081   5.515  -1.490  0.00  0.00     0.038 A 
ATOM     23  C   UNL d   1       0.721   6.448  -0.017  0.00  0.00     0.001 C 
ATOM     24  C   UNL d   1       1.527   7.531  -0.468  0.00  0.00     0.002 C 
ATOM     25  C   UNL d   1       2.602   7.176  -1.119  0.00  0.00     0.030 C 
ATOM     26  N   UNL d   1       4.133   4.773  -2.699  0.00  0.00    -0.385 N 
ATOM     27  C   UNL d   1       4.115   2.775  -2.368  0.00  0.00     0.155 A 
ATOM     28  H   UNL d   1       5.047   5.047  -3.085  0.00  0.00     0.160 HD
ENDBRANCH  18  19
ENDBRANCH  17  18
ENDBRANCH  14  17
ENDBRANCH   1  13
BRANCH  11  29
ATOM     29  S   UNL d   1       5.404   0.464  -1.301  0.00  0.00    -0.112 SA
BRANCH  29  30
ATOM     30  C   UNL d   1       5.320   2.503  -0.422  0.00  0.00     0.115 C 
BRANCH  30  31
ATOM     31  C   UNL d   1       4.237   4.017  -1.033  0.00  0.00    -0.050 A 
ATOM     32  C   UNL d   1       2.643   3.837  -2.333  0.00  0.00    -0.013 A 
ATOM     33  C   UNL d   1       2.023   4.930  -3.315  0.00  0.00     0.028 A 
ATOM     34  C   UNL d   1       2.987   6.436  -3.323  0.00  0.00     0.067 A 
ATOM     35  C   UNL d   1       4.532   6.747  -2.235  0.00  0.00     0.100 A 
ATOM     36  F   UNL d   1       4.804   7.946  -1.678  0.00  0.00    -0.210 F 
ATOM     37  C   UNL d   1       5.114   5.533  -0.992  0.00  0.00     0.045 A 
ENDBRANCH  30  31
ENDBRANCH  29  30
ENDBRANCH  11  29
TORSDOF 7
