REMARK  7 active torsions:
REMARK  status: ('A' for Active; 'I' for Inactive)
REMARK    1  A    between atoms: O_2  and  C_3 
REMARK    2  A    between atoms: C_6  and  N_7 
REMARK       I    between atoms: N_7  and  C_8 
REMARK       I    between atoms: C_8  and  N_21 
REMARK       I    between atoms: N_9  and  C_10 
REMARK    3  A    between atoms: C_10  and  C_12 
REMARK    4  A    between atoms: C_16  and  N_17 
REMARK    5  A    between atoms: N_21  and  C_22 
REMARK    6  A    between atoms: C_22  and  C_23 
REMARK    7  A    between atoms: C_23  and  C_24 
ROOT
ATOM      1  N   UNL d   1       5.384  -4.002  -2.242  0.00  0.00    -0.190 N 
ATOM      2  C   UNL d   1       4.964  -4.640  -3.431  0.00  0.00     0.704 C 
ATOM      3  N   UNL d   1       3.967  -4.380  -4.232  0.00  0.00    -0.023 NA
ATOM      4  C   UNL d   1       2.861  -3.796  -3.673  0.00  0.00     0.294 C 
ATOM      5  O   UNL d   1       2.359  -4.191  -2.643  0.00  0.00    -0.265 OA
ATOM      6  N   UNL d   1       5.730  -5.742  -3.846  0.00  0.00    -0.224 N 
ATOM      7  H   UNL d   1       5.994  -4.530  -1.633  0.00  0.00     0.184 HD
ATOM      8  H   UNL d   1       6.327  -6.216  -3.177  0.00  0.00     0.177 HD
ENDROOT
BRANCH   1   9
ATOM      9  C   UNL d   1       4.825  -2.851  -1.587  0.00  0.00     0.049 C 
ATOM     10  C   UNL d   1       5.033  -2.491  -0.259  0.00  0.00     0.033 C 
ATOM     11  C   UNL d   1       4.205  -1.511   0.378  0.00  0.00     0.039 C 
ATOM     12  C   UNL d   1       3.096  -0.956  -0.262  0.00  0.00     0.068 C 
ATOM     13  C   UNL d   1       2.946  -1.262  -1.583  0.00  0.00     0.039 C 
ATOM     14  C   UNL d   1       3.972  -1.974  -2.229  0.00  0.00     0.033 C 
BRANCH  12  15
ATOM     15  O   UNL d   1       2.367   0.016   0.359  0.00  0.00    -0.356 OA
ATOM     16  C   UNL d   1       0.960   0.039   0.098  0.00  0.00     0.210 C 
ENDBRANCH  12  15
ENDBRANCH   1   9
BRANCH   6  17
ATOM     17  C   UNL d   1       5.256  -6.548  -5.004  0.00  0.00     0.142 C 
BRANCH  17  18
ATOM     18  C   UNL d   1       6.108  -7.769  -5.318  0.00  0.00     0.057 C 
BRANCH  18  19
ATOM     19  C   UNL d   1       5.789  -8.564  -6.566  0.00  0.00    -0.048 A 
ATOM     20  C   UNL d   1       6.556  -9.604  -6.899  0.00  0.00    -0.006 A 
ATOM     21  C   UNL d   1       7.692 -10.149  -6.248  0.00  0.00     0.014 A 
ATOM     22  C   UNL d   1       6.059 -10.126  -8.177  0.00  0.00     0.038 A 
ATOM     23  C   UNL d   1       8.382 -11.108  -6.869  0.00  0.00     0.001 A 
ATOM     24  C   UNL d   1       7.914 -11.679  -8.121  0.00  0.00     0.002 A 
ATOM     25  C   UNL d   1       6.817 -11.247  -8.782  0.00  0.00     0.030 A 
ATOM     26  N   UNL d   1       5.019  -9.488  -8.564  0.00  0.00    -0.385 N 
ATOM     27  C   UNL d   1       4.708  -8.373  -7.601  0.00  0.00     0.155 A 
ATOM     28  H   UNL d   1       4.504  -9.738  -9.409  0.00  0.00     0.160 HD
ENDBRANCH  18  19
ENDBRANCH  17  18
ENDBRANCH   6  17
BRANCH   4  29
ATOM     29  C   UNL d   1       2.034  -2.898  -4.536  0.00  0.00     0.036 A 
ATOM     30  C   UNL d   1       1.968  -1.503  -4.651  0.00  0.00     0.017 A 
ATOM     31  C   UNL d   1       0.806  -0.919  -5.146  0.00  0.00     0.003 A 
ATOM     32  C   UNL d   1      -0.220  -1.735  -5.625  0.00  0.00     0.029 A 
ATOM     33  C   UNL d   1      -0.158  -3.135  -5.551  0.00  0.00     0.030 A 
ATOM     34  C   UNL d   1       0.991  -3.660  -4.994  0.00  0.00     0.046 A 
BRANCH  33  35
ATOM     35  N   UNL d   1      -1.152  -3.997  -5.948  0.00  0.00    -0.390 N 
ATOM     36  C   UNL d   1      -2.374  -3.518  -6.562  0.00  0.00     0.149 C 
ATOM     37  C   UNL d   1      -1.069  -5.444  -5.738  0.00  0.00     0.149 C 
ENDBRANCH  33  35
ENDBRANCH   4  29
TORSDOF 7
