REMARK  12 active torsions:
REMARK  status: ('A' for Active; 'I' for Inactive)
REMARK    1  A    between atoms: C_2  and  N_3 
REMARK    2  A    between atoms: N_3  and  C_4 
REMARK    3  A    between atoms: N_3  and  C_6 
REMARK    4  A    between atoms: C_6  and  C_7 
REMARK    5  A    between atoms: C_7  and  N_8 
REMARK       I    between atoms: N_8  and  C_9 
REMARK    6  A    between atoms: C_9  and  C_11 
REMARK    7  A    between atoms: C_14  and  N_15 
REMARK    8  A    between atoms: N_15  and  C_16 
REMARK    9  A    between atoms: C_16  and  N_18 
REMARK       I    between atoms: N_18  and  C_19 
REMARK   10  A    between atoms: C_19  and  C_21 
REMARK   11  A    between atoms: C_23  and  N_24 
REMARK   12  A    between atoms: C_28  and  N_29 
ROOT
ATOM      1  N   UNL d   1      12.949   4.013  -0.824  0.00  0.00    -0.333 N 
ATOM      2  H   UNL d   1      13.467   4.707  -0.290  0.00  0.00     0.168 HD
ENDROOT
BRANCH   1   3
ATOM      3  C   UNL d   1      11.492   4.125  -0.690  0.00  0.00     0.034 A 
ATOM      4  C   UNL d   1      10.853   5.085   0.113  0.00  0.00     0.030 A 
ATOM      5  C   UNL d   1       9.432   5.060   0.292  0.00  0.00     0.019 A 
ATOM      6  C   UNL d   1       8.635   4.106  -0.359  0.00  0.00     0.032 A 
ATOM      7  C   UNL d   1       9.245   3.199  -1.183  0.00  0.00     0.019 A 
ATOM      8  C   UNL d   1      10.616   3.265  -1.355  0.00  0.00     0.030 A 
BRANCH   6   9
ATOM      9  C   UNL d   1       7.152   4.120  -0.359  0.00  0.00     0.251 C 
ATOM     10  N   UNL d   1       6.529   2.872  -0.372  0.00  0.00    -0.355 N 
ATOM     11  H   UNL d   1       7.092   2.037  -0.253  0.00  0.00     0.162 HD
ATOM     12  O   UNL d   1       6.537   5.167  -0.389  0.00  0.00    -0.268 OA
BRANCH  10  13
ATOM     13  C   UNL d   1       5.086   2.818  -0.366  0.00  0.00     0.150 C 
BRANCH  13  14
ATOM     14  C   UNL d   1       4.512   1.401  -0.219  0.00  0.00     0.254 C 
BRANCH  14  15
ATOM     15  N   UNL d   1       2.969   1.374  -0.159  0.00  0.00    -0.070 N 
ATOM     16  H   UNL d   1       2.630   1.784  -1.042  0.00  0.00     0.279 HD
BRANCH  15  17
ATOM     17  C   UNL d   1       2.521  -0.086  -0.115  0.00  0.00     0.230 C 
ATOM     18  C   UNL d   1       1.024  -0.271  -0.256  0.00  0.00     0.034 C 
ENDBRANCH  15  17
BRANCH  15  19
ATOM     19  C   UNL d   1       2.477   2.232   0.999  0.00  0.00     0.230 C 
ATOM     20  C   UNL d   1       0.981   2.444   1.033  0.00  0.00     0.034 C 
ENDBRANCH  15  19
ENDBRANCH  14  15
ENDBRANCH  13  14
ENDBRANCH  10  13
ENDBRANCH   6   9
ENDBRANCH   1   3
BRANCH   1  21
ATOM     21  C   UNL d   1      13.669   2.978  -1.506  0.00  0.00     0.179 C 
ATOM     22  S   UNL d   1      12.979   1.653  -2.301  0.00  0.00    -0.040 SA
BRANCH  21  23
ATOM     23  N   UNL d   1      15.080   3.087  -1.487  0.00  0.00    -0.299 N 
ATOM     24  C   UNL d   1      15.927   2.201  -2.199  0.00  0.00     0.258 C 
ATOM     25  O   UNL d   1      15.595   1.252  -2.906  0.00  0.00    -0.267 OA
ATOM     26  H   UNL d   1      15.513   3.824  -0.948  0.00  0.00     0.171 HD
BRANCH  24  27
ATOM     27  C   UNL d   1      17.388   2.290  -2.144  0.00  0.00     0.037 A 
ATOM     28  C   UNL d   1      18.099   1.936  -3.317  0.00  0.00     0.053 A 
ATOM     29  C   UNL d   1      19.468   1.669  -3.249  0.00  0.00     0.106 A 
ATOM     30  C   UNL d   1      20.154   1.847  -2.045  0.00  0.00     0.072 A 
ATOM     31  C   UNL d   1      19.424   2.167  -0.887  0.00  0.00     0.106 A 
ATOM     32  C   UNL d   1      18.037   2.368  -0.921  0.00  0.00     0.053 A 
BRANCH  29  33
ATOM     33  N   UNL d   1      20.171   1.081  -4.402  0.00  0.00    -0.116 N 
ATOM     34  O   UNL d   1      19.517   0.863  -5.429  0.00  0.00    -0.532 OA
ATOM     35  O   UNL d   1      21.371   0.814  -4.258  0.00  0.00    -0.532 OA
ENDBRANCH  29  33
BRANCH  31  36
ATOM     36  N   UNL d   1      20.109   2.219   0.406  0.00  0.00    -0.116 N 
ATOM     37  O   UNL d   1      21.334   2.052   0.414  0.00  0.00    -0.532 OA
ATOM     38  O   UNL d   1      19.412   2.435   1.407  0.00  0.00    -0.532 OA
ENDBRANCH  31  36
ENDBRANCH  24  27
ENDBRANCH  21  23
ENDBRANCH   1  21
TORSDOF 12
