REMARK  5 active torsions:
REMARK  status: ('A' for Active; 'I' for Inactive)
REMARK       I    between atoms: C_2  and  N_4 
REMARK    1  A    between atoms: N_4  and  N_5 
REMARK    2  A    between atoms: N_5  and  C_6 
REMARK    3  A    between atoms: C_6  and  C_7 
REMARK    4  A    between atoms: C_6  and  C_18 
REMARK    5  A    between atoms: C_7  and  C_9 
ROOT
ATOM      1  C   UNL d   1       5.100   1.863   1.729  0.00  0.00     0.184 C 
ENDROOT
BRANCH   1   2
ATOM      2  N   UNL d   1       4.543   1.004   0.641  0.00  0.00    -0.221 NA
ATOM      3  H   UNL d   1       5.132   1.090  -0.192  0.00  0.00     0.147 HD
BRANCH   2   4
ATOM      4  N   UNL d   1       3.215   1.310   0.175  0.00  0.00    -0.291 N 
ATOM      5  C   UNL d   1       2.595   0.335  -0.624  0.00  0.00     0.227 C 
ATOM      6  C   UNL d   1       1.094   0.491  -0.757  0.00  0.00     0.118 C 
ATOM      7  O   UNL d   1       3.191  -0.628  -1.121  0.00  0.00    -0.273 OA
ATOM      8  H   UNL d   1       2.588   1.789   0.820  0.00  0.00     0.183 HD
ENDBRANCH   2   4
ENDBRANCH   1   2
BRANCH   1   9
ATOM      9  C   UNL d   1       4.584   1.449   3.179  0.00  0.00     0.185 C 
ATOM     10  O   UNL d   1       5.362   1.315   4.145  0.00  0.00    -0.290 OA
BRANCH   9  11
ATOM     11  C   UNL d   1       3.153   1.391   3.479  0.00  0.00     0.040 C 
ATOM     12  C   UNL d   1       2.501   2.076   4.492  0.00  0.00     0.104 C 
ATOM     13  N   UNL d   1       1.156   1.818   4.392  0.00  0.00    -0.364 N 
ATOM     14  C   UNL d   1       0.936   0.864   3.426  0.00  0.00     0.043 C 
ATOM     15  H   UNL d   1       0.442   2.178   5.012  0.00  0.00     0.165 HD
ATOM     16  C   UNL d   1      -0.248   0.293   2.940  0.00  0.00     0.030 C 
ATOM     17  C   UNL d   1       2.194   0.466   2.980  0.00  0.00     0.006 C 
ATOM     18  C   UNL d   1      -0.124  -0.766   2.031  0.00  0.00     0.002 C 
ATOM     19  C   UNL d   1       1.128  -1.270   1.677  0.00  0.00     0.001 C 
ATOM     20  C   UNL d   1       2.289  -0.661   2.151  0.00  0.00     0.014 C 
ENDBRANCH   9  11
ENDBRANCH   1   9
BRANCH   1  21
ATOM     21  C   UNL d   1       6.652   1.862   1.711  0.00  0.00    -0.031 A 
ATOM     22  C   UNL d   1       7.415   1.010   0.892  0.00  0.00     0.009 A 
ATOM     23  C   UNL d   1       8.802   0.916   1.038  0.00  0.00     0.001 A 
ATOM     24  C   UNL d   1       9.465   1.718   1.959  0.00  0.00     0.000 A 
ATOM     25  C   UNL d   1       8.741   2.603   2.751  0.00  0.00     0.001 A 
ATOM     26  C   UNL d   1       7.351   2.684   2.620  0.00  0.00     0.009 A 
ENDBRANCH   1  21
TORSDOF 5
