REMARK  9 active torsions:
REMARK  status: ('A' for Active; 'I' for Inactive)
REMARK    1  A    between atoms: C_2  and  C_5 
REMARK    2  A    between atoms: C_7  and  N_8 
REMARK       I    between atoms: N_8  and  C_9 
REMARK       I    between atoms: C_9  and  N_11 
REMARK    3  A    between atoms: N_11  and  C_12 
REMARK    4  A    between atoms: C_12  and  C_13 
REMARK    5  A    between atoms: C_15  and  C_12 
REMARK    6  A    between atoms: C_13  and  O_14 
REMARK    7  A    between atoms: C_15  and  C_17 
REMARK    8  A    between atoms: C_15  and  O_16 
REMARK    9  A    between atoms: C_20  and  N_21 
ROOT
ATOM      1  C   UNK d   1       3.089  -9.617  -1.440  0.00  0.00     0.143 C 
ENDROOT
BRANCH   1   2
ATOM      2  N   UNK d   1       3.196 -10.635  -2.547  0.00  0.00    -0.333 N 
ATOM      3  C   UNK d   0       3.050 -11.992  -2.349  0.00  0.00     0.322 C 
ATOM      4  N   UNK d   0       2.806 -12.754  -3.482  0.00  0.00    -0.291 N 
ATOM      5  O   UNK d   0       3.000 -12.463  -1.240  0.00  0.00    -0.247 OA
ATOM      6  H   UNK d   0       3.312 -12.606  -4.339  0.00  0.00     0.172 HD
ATOM      7  H   UNK d   1       3.698 -10.348  -3.376  0.00  0.00     0.164 HD
BRANCH   4   8
ATOM      8  C   UNK d   0       2.213 -14.018  -3.323  0.00  0.00     0.161 A 
ATOM      9  C   UNK d   0       1.437 -14.411  -2.222  0.00  0.00     0.088 A 
ATOM     10  C   UNK d   0       1.122 -15.727  -2.379  0.00  0.00     0.090 A 
ATOM     11  O   UNK d   0       1.616 -16.122  -3.589  0.00  0.00    -0.215 OA
ATOM     12  N   UNK d   0       2.271 -15.028  -4.205  0.00  0.00    -0.110 NA
BRANCH  10  13
ATOM     13  C   UNK d   0       0.437 -16.661  -1.408  0.00  0.00     0.000 C 
ATOM     14  C   UNK d   0       1.362 -16.861  -0.186  0.00  0.00     0.021 C 
ATOM     15  C   UNK d   0       0.099 -18.027  -2.007  0.00  0.00     0.021 C 
ATOM     16  C   UNK d   0      -0.873 -16.009  -0.901  0.00  0.00     0.021 C 
ENDBRANCH  10  13
ENDBRANCH   4   8
ENDBRANCH   1   2
BRANCH   1  17
ATOM     17  C   UNK d   1       3.930  -9.887  -0.140  0.00  0.00     0.192 C 
BRANCH  17  18
ATOM     18  O   UNK d   1       3.642 -11.005   0.680  0.00  0.00    -0.399 OA
ATOM     19  H   UNK d   1       2.692 -11.037   0.848  0.00  0.00     0.209 HD
ENDBRANCH  17  18
ENDBRANCH   1  17
BRANCH   1  20
ATOM     20  C   UNK d   1       1.612  -9.061  -1.153  0.00  0.00     0.176 C 
BRANCH  20  21
ATOM     21  C   UNK d   1       0.821  -9.875  -0.133  0.00  0.00    -0.028 C 
ATOM     22  C   UNK d   1       0.470  -9.418   1.145  0.00  0.00     0.012 C 
ATOM     23  C   UNK d   1       0.220 -10.334   2.182  0.00  0.00     0.037 C 
ATOM     24  C   UNK d   1       0.298 -11.706   1.928  0.00  0.00     0.102 C 
ATOM     25  C   UNK d   1       0.544 -12.149   0.639  0.00  0.00     0.037 C 
ATOM     26  C   UNK d   1       0.651 -11.230  -0.404  0.00  0.00     0.012 C 
BRANCH  24  27
ATOM     27  N   UNK d   1       0.064 -12.697   2.981  0.00  0.00    -0.116 N 
ATOM     28  O   UNK d   1      -0.323 -12.279   4.080  0.00  0.00    -0.532 OA
ATOM     29  O   UNK d   1       0.227 -13.894   2.699  0.00  0.00    -0.532 OA
ENDBRANCH  24  27
ENDBRANCH  20  21
BRANCH  20  30
ATOM     30  O   UNK d   1       1.706  -7.688  -0.735  0.00  0.00    -0.389 OA
ATOM     31  H   UNK d   1       2.156  -7.657   0.126  0.00  0.00     0.210 HD
ENDBRANCH  20  30
ENDBRANCH   1  20
TORSDOF 9
