@<TRIPOS>MOLECULE
*****
 44 46 0 0 0
SMALL
GASTEIGER

@<TRIPOS>ATOM
      1 O           1.0633   -0.1501    0.0305 O.2     1  UNL1       -0.2749
      2 C           2.2952   -0.0409    0.0760 C.2     1  UNL1        0.2233
      3 C           3.0516    1.2209    0.5622 C.3     1  UNL1        0.0776
      4 S           1.8709    2.4971    1.0854 S.3     1  UNL1       -0.0750
      5 C           2.7875    3.9238    1.4969 C.ar    1  UNL1        0.2105
      6 N           3.9292    3.9374    2.1955 N.ar    1  UNL1       -0.1443
      7 N           4.0900    5.2709    2.4066 N.ar    1  UNL1       -0.2446
      8 C           3.0855    6.0121    1.8334 C.ar    1  UNL1        0.2317
      9 N           3.0220    7.3779    1.8917 N.pl3   1  UNL1       -0.2053
     10 N           1.9451    8.0328    1.3407 N.2     1  UNL1       -0.1845
     11 C           1.9277    9.3288    1.2776 C.2     1  UNL1        0.0878
     12 C           0.7842    9.9872    0.6865 C.ar    1  UNL1        0.1471
     13 C          -0.5594    9.6663    0.7271 C.ar    1  UNL1       -0.0149
     14 C          -1.2374   10.5968   -0.0937 C.ar    1  UNL1       -0.0233
     15 C          -0.2697   11.4373   -0.5912 C.ar    1  UNL1        0.0926
     16 O           0.9570   11.1029   -0.0946 O.2     1  UNL1       -0.4620
     17 N           2.2559    5.1663    1.2633 N.ar    1  UNL1       -0.1865
     18 N           3.0185   -1.1315   -0.3410 N.am    1  UNL1       -0.3143
     19 C           4.4528   -1.2238   -0.3597 C.3     1  UNL1        0.0156
     20 C           5.0168   -2.5626   -0.8457 C.3     1  UNL1       -0.0121
     21 C           6.5327   -2.5757   -0.8789 C.ar    1  UNL1       -0.0459
     22 C           7.3005   -1.4780   -0.4537 C.ar    1  UNL1       -0.0585
     23 C           8.6784   -1.4482   -0.6357 C.ar    1  UNL1       -0.0615
     24 C           9.3276   -2.5580   -1.1581 C.ar    1  UNL1       -0.0617
     25 C           8.5922   -3.6819   -1.5326 C.ar    1  UNL1       -0.0615
     26 C           7.2007   -3.6898   -1.4035 C.ar    1  UNL1       -0.0585
     27 H           3.6717    1.5905   -0.2613 H       1  UNL1        0.0475
     28 H           3.6903    0.9407    1.4053 H       1  UNL1        0.0475
     29 H           4.8832    5.5919    2.9472 H       1  UNL1        0.1919
     30 H           3.7384    7.9209    2.3685 H       1  UNL1        0.1774
     31 H           2.7473    9.9632    1.6579 H       1  UNL1        0.0883
     32 H          -0.9826    8.8436    1.2857 H       1  UNL1        0.0656
     33 H          -2.2970   10.6358   -0.3085 H       1  UNL1        0.0649
     34 H          -0.2998   12.2764   -1.2752 H       1  UNL1        0.1029
     35 H           2.4549   -1.9192   -0.6443 H       1  UNL1        0.1487
     36 H           4.7898   -1.0292    0.6636 H       1  UNL1        0.0465
     37 H           4.8096   -0.4128   -1.0051 H       1  UNL1        0.0465
     38 H           4.6497   -2.7573   -1.8631 H       1  UNL1        0.0328
     39 H           4.6544   -3.3814   -0.2111 H       1  UNL1        0.0328
     40 H           6.8503   -0.6060    0.0115 H       1  UNL1        0.0620
     41 H           9.2324   -0.5499   -0.3781 H       1  UNL1        0.0618
     42 H          10.4073   -2.5443   -1.2698 H       1  UNL1        0.0618
     43 H           9.1039   -4.5459   -1.9476 H       1  UNL1        0.0618
     44 H           6.6429   -4.5658   -1.7288 H       1  UNL1        0.0620
@<TRIPOS>BOND
     1     1     2    2
     2     2     3    1
     3     3     4    1
     4     4     5    1
     5     5     6   ar
     6     6     7   ar
     7     7     8   ar
     8     8     9    1
     9     9    10    1
    10    10    11    2
    11    11    12    1
    12    12    13   ar
    13    13    14   ar
    14    14    15   ar
    15    15    16   ar
    16    12    16   ar
    17     8    17   ar
    18     5    17   ar
    19     2    18   am
    20    18    19    1
    21    19    20    1
    22    20    21    1
    23    21    22   ar
    24    22    23   ar
    25    23    24   ar
    26    24    25   ar
    27    25    26   ar
    28    21    26   ar
    29     3    27    1
    30     3    28    1
    31     7    29    1
    32     9    30    1
    33    11    31    1
    34    13    32    1
    35    14    33    1
    36    15    34    1
    37    18    35    1
    38    19    36    1
    39    19    37    1
    40    20    38    1
    41    20    39    1
    42    22    40    1
    43    23    41    1
    44    24    42    1
    45    25    43    1
    46    26    44    1
