REMARK  8 active torsions:
REMARK  status: ('A' for Active; 'I' for Inactive)
REMARK    1  A    between atoms: C_4  and  N_5 
REMARK    2  A    between atoms: N_8  and  C_9 
REMARK    3  A    between atoms: C_9  and  C_10 
REMARK       I    between atoms: C_10  and  N_12 
REMARK    4  A    between atoms: N_12  and  C_13 
REMARK    5  A    between atoms: C_13  and  C_14 
REMARK    6  A    between atoms: C_19  and  O_20 
REMARK    7  A    between atoms: O_20  and  C_21 
REMARK    8  A    between atoms: C_28  and  C_29 
ROOT
ATOM      1  N   UNL d   1       5.206   2.435   0.050  0.00  0.00    -0.362 N 
ATOM      2  C   UNL d   1       4.917   3.299   1.203  0.00  0.00     0.152 C 
ATOM      3  C   UNL d   1       4.530   4.702   0.678  0.00  0.00     0.255 C 
ATOM      4  N   UNL d   1       5.625   5.296  -0.215  0.00  0.00    -0.060 N 
ATOM      5  C   UNL d   1       6.127   4.279  -1.286  0.00  0.00     0.255 C 
ATOM      6  C   UNL d   1       6.415   2.862  -0.672  0.00  0.00     0.152 C 
ATOM      7  H   UNL d   1       6.451   5.528   0.361  0.00  0.00     0.280 HD
ENDROOT
BRANCH   4   8
ATOM      8  C   UNL d   1       5.185   6.664  -0.835  0.00  0.00     0.337 C 
BRANCH   8   9
ATOM      9  C   UNL d   1       6.306   7.365  -1.617  0.00  0.00     0.243 C 
ATOM     10  O   UNL d   1       7.456   6.958  -1.525  0.00  0.00    -0.272 OA
ATOM     11  N   UNL d   1       5.932   8.426  -2.427  0.00  0.00    -0.355 N 
ATOM     12  H   UNL d   1       5.114   8.980  -2.197  0.00  0.00     0.162 HD
BRANCH  11  13
ATOM     13  C   UNL d   1       6.975   9.110  -3.173  0.00  0.00     0.164 C 
BRANCH  13  14
ATOM     14  C   UNL d   1       6.627  10.503  -3.630  0.00  0.00    -0.007 C 
ATOM     15  C   UNL d   1       5.971  10.567  -4.884  0.00  0.00     0.011 C 
ATOM     16  C   UNL d   1       5.803  11.769  -5.568  0.00  0.00     0.001 C 
ATOM     17  C   UNL d   1       6.157  12.956  -4.950  0.00  0.00     0.003 C 
ATOM     18  C   UNL d   1       6.669  12.928  -3.650  0.00  0.00     0.037 C 
ATOM     19  C   UNL d   1       6.970  11.714  -2.991  0.00  0.00     0.086 C 
BRANCH  19  20
ATOM     20  O   UNL d   1       7.595  11.942  -1.793  0.00  0.00    -0.255 OA
BRANCH  20  21
ATOM     21  C   UNL d   1       8.128  10.894  -1.008  0.00  0.00     0.530 C 
ATOM     22  F   UNL d   1       7.152  10.018  -0.667  0.00  0.00    -0.144 F 
ATOM     23  F   UNL d   1       9.132  10.262  -1.650  0.00  0.00    -0.144 F 
ATOM     24  F   UNL d   1       8.633  11.378   0.145  0.00  0.00    -0.144 F 
ENDBRANCH  20  21
ENDBRANCH  19  20
ENDBRANCH  13  14
ENDBRANCH  11  13
ENDBRANCH   8   9
ENDBRANCH   4   8
BRANCH   1  25
ATOM     25  C   UNL d   1       4.582   1.204  -0.034  0.00  0.00     0.129 A 
ATOM     26  C   UNL d   1       3.190   1.169  -0.023  0.00  0.00     0.075 A 
ATOM     27  C   UNL d   1       2.506  -0.048  -0.026  0.00  0.00     0.010 A 
ATOM     28  C   UNL d   1       1.012  -0.113  -0.028  0.00  0.00     0.068 C 
ATOM     29  N   UNL d   1       3.216  -1.185  -0.023  0.00  0.00    -0.348 N 
ATOM     30  C   UNL d   1       4.561  -1.138  -0.061  0.00  0.00     0.110 A 
ATOM     31  H   UNL d   1       2.741  -2.088  -0.005  0.00  0.00     0.167 HD
ATOM     32  N   UNL d   1       5.262   0.050  -0.090  0.00  0.00    -0.218 NA
BRANCH  30  33
ATOM     33  C   UNL d   1       5.299  -2.468  -0.049  0.00  0.00     0.047 C 
ATOM     34  C   UNL d   1       4.930  -3.320  -1.269  0.00  0.00     0.017 C 
ATOM     35  C   UNL d   1       6.811  -2.263  -0.006  0.00  0.00     0.017 C 
ENDBRANCH  30  33
ENDBRANCH   1  25
TORSDOF 8
