@<TRIPOS>MOLECULE
*****
 49 50 0 0 0
SMALL
GASTEIGER

@<TRIPOS>ATOM
      1 C           1.1068    0.0103    0.0383 C.3     1  UNL1        0.0788
      2 O           2.5282   -0.0105   -0.0631 O.3     1  UNL1       -0.4951
      3 C           3.1521    1.2055    0.0070 C.ar    1  UNL1        0.1203
      4 C           4.3097    1.3534   -0.7557 C.ar    1  UNL1       -0.0165
      5 C           5.0826    2.5238   -0.6547 C.ar    1  UNL1       -0.0165
      6 C           4.6771    3.5905    0.1610 C.ar    1  UNL1        0.1214
      7 O           5.4623    4.7166    0.1296 O.3     1  UNL1       -0.4827
      8 C           5.0309    5.8922    0.8381 C.3     1  UNL1        0.1666
      9 C           5.9720    7.1107    0.5824 C.2     1  UNL1        0.2667
     10 O           6.9375    7.0642   -0.1838 O.2     1  UNL1       -0.2705
     11 N           5.6692    8.2829    1.2736 N.am    1  UNL1       -0.2304
     12 N           6.4815    9.4523    1.0793 N.am    1  UNL1       -0.2181
     13 C           6.1221   10.6305    1.7070 C.2     1  UNL1        0.3160
     14 O           5.1294   10.6919    2.4381 O.2     1  UNL1       -0.2513
     15 N           6.9555   11.7011    1.4705 N.am    1  UNL1       -0.2977
     16 C           6.8427   12.9765    2.1983 C.3     1  UNL1        0.0185
     17 C           7.6749   13.0048    3.5146 C.3     1  UNL1       -0.0165
     18 C           9.1271   12.6245    3.2009 C.3     1  UNL1       -0.0581
     19 C           7.6114   14.3793    4.2195 C.3     1  UNL1       -0.0462
     20 C           6.2427   14.4127    4.8936 C.3     1  UNL1       -0.0525
     21 C           5.8792   12.9510    5.1535 C.3     1  UNL1       -0.0525
     22 C           7.0364   12.1177    4.5953 C.3     1  UNL1       -0.0462
     23 C           3.5259    3.4279    0.9282 C.ar    1  UNL1       -0.0165
     24 C           2.7728    2.2421    0.8573 C.ar    1  UNL1       -0.0165
     25 H           0.7554   -1.0269    0.0641 H       1  UNL1        0.0660
     26 H           0.6776    0.4911   -0.8458 H       1  UNL1        0.0660
     27 H           0.7439    0.4869    0.9533 H       1  UNL1        0.0660
     28 H           4.6116    0.5582   -1.4353 H       1  UNL1        0.0655
     29 H           6.0118    2.5893   -1.2174 H       1  UNL1        0.0655
     30 H           5.0344    5.6784    1.9132 H       1  UNL1        0.0795
     31 H           4.0209    6.1729    0.5128 H       1  UNL1        0.0795
     32 H           4.8817    8.4034    1.9096 H       1  UNL1        0.1729
     33 H           7.2719    9.3537    0.4475 H       1  UNL1        0.1744
     34 H           7.7918   11.5613    0.9212 H       1  UNL1        0.1503
     35 H           5.7836   13.1746    2.3942 H       1  UNL1        0.0468
     36 H           7.1977   13.7720    1.5297 H       1  UNL1        0.0468
     37 H           9.5578   13.3236    2.4735 H       1  UNL1        0.0236
     38 H           9.1913   11.6188    2.7730 H       1  UNL1        0.0236
     39 H           9.7622   12.6358    4.0920 H       1  UNL1        0.0236
     40 H           7.7544   15.2278    3.5433 H       1  UNL1        0.0271
     41 H           8.3847   14.4513    4.9986 H       1  UNL1        0.0271
     42 H           5.5051   14.8736    4.2265 H       1  UNL1        0.0265
     43 H           6.2538   15.0003    5.8179 H       1  UNL1        0.0265
     44 H           4.9411   12.7104    4.6395 H       1  UNL1        0.0265
     45 H           5.7256   12.7511    6.2182 H       1  UNL1        0.0265
     46 H           6.6882   11.1546    4.2233 H       1  UNL1        0.0271
     47 H           7.7500   11.8937    5.3966 H       1  UNL1        0.0271
     48 H           3.1920    4.1945    1.6166 H       1  UNL1        0.0655
     49 H           1.9084    2.1490    1.5049 H       1  UNL1        0.0655
@<TRIPOS>BOND
     1     1     2    1
     2     2     3    1
     3     3     4   ar
     4     4     5   ar
     5     5     6   ar
     6     6     7    1
     7     7     8    1
     8     8     9    1
     9     9    10    2
    10     9    11   am
    11    11    12    1
    12    12    13   am
    13    13    14    2
    14    13    15   am
    15    15    16    1
    16    16    17    1
    17    17    18    1
    18    17    19    1
    19    19    20    1
    20    20    21    1
    21    21    22    1
    22    17    22    1
    23     6    23   ar
    24    23    24   ar
    25     3    24   ar
    26     1    25    1
    27     1    26    1
    28     1    27    1
    29     4    28    1
    30     5    29    1
    31     8    30    1
    32     8    31    1
    33    11    32    1
    34    12    33    1
    35    15    34    1
    36    16    35    1
    37    16    36    1
    38    18    37    1
    39    18    38    1
    40    18    39    1
    41    19    40    1
    42    19    41    1
    43    20    42    1
    44    20    43    1
    45    21    44    1
    46    21    45    1
    47    22    46    1
    48    22    47    1
    49    23    48    1
    50    24    49    1
