REMARK  10 active torsions:
REMARK  status: ('A' for Active; 'I' for Inactive)
REMARK    1  A    between atoms: C_7  and  N_8 
REMARK       I    between atoms: N_8  and  C_9 
REMARK    2  A    between atoms: C_20  and  N_8 
REMARK    3  A    between atoms: C_9  and  C_11 
REMARK    4  A    between atoms: C_14  and  C_15 
REMARK       I    between atoms: C_15  and  N_16 
REMARK    5  A    between atoms: C_18  and  N_19 
REMARK    6  A    between atoms: C_20  and  C_29 
REMARK    7  A    between atoms: C_20  and  C_21 
REMARK       I    between atoms: C_21  and  N_23 
REMARK    8  A    between atoms: N_23  and  C_24 
REMARK    9  A    between atoms: C_24  and  C_25 
REMARK   10  A    between atoms: C_25  and  C_26 
ROOT
ATOM      1  N   UNL d   1       0.204   3.804  -1.367  0.00  0.00    -0.295 N 
ATOM      2  C   UNL d   1       0.916   2.426  -1.762  0.00  0.00     0.269 C 
ATOM      3  O   UNL d   1       0.527   1.405  -1.192  0.00  0.00    -0.266 OA
ENDROOT
BRANCH   1   4
ATOM      4  C   UNL d   1       0.531   5.182  -1.925  0.00  0.00     0.045 C 
ATOM      5  C   UNL d   1       1.080   5.486  -3.158  0.00  0.00    -0.035 C 
ATOM      6  C   UNL d   1       1.619   6.719  -3.581  0.00  0.00     0.009 C 
ATOM      7  C   UNL d   1       1.103   4.468  -4.176  0.00  0.00     0.050 C 
ATOM      8  C   UNL d   1       1.350   7.854  -2.882  0.00  0.00     0.007 C 
ATOM      9  C   UNL d   1       0.542   7.703  -1.790  0.00  0.00    -0.060 C 
ATOM     10  C   UNL d   1      -0.031   8.907  -1.121  0.00  0.00     0.048 C 
ATOM     11  C   UNL d   1       0.141   6.391  -1.412  0.00  0.00     0.037 C 
ENDBRANCH   1   4
BRANCH   1  12
ATOM     12  C   UNL d   1      -0.703   3.717  -0.035  0.00  0.00     0.218 C 
BRANCH  12  13
ATOM     13  C   UNL d   1      -1.787   4.863   0.320  0.00  0.00    -0.026 C 
ATOM     14  C   UNL d   1      -3.162   4.680   0.015  0.00  0.00     0.013 C 
ATOM     15  C   UNL d   1      -4.095   5.719   0.012  0.00  0.00     0.043 C 
ATOM     16  C   UNL d   1      -3.647   7.003   0.187  0.00  0.00     0.116 C 
ATOM     17  F   UNL d   1      -4.455   8.040  -0.065  0.00  0.00    -0.206 F 
ATOM     18  C   UNL d   1      -2.350   7.214   0.625  0.00  0.00     0.043 C 
ATOM     19  C   UNL d   1      -1.468   6.125   0.864  0.00  0.00     0.013 C 
ENDBRANCH  12  13
BRANCH  12  20
ATOM     20  C   UNL d   1      -1.588   2.412  -0.033  0.00  0.00     0.245 C 
ATOM     21  O   UNL d   1      -2.070   1.929  -1.060  0.00  0.00    -0.271 OA
ATOM     22  N   UNL d   1      -2.066   2.053   1.234  0.00  0.00    -0.359 N 
ATOM     23  H   UNL d   1      -1.747   2.552   2.055  0.00  0.00     0.162 HD
BRANCH  22  24
ATOM     24  C   UNL d   1      -3.338   1.370   1.288  0.00  0.00     0.123 C 
BRANCH  24  25
ATOM     25  C   UNL d   1      -3.898   1.255   2.698  0.00  0.00     0.023 C 
BRANCH  25  26
ATOM     26  C   UNL d   1      -5.236   0.497   2.709  0.00  0.00    -0.021 C 
ATOM     27  C   UNL d   1      -5.083  -0.902   2.111  0.00  0.00     0.009 C 
ATOM     28  C   UNL d   1      -5.761   0.390   4.138  0.00  0.00     0.009 C 
ENDBRANCH  25  26
ENDBRANCH  24  25
ENDBRANCH  22  24
ENDBRANCH  12  20
ENDBRANCH   1  12
BRANCH   2  29
ATOM     29  C   UNL d   1       2.077   2.220  -2.765  0.00  0.00     0.115 C 
ATOM     30  S   UNL d   1       1.820   1.318  -4.258  0.00  0.00     0.019 SA
ATOM     31  N   UNL d   1       3.000   2.107  -5.187  0.00  0.00    -0.203 NA
ATOM     32  C   UNL d   1       3.707   2.930  -4.388  0.00  0.00     0.155 C 
ATOM     33  C   UNL d   1       3.282   2.915  -2.964  0.00  0.00     0.065 C 
BRANCH  32  34
ATOM     34  C   UNL d   1       4.602   3.988  -4.949  0.00  0.00     0.270 C 
ATOM     35  N   UNL d   1       5.036   3.938  -6.232  0.00  0.00    -0.365 N 
ATOM     36  H   UNL d   1       4.738   3.216  -6.878  0.00  0.00     0.159 HD
ATOM     37  H   UNL d   1       5.750   4.601  -6.514  0.00  0.00     0.159 HD
ATOM     38  O   UNL d   1       4.947   4.993  -4.265  0.00  0.00    -0.266 OA
ENDBRANCH  32  34
BRANCH  33  39
ATOM     39  N   UNL d   1       3.698   3.901  -2.110  0.00  0.00    -0.299 NA
ATOM     40  H   UNL d   1       4.111   4.717  -2.591  0.00  0.00     0.124 HD
ATOM     41  H   UNL d   1       3.002   4.277  -1.471  0.00  0.00     0.124 HD
ENDBRANCH  33  39
ENDBRANCH   2  29
TORSDOF 10
