REMARK  7 active torsions:
REMARK  status: ('A' for Active; 'I' for Inactive)
REMARK    1  A    between atoms: C_2  and  C_3 
REMARK       I    between atoms: C_2  and  N_11 
REMARK    2  A    between atoms: C_3  and  C_4 
REMARK    3  A    between atoms: C_9  and  O_10 
REMARK    4  A    between atoms: N_11  and  N_12 
REMARK       I    between atoms: N_12  and  C_13 
REMARK    5  A    between atoms: C_13  and  C_15 
REMARK    6  A    between atoms: N_17  and  C_18 
REMARK    7  A    between atoms: C_25  and  C_26 
ROOT
ATOM      1  C   UNL d   1       6.633  -2.409  -0.889  0.00  0.00     0.082 A 
ATOM      2  C   UNL d   1       7.494  -1.975   0.102  0.00  0.00     0.138 A 
ATOM      3  N   UNL d   1       8.775  -2.131  -0.381  0.00  0.00    -0.244 N 
ATOM      4  N   UNL d   1       8.784  -2.618  -1.644  0.00  0.00    -0.166 NA
ATOM      5  C   UNL d   1       7.494  -2.865  -1.929  0.00  0.00     0.105 A 
ENDROOT
BRANCH   1   6
ATOM      6  C   UNL d   1       5.183  -2.433  -0.884  0.00  0.00     0.274 C 
ATOM      7  N   UNL d   1       4.570  -1.291  -0.391  0.00  0.00    -0.263 N 
ATOM      8  H   UNL d   1       5.104  -0.458  -0.174  0.00  0.00     0.190 HD
ATOM      9  O   UNL d   1       4.533  -3.384  -1.327  0.00  0.00    -0.266 OA
BRANCH   7  10
ATOM     10  N   UNL d   1       3.171  -1.238  -0.440  0.00  0.00    -0.267 N 
ATOM     11  C   UNL d   1       2.381  -0.144  -0.181  0.00  0.00     0.240 C 
ATOM     12  O   UNL d   1       1.191  -0.220  -0.492  0.00  0.00    -0.272 OA
ATOM     13  H   UNL d   1       2.697  -2.046  -0.849  0.00  0.00     0.190 HD
BRANCH  11  14
ATOM     14  C   UNL d   1       3.049   1.093   0.426  0.00  0.00     0.146 C 
BRANCH  14  15
ATOM     15  C   UNL d   1       2.116   2.195   0.892  0.00  0.00    -0.016 A 
ATOM     16  C   UNL d   1       2.480   3.541   0.709  0.00  0.00     0.010 A 
ATOM     17  C   UNL d   1       1.632   4.572   1.123  0.00  0.00     0.001 A 
ATOM     18  C   UNL d   1       0.401   4.274   1.704  0.00  0.00     0.003 A 
ATOM     19  C   UNL d   1       0.035   2.947   1.915  0.00  0.00     0.037 A 
ATOM     20  C   UNL d   1       0.917   1.929   1.563  0.00  0.00     0.072 A 
BRANCH  20  21
ATOM     21  O   UNL d   1       0.632   0.649   1.946  0.00  0.00    -0.360 OA
ATOM     22  H   UNL d   1      -0.326   0.512   1.848  0.00  0.00     0.217 HD
ENDBRANCH  20  21
ENDBRANCH  14  15
ENDBRANCH  11  14
ENDBRANCH   7  10
ENDBRANCH   1   6
BRANCH   5  23
ATOM     23  C   UNL d   1       7.065  -3.384  -3.226  0.00  0.00    -0.005 A 
ATOM     24  C   UNL d   1       7.346  -4.692  -3.636  0.00  0.00     0.014 A 
ATOM     25  C   UNL d   1       6.910  -5.136  -4.891  0.00  0.00     0.001 A 
ATOM     26  C   UNL d   1       6.128  -4.307  -5.698  0.00  0.00     0.000 A 
ATOM     27  C   UNL d   1       5.825  -3.014  -5.281  0.00  0.00     0.001 A 
ATOM     28  C   UNL d   1       6.303  -2.551  -4.057  0.00  0.00     0.014 A 
ENDBRANCH   5  23
BRANCH   3  29
ATOM     29  C   UNL d   1       9.980  -1.883   0.322  0.00  0.00     0.058 A 
ATOM     30  C   UNL d   1      10.985  -1.094  -0.253  0.00  0.00     0.031 A 
ATOM     31  C   UNL d   1      12.212  -0.943   0.404  0.00  0.00     0.002 A 
ATOM     32  C   UNL d   1      12.425  -1.550   1.642  0.00  0.00     0.000 A 
ATOM     33  C   UNL d   1      11.420  -2.329   2.217  0.00  0.00     0.002 A 
ATOM     34  C   UNL d   1      10.191  -2.488   1.568  0.00  0.00     0.031 A 
ENDBRANCH   3  29
TORSDOF 7
