@<TRIPOS>MOLECULE
*****
 30 31 0 0 0
SMALL
GASTEIGER

@<TRIPOS>ATOM
      1 O           0.9898   -0.2621    0.1092 O.2     1  UNL1       -0.2698
      2 C           2.2000   -0.0087    0.1124 C.2     1  UNL1        0.2495
      3 N           2.7753    1.2722    0.2569 N.am    1  UNL1       -0.2636
      4 C           2.0456    2.4866    0.2731 C.2     1  UNL1        0.1411
      5 S           0.3654    2.5375    0.0539 S.2     1  UNL1       -0.0182
      6 N           2.8314    3.6567    0.4646 N.am    1  UNL1       -0.2943
      7 C           2.2400    4.9741    0.6034 C.ar    1  UNL1        0.0684
      8 C           1.1762    5.1740    1.4980 C.ar    1  UNL1       -0.0350
      9 C           0.4883    6.3874    1.5669 C.ar    1  UNL1       -0.0245
     10 C           0.9009    7.4490    0.7802 C.ar    1  UNL1        0.1262
     11 F           0.2488    8.6167    0.8617 F       1  UNL1       -0.2054
     12 C           1.9880    7.3135   -0.0758 C.ar    1  UNL1        0.0106
     13 C           2.6598    6.0822   -0.1525 C.ar    1  UNL1        0.1472
     14 F           3.6735    5.9654   -1.0240 F       1  UNL1       -0.2035
     15 C           3.0433   -1.2081   -0.0738 C.ar    1  UNL1        0.0371
     16 C           4.1577   -1.4834    0.7147 C.ar    1  UNL1       -0.0496
     17 C           4.8927   -2.6525    0.4763 C.ar    1  UNL1       -0.0610
     18 C           4.4697   -3.5826   -0.4797 C.ar    1  UNL1       -0.0617
     19 C           3.3140   -3.3470   -1.2164 C.ar    1  UNL1       -0.0610
     20 C           2.6029   -2.1659   -1.0107 C.ar    1  UNL1       -0.0496
     21 H           3.7854    1.3213    0.2235 H       1  UNL1        0.1568
     22 H           3.7935    3.6599    0.1390 H       1  UNL1        0.1539
     23 H           0.8396    4.3650    2.1407 H       1  UNL1        0.0638
     24 H          -0.3718    6.4901    2.2216 H       1  UNL1        0.0647
     25 H           2.2856    8.1578   -0.6894 H       1  UNL1        0.0675
     26 H           4.4297   -0.8386    1.5437 H       1  UNL1        0.0625
     27 H           5.7987   -2.8507    1.0437 H       1  UNL1        0.0618
     28 H           5.0304   -4.5018   -0.6362 H       1  UNL1        0.0618
     29 H           2.9667   -4.0742   -1.9477 H       1  UNL1        0.0618
     30 H           1.6806   -2.0003   -1.5689 H       1  UNL1        0.0625
@<TRIPOS>BOND
     1     1     2    2
     2     2     3   am
     3     3     4    1
     4     4     5    2
     5     4     6    1
     6     6     7    1
     7     7     8   ar
     8     8     9   ar
     9     9    10   ar
    10    10    11    1
    11    10    12   ar
    12    12    13   ar
    13     7    13   ar
    14    13    14    1
    15     2    15    1
    16    15    16   ar
    17    16    17   ar
    18    17    18   ar
    19    18    19   ar
    20    19    20   ar
    21    15    20   ar
    22     3    21    1
    23     6    22    1
    24     8    23    1
    25     9    24    1
    26    12    25    1
    27    16    26    1
    28    17    27    1
    29    18    28    1
    30    19    29    1
    31    20    30    1
