@<TRIPOS>MOLECULE
*****
 59 61 0 0 0
SMALL
GASTEIGER

@<TRIPOS>ATOM
      1 C           9.0659    4.9832    6.5521 C.3     1  UNL1        0.0820
      2 O           9.7335    4.1256    5.6146 O.3     1  UNL1       -0.4645
      3 C          11.0582    3.9707    5.8558 C.2     1  UNL1        0.3389
      4 O          11.6877    4.4871    6.7775 O.2     1  UNL1       -0.2450
      5 C          11.7015    3.0885    4.8535 C.ar    1  UNL1        0.0590
      6 C          12.7256    2.2156    5.2425 C.ar    1  UNL1       -0.0475
      7 C          13.4661    1.5080    4.2783 C.ar    1  UNL1       -0.0563
      8 C          13.1568    1.6077    2.9097 C.ar    1  UNL1       -0.0302
      9 C          13.8972    0.7234    1.9113 C.3     1  UNL1        0.0383
     10 N          13.5041    0.9253    0.5295 N.am    1  UNL1       -0.2953
     11 C          13.8883    0.1105   -0.4864 C.2     1  UNL1        0.3003
     12 O          14.6666   -0.8285   -0.3615 O.2     1  UNL1       -0.2528
     13 N          13.3325    0.3879   -1.7000 N.am    1  UNL1       -0.2929
     14 C          12.6852    1.6199   -2.1275 C.3     1  UNL1        0.0470
     15 C          11.1801    1.5841   -1.8493 C.3     1  UNL1       -0.0424
     16 C          12.9393    1.9975   -3.5786 C.ar    1  UNL1       -0.0273
     17 C          13.4012    1.1408   -4.5891 C.ar    1  UNL1       -0.0551
     18 C          13.6522    1.6141   -5.9013 C.ar    1  UNL1       -0.0401
     19 C          13.3524    2.9352   -6.2556 C.ar    1  UNL1        0.0348
     20 N          13.4724    3.3897   -7.6116 N.am    1  UNL1       -0.2692
     21 C          13.0792    4.6584   -8.0294 C.2     1  UNL1        0.3081
     22 O          12.6131    5.5130   -7.2802 O.2     1  UNL1       -0.2522
     23 N          13.2145    4.9224   -9.3839 N.am    1  UNL1       -0.2692
     24 C          12.8487    6.2096   -9.8909 C.ar    1  UNL1        0.0348
     25 C          12.1235    6.3330  -11.0785 C.ar    1  UNL1       -0.0404
     26 C          11.8143    7.6053  -11.5890 C.ar    1  UNL1       -0.0600
     27 C          12.1902    8.7590  -10.8996 C.ar    1  UNL1       -0.0616
     28 C          12.9001    8.6459   -9.7109 C.ar    1  UNL1       -0.0600
     29 C          13.2255    7.3813   -9.2144 C.ar    1  UNL1       -0.0404
     30 C          12.8961    3.7702   -5.2333 C.ar    1  UNL1       -0.0401
     31 C          12.6905    3.3222   -3.9330 C.ar    1  UNL1       -0.0551
     32 C          12.1286    2.4964    2.5461 C.ar    1  UNL1       -0.0563
     33 C          11.4046    3.2228    3.4997 C.ar    1  UNL1       -0.0475
     34 H           7.9989    5.0040    6.3087 H       1  UNL1        0.0661
     35 H           9.4519    6.0057    6.4790 H       1  UNL1        0.0661
     36 H           9.1734    4.6063    7.5751 H       1  UNL1        0.0661
     37 H          12.9563    2.0875    6.2988 H       1  UNL1        0.0626
     38 H          14.2979    0.8858    4.6092 H       1  UNL1        0.0621
     39 H          13.7157   -0.3286    2.1694 H       1  UNL1        0.0512
     40 H          14.9766    0.9035    1.9638 H       1  UNL1        0.0512
     41 H          12.6605    1.4299    0.3559 H       1  UNL1        0.1506
     42 H          13.5399   -0.3166   -2.3907 H       1  UNL1        0.1508
     43 H          13.1306    2.4221   -1.5212 H       1  UNL1        0.0546
     44 H          10.6834    0.8466   -2.4873 H       1  UNL1        0.0251
     45 H          10.7162    2.5593   -2.0405 H       1  UNL1        0.0251
     46 H          10.9630    1.3225   -0.8099 H       1  UNL1        0.0251
     47 H          13.5699    0.0868   -4.3862 H       1  UNL1        0.0621
     48 H          14.0836    0.9178   -6.6161 H       1  UNL1        0.0636
     49 H          13.7796    2.7155   -8.2980 H       1  UNL1        0.1564
     50 H          13.2537    4.1565  -10.0380 H       1  UNL1        0.1564
     51 H          11.7281    5.4594  -11.5873 H       1  UNL1        0.0636
     52 H          11.2735    7.7026  -12.5274 H       1  UNL1        0.0618
     53 H          11.9260    9.7426  -11.2813 H       1  UNL1        0.0618
     54 H          13.2133    9.5350   -9.1696 H       1  UNL1        0.0618
     55 H          13.7933    7.3255   -8.2885 H       1  UNL1        0.0636
     56 H          12.6745    4.8173   -5.3822 H       1  UNL1        0.0636
     57 H          12.3146    4.0421   -3.2080 H       1  UNL1        0.0621
     58 H          11.8654    2.6765    1.5107 H       1  UNL1        0.0621
     59 H          10.6337    3.9117    3.1654 H       1  UNL1        0.0626
@<TRIPOS>BOND
     1     1     2    1
     2     2     3    1
     3     3     4    2
     4     3     5    1
     5     5     6   ar
     6     6     7   ar
     7     7     8   ar
     8     8     9    1
     9     9    10    1
    10    10    11   am
    11    11    12    2
    12    11    13   am
    13    14    16    1
    14    16    17   ar
    15    17    18   ar
    16    18    19   ar
    17    19    20    1
    18    20    21   am
    19    21    22    2
    20    21    23   am
    21    23    24    1
    22    24    25   ar
    23    25    26   ar
    24    26    27   ar
    25    27    28   ar
    26    28    29   ar
    27    24    29   ar
    28    19    30   ar
    29    30    31   ar
    30    16    31   ar
    31     8    32   ar
    32    32    33   ar
    33     5    33   ar
    34    14    15    1
    35    14    13    1
    36     1    34    1
    37     1    35    1
    38     1    36    1
    39     6    37    1
    40     7    38    1
    41     9    39    1
    42     9    40    1
    43    10    41    1
    44    13    42    1
    45    14    43    1
    46    15    44    1
    47    15    45    1
    48    15    46    1
    49    17    47    1
    50    18    48    1
    51    20    49    1
    52    23    50    1
    53    25    51    1
    54    26    52    1
    55    27    53    1
    56    28    54    1
    57    29    55    1
    58    30    56    1
    59    31    57    1
    60    32    58    1
    61    33    59    1
