@<TRIPOS>MOLECULE
*****
 30 31 0 0 0
SMALL
GASTEIGER

@<TRIPOS>ATOM
      1 C           0.8261    2.0581    0.0119 C.3     1  UNL1       -0.0366
      2 C          -0.1694    0.9474   -0.0024 C.ar    1  UNL1       -0.0110
      3 C           0.3332   -0.3691    0.0076 C.ar    1  UNL1        0.0456
      4 CL          2.0335   -0.7149    0.0048 Cl      1  UNL1       -0.0832
      5 C          -0.5196   -1.4624    0.0141 C.ar    1  UNL1       -0.0430
      6 C          -1.8931   -1.2617    0.0059 C.ar    1  UNL1       -0.0586
      7 C          -2.4167    0.0431   -0.0114 C.ar    1  UNL1       -0.0401
      8 C          -1.5715    1.1778   -0.0168 C.ar    1  UNL1        0.0380
      9 N          -2.2092    2.4692   -0.0492 N.am    1  UNL1       -0.2811
     10 C          -1.6292    3.7299   -0.0523 C.2     1  UNL1        0.2518
     11 O          -0.4520    4.0751    0.0297 O.2     1  UNL1       -0.2697
     12 C          -2.4444    4.9298   -0.1522 C.ar    1  UNL1        0.0783
     13 C          -1.9201    5.9581   -0.9669 C.ar    1  UNL1       -0.0461
     14 C          -2.4526    7.2335   -0.9151 C.ar    1  UNL1       -0.0608
     15 C          -3.4970    7.4836   -0.0296 C.ar    1  UNL1       -0.0583
     16 C          -3.9941    6.4706    0.8105 C.ar    1  UNL1       -0.0194
     17 C          -3.4662    5.1844    0.7482 C.ar    1  UNL1        0.1290
     18 O          -3.8871    4.1909    1.5835 O.3     1  UNL1       -0.5060
     19 H           1.8790    1.7968    0.0295 H       1  UNL1        0.0279
     20 H           0.6835    2.6110    0.9470 H       1  UNL1        0.0279
     21 H           0.7083    2.6186   -0.9220 H       1  UNL1        0.0279
     22 H          -0.1020   -2.4653    0.0246 H       1  UNL1        0.0632
     23 H          -2.5476   -2.1307    0.0095 H       1  UNL1        0.0619
     24 H          -3.5018    0.1398   -0.0237 H       1  UNL1        0.0636
     25 H          -3.2258    2.4681   -0.0231 H       1  UNL1        0.1551
     26 H          -1.0344    5.7708   -1.5778 H       1  UNL1        0.0626
     27 H          -2.0256    8.0214   -1.5308 H       1  UNL1        0.0618
     28 H          -3.9127    8.4859    0.0192 H       1  UNL1        0.0619
     29 H          -4.7734    6.7183    1.5225 H       1  UNL1        0.0654
     30 H          -4.5240    4.5474    2.2234 H       1  UNL1        0.2922
@<TRIPOS>BOND
     1     1     2    1
     2     2     3   ar
     3     3     4    1
     4     3     5   ar
     5     5     6   ar
     6     6     7   ar
     7     7     8   ar
     8     2     8   ar
     9     8     9    1
    10     9    10   am
    11    10    11    2
    12    10    12    1
    13    12    13   ar
    14    13    14   ar
    15    14    15   ar
    16    15    16   ar
    17    16    17   ar
    18    12    17   ar
    19    17    18    1
    20     1    19    1
    21     1    20    1
    22     1    21    1
    23     5    22    1
    24     6    23    1
    25     7    24    1
    26     9    25    1
    27    13    26    1
    28    14    27    1
    29    15    28    1
    30    16    29    1
    31    18    30    1
