@<TRIPOS>MOLECULE
*****
 55 58 0 0 0
SMALL
GASTEIGER

@<TRIPOS>ATOM
      1 C           1.1856   -0.4650   -0.0348 C.3     1  UNL1       -0.0470
      2 C           2.6510   -0.1266    0.0042 C.3     1  UNL1        0.0225
      3 N           2.9100    1.1001    0.7523 N.ar    1  UNL1       -0.3223
      4 C           2.5638    2.4062    0.4504 C.ar    1  UNL1        0.1672
      5 C           1.7471    2.8811   -0.7100 C.ar    1  UNL1        0.1904
      6 N           2.2551    3.6771   -1.6575 N.ar    1  UNL1       -0.0438
      7 O           1.2386    3.7938   -2.6026 O.2     1  UNL1       -0.2402
      8 N           0.1114    3.0692   -2.2221 N.ar    1  UNL1       -0.0335
      9 C           0.3889    2.6121   -1.0163 C.ar    1  UNL1        0.1909
     10 N          -0.5046    1.9509   -0.2275 N.pl3   1  UNL1       -0.3386
     11 N           3.0525    3.2401    1.3549 N.ar    1  UNL1       -0.2229
     12 C           3.7103    2.4809    2.2885 C.ar    1  UNL1        0.1234
     13 C           4.3975    2.8083    3.4719 C.ar    1  UNL1        0.1413
     14 C           4.4671    4.1156    4.1799 C.1     1  UNL1       -0.0414
     15 C           4.5329    5.3405    4.6218 C.1     1  UNL1       -0.0614
     16 C           4.6096    6.7684    5.1371 C.3     1  UNL1        0.1212
     17 C           4.1887    7.7357    4.0329 C.3     1  UNL1       -0.0249
     18 C           3.6982    6.9199    6.3520 C.3     1  UNL1       -0.0249
     19 O           5.9485    7.0300    5.5365 O.3     1  UNL1       -0.3771
     20 N           5.0392    1.7710    4.0846 N.ar    1  UNL1       -0.2357
     21 C           4.8992    0.4619    3.7713 C.ar    1  UNL1        0.0891
     22 C           5.5103   -0.5475    4.7355 C.3     1  UNL1        0.0115
     23 N           6.1053    0.0319    6.0304 N.4     1  UNL1        0.2396
     24 C           5.0916    0.5946    7.0112 C.3     1  UNL1       -0.0313
     25 C           4.9794    2.0616    6.6834 C.3     1  UNL1       -0.0077
     26 C           6.3864    2.4397    6.1959 C.3     1  UNL1       -0.0077
     27 C           7.0870    1.1553    5.7559 C.3     1  UNL1       -0.0313
     28 C           4.2117    0.0694    2.6540 C.ar    1  UNL1       -0.0094
     29 C           3.6447    1.1214    1.9203 C.ar    1  UNL1        0.0738
     30 H           0.9470   -1.4534   -0.4253 H       1  UNL1        0.0247
     31 H           0.7535    0.2011   -0.7637 H       1  UNL1        0.0247
     32 H           0.7152   -0.3386    0.9481 H       1  UNL1        0.0247
     33 H           3.0724   -0.0096   -0.9973 H       1  UNL1        0.0490
     34 H           3.1738   -0.9638    0.4787 H       1  UNL1        0.0490
     35 H          -1.1790    1.3669   -0.7181 H       1  UNL1        0.1439
     36 H          -0.2262    1.5706    0.6635 H       1  UNL1        0.1439
     37 H           3.1608    7.5433    3.7034 H       1  UNL1        0.0267
     38 H           4.8437    7.6486    3.1584 H       1  UNL1        0.0267
     39 H           4.2538    8.7740    4.3759 H       1  UNL1        0.0267
     40 H           2.6540    6.6996    6.1016 H       1  UNL1        0.0267
     41 H           3.7496    7.9379    6.7543 H       1  UNL1        0.0267
     42 H           4.0020    6.2451    7.1607 H       1  UNL1        0.0267
     43 H           6.4987    6.9805    4.7364 H       1  UNL1        0.2114
     44 H           6.3289   -1.0875    4.2417 H       1  UNL1        0.0882
     45 H           4.7666   -1.2924    5.0489 H       1  UNL1        0.0882
     46 H           6.6057   -0.7337    6.4943 H       1  UNL1        0.2037
     47 H           5.5123    0.4742    8.0121 H       1  UNL1        0.0814
     48 H           4.1526    0.0389    6.9250 H       1  UNL1        0.0814
     49 H           4.6493    2.7026    7.5012 H       1  UNL1        0.0319
     50 H           4.1539    2.1632    5.9728 H       1  UNL1        0.0319
     51 H           6.9412    2.9272    6.9963 H       1  UNL1        0.0319
     52 H           6.4136    3.1646    5.3774 H       1  UNL1        0.0319
     53 H           7.9791    0.9689    6.3574 H       1  UNL1        0.0814
     54 H           7.3848    1.1274    4.6988 H       1  UNL1        0.0814
     55 H           4.1219   -0.9734    2.3682 H       1  UNL1        0.0659
@<TRIPOS>UNITY_ATOM_ATTR
23 1
charge 1
@<TRIPOS>BOND
     1     1     2    1
     2     2     3    1
     3     3     4   ar
     4     4     5    1
     5     5     6   ar
     6     6     7   ar
     7     7     8   ar
     8     8     9   ar
     9     5     9   ar
    10     9    10    1
    11     4    11   ar
    12    11    12   ar
    13    12    13   ar
    14    13    14    1
    15    14    15    3
    16    15    16    1
    17    16    17    1
    18    16    18    1
    19    16    19    1
    20    13    20   ar
    21    20    21   ar
    22    21    22    1
    23    22    23    1
    24    23    24    1
    25    24    25    1
    26    25    26    1
    27    26    27    1
    28    23    27    1
    29    21    28   ar
    30    28    29   ar
    31    12    29   ar
    32     3    29   ar
    33     1    30    1
    34     1    31    1
    35     1    32    1
    36     2    33    1
    37     2    34    1
    38    10    35    1
    39    10    36    1
    40    17    37    1
    41    17    38    1
    42    17    39    1
    43    18    40    1
    44    18    41    1
    45    18    42    1
    46    19    43    1
    47    22    44    1
    48    22    45    1
    49    23    46    1
    50    24    47    1
    51    24    48    1
    52    25    49    1
    53    25    50    1
    54    26    51    1
    55    26    52    1
    56    27    53    1
    57    27    54    1
    58    28    55    1
