@<TRIPOS>MOLECULE
*****
 43 43 0 0 0
SMALL
GASTEIGER

@<TRIPOS>ATOM
      1 C           0.9602   -0.0744   -0.0312 C.3     1  UNL1       -0.0626
      2 C           2.4911   -0.0855   -0.0611 C.3     1  UNL1       -0.0453
      3 C           2.9722   -1.5067   -0.3691 C.3     1  UNL1       -0.0626
      4 C           3.0260    0.9480   -1.0875 C.3     1  UNL1       -0.0351
      5 C           4.5591    0.9957   -1.1142 C.3     1  UNL1        0.0109
      6 N           5.1659    1.9485   -2.0573 N.am    1  UNL1       -0.3254
      7 C           6.5451    2.0777   -2.2212 C.2     1  UNL1        0.1468
      8 S           7.6789    1.1992   -1.3368 S.2     1  UNL1       -0.0174
      9 N           6.9321    3.0077   -3.1821 N.am    1  UNL1       -0.2458
     10 N           8.3294    3.2548   -3.4462 N.am    1  UNL1       -0.2345
     11 C           8.7011    4.1927   -4.4041 C.2     1  UNL1        0.2392
     12 O           7.8357    4.8145   -5.0259 O.2     1  UNL1       -0.2734
     13 C          10.2333    4.3798   -4.6146 C.3     1  UNL1        0.0762
     14 S          10.5424    5.6244   -5.9644 S.3     1  UNL1       -0.1158
     15 C          12.3197    5.8257   -6.0339 C.ar    1  UNL1        0.0088
     16 C          13.2056    4.7475   -6.1107 C.ar    1  UNL1       -0.0419
     17 C          14.5934    4.9616   -6.1585 C.ar    1  UNL1        0.0166
     18 C          15.0985    6.2678   -6.2300 C.ar    1  UNL1        0.2732
     19 N          16.5435    6.4825   -6.4065 N.pl3   1  UNL1        0.0796
     20 O          17.2737    5.4866   -6.4532 O.2     1  UNL1        0.0414
     21 O          16.9432    7.6546   -6.5155 O.co2   1  UNL1       -0.5760
     22 C          14.2256    7.3580   -6.1978 C.ar    1  UNL1        0.0166
     23 C          12.8439    7.1300   -6.1057 C.ar    1  UNL1       -0.0419
     24 H           0.5783   -0.7882    0.7084 H       1  UNL1        0.0232
     25 H           0.5468   -0.3514   -1.0069 H       1  UNL1        0.0232
     26 H           0.5781    0.9162    0.2338 H       1  UNL1        0.0232
     27 H           2.8496    0.1895    0.9402 H       1  UNL1        0.0296
     28 H           2.6459   -1.8182   -1.3670 H       1  UNL1        0.0232
     29 H           2.5776   -2.2237    0.3586 H       1  UNL1        0.0232
     30 H           4.0618   -1.5849   -0.3259 H       1  UNL1        0.0232
     31 H           2.6327    1.9407   -0.8346 H       1  UNL1        0.0283
     32 H           2.6427    0.7019   -2.0850 H       1  UNL1        0.0283
     33 H           4.9472    0.0104   -1.3868 H       1  UNL1        0.0462
     34 H           4.9222    1.2405   -0.1093 H       1  UNL1        0.0462
     35 H           4.5391    2.4797   -2.6483 H       1  UNL1        0.1478
     36 H           6.2787    3.5557   -3.7405 H       1  UNL1        0.1718
     37 H           8.9839    2.7124   -2.8854 H       1  UNL1        0.1728
     38 H          10.6827    3.4237   -4.9010 H       1  UNL1        0.0475
     39 H          10.6914    4.7324   -3.6838 H       1  UNL1        0.0475
     40 H          12.8329    3.7285   -6.1743 H       1  UNL1        0.0631
     41 H          15.2628    4.1036   -6.1547 H       1  UNL1        0.0686
     42 H          14.5961    8.3813   -6.2491 H       1  UNL1        0.0686
     43 H          12.1752    7.9902   -6.1092 H       1  UNL1        0.0631
@<TRIPOS>UNITY_ATOM_ATTR
19 1
charge 1
21 1
charge -1
@<TRIPOS>BOND
     1     1     2    1
     2     2     3    1
     3     2     4    1
     4     4     5    1
     5     5     6    1
     6     6     7    1
     7     7     8    2
     8     7     9    1
     9     9    10    1
    10    10    11   am
    11    11    12    2
    12    11    13    1
    13    13    14    1
    14    14    15    1
    15    15    16   ar
    16    16    17   ar
    17    17    18   ar
    18    18    19    1
    19    19    20    2
    20    19    21    1
    21    18    22   ar
    22    22    23   ar
    23    15    23   ar
    24     1    24    1
    25     1    25    1
    26     1    26    1
    27     2    27    1
    28     3    28    1
    29     3    29    1
    30     3    30    1
    31     4    31    1
    32     4    32    1
    33     5    33    1
    34     5    34    1
    35     6    35    1
    36     9    36    1
    37    10    37    1
    38    13    38    1
    39    13    39    1
    40    16    40    1
    41    17    41    1
    42    22    42    1
    43    23    43    1
