@<TRIPOS>MOLECULE
*****
 44 45 0 0 0
SMALL
GASTEIGER

@<TRIPOS>ATOM
      1 C           2.5134   -0.2102   -0.0099 C.3     1  UNL1       -0.0390
      2 C           1.0292   -0.0278    0.0018 C.ar    1  UNL1       -0.0384
      3 C           0.2657   -1.2144    0.0048 C.ar    1  UNL1       -0.0581
      4 C          -1.1232   -1.1839   -0.0000 C.ar    1  UNL1       -0.0615
      5 C          -1.7763    0.0404   -0.0063 C.ar    1  UNL1       -0.0610
      6 C          -1.0340    1.2323   -0.0009 C.ar    1  UNL1       -0.0494
      7 C           0.3820    1.2310    0.0019 C.ar    1  UNL1        0.0396
      8 C           1.0715    2.5932    0.0005 C.2     1  UNL1        0.2443
      9 O           0.3839    3.6188   -0.0033 O.2     1  UNL1       -0.2702
     10 N           2.4543    2.6638    0.0030 N.am    1  UNL1       -0.3109
     11 C           3.2376    3.8879   -0.0034 C.3     1  UNL1        0.0202
     12 C           4.7607    3.6160    0.0010 C.3     1  UNL1        0.0409
     13 C           5.5306    4.9342   -0.0023 C.2     1  UNL1        0.2306
     14 O           4.9637    6.0274   -0.0093 O.2     1  UNL1       -0.2742
     15 N           6.9125    4.8537    0.0088 N.am    1  UNL1       -0.2343
     16 N           7.6613    6.0790    0.0070 N.am    1  UNL1       -0.2323
     17 C           9.0390    6.0209    0.0266 C.2     1  UNL1        0.2579
     18 O           9.6058    4.9194    0.0386 O.2     1  UNL1       -0.2714
     19 C           9.8776    7.3359   -0.0124 C.3     1  UNL1        0.1358
     20 C           9.2987    8.7225    0.2473 C.3     1  UNL1       -0.0159
     21 C          10.2525    9.6263   -0.5181 C.3     1  UNL1       -0.0266
     22 C          10.6242    8.7805   -1.7106 C.3     1  UNL1        0.0487
     23 O          10.5565    7.4180   -1.2828 O.3     1  UNL1       -0.3673
     24 H           2.8273   -1.2548   -0.0102 H       1  UNL1        0.0278
     25 H           2.9367    0.2327    0.8985 H       1  UNL1        0.0278
     26 H           2.9179    0.2293   -0.9290 H       1  UNL1        0.0278
     27 H           0.7660   -2.1818    0.0069 H       1  UNL1        0.0620
     28 H          -1.6852   -2.1148   -0.0012 H       1  UNL1        0.0618
     29 H          -2.8642    0.0671   -0.0167 H       1  UNL1        0.0618
     30 H          -1.5844    2.1737   -0.0011 H       1  UNL1        0.0625
     31 H           3.0135    1.8436   -0.0094 H       1  UNL1        0.1490
     32 H           2.9454    4.4619    0.8811 H       1  UNL1        0.0467
     33 H           2.9489    4.4507   -0.8963 H       1  UNL1        0.0467
     34 H           5.0408    3.0201   -0.8781 H       1  UNL1        0.0374
     35 H           5.0365    3.0286    0.8871 H       1  UNL1        0.0374
     36 H           7.4571    3.9903   -0.0048 H       1  UNL1        0.1728
     37 H           7.1105    6.9329   -0.0339 H       1  UNL1        0.1729
     38 H          10.6558    7.1842    0.7489 H       1  UNL1        0.0693
     39 H           9.2939    8.9798    1.3125 H       1  UNL1        0.0296
     40 H           8.2800    8.8405   -0.1318 H       1  UNL1        0.0296
     41 H          11.1521    9.8236    0.0797 H       1  UNL1        0.0288
     42 H           9.8291   10.5952   -0.8010 H       1  UNL1        0.0288
     43 H          11.6305    8.9972   -2.0840 H       1  UNL1        0.0560
     44 H           9.9154    8.9165   -2.5337 H       1  UNL1        0.0560
@<TRIPOS>BOND
     1     1     2    1
     2     2     3   ar
     3     3     4   ar
     4     4     5   ar
     5     5     6   ar
     6     6     7   ar
     7     2     7   ar
     8     7     8    1
     9     8     9    2
    10     8    10   am
    11    10    11    1
    12    11    12    1
    13    12    13    1
    14    13    14    2
    15    13    15   am
    16    15    16    1
    17    16    17   am
    18    17    18    2
    19    17    19    1
    20    19    20    1
    21    20    21    1
    22    21    22    1
    23    22    23    1
    24    19    23    1
    25     1    24    1
    26     1    25    1
    27     1    26    1
    28     3    27    1
    29     4    28    1
    30     5    29    1
    31     6    30    1
    32    10    31    1
    33    11    32    1
    34    11    33    1
    35    12    34    1
    36    12    35    1
    37    15    36    1
    38    16    37    1
    39    19    38    1
    40    20    39    1
    41    20    40    1
    42    21    41    1
    43    21    42    1
    44    22    43    1
    45    22    44    1
