REMARK  10 active torsions:
REMARK  status: ('A' for Active; 'I' for Inactive)
REMARK    1  A    between atoms: C_2  and  C_3 
REMARK    2  A    between atoms: C_3  and  C_4 
REMARK    3  A    between atoms: C_4  and  O_5 
REMARK    4  A    between atoms: O_5  and  C_6 
REMARK    5  A    between atoms: C_11  and  N_12 
REMARK    6  A    between atoms: N_12  and  C_13 
REMARK    7  A    between atoms: C_13  and  C_14 
REMARK       I    between atoms: C_14  and  N_16 
REMARK    8  A    between atoms: N_16  and  C_17 
REMARK    9  A    between atoms: C_22  and  C_23 
REMARK       I    between atoms: C_23  and  N_25 
REMARK   10  A    between atoms: N_25  and  C_26 
ROOT
ATOM      1  C   UNL d   1       5.255   2.903   0.067  0.00  0.00     0.239 C 
ATOM      2  O   UNL d   1       6.123   3.603  -0.421  0.00  0.00    -0.271 OA
ATOM      3  N   UNL d   1       3.881   2.931  -0.259  0.00  0.00    -0.326 N 
ATOM      4  H   UNL d   1       3.198   2.531   0.378  0.00  0.00     0.169 HD
ENDROOT
BRANCH   3   5
ATOM      5  C   UNL d   1       3.388   3.782  -1.252  0.00  0.00     0.035 A 
ATOM      6  C   UNL d   1       2.171   4.422  -1.062  0.00  0.00     0.031 A 
ATOM      7  C   UNL d   1       1.784   5.399  -1.973  0.00  0.00     0.027 A 
ATOM      8  C   UNL d   1       2.604   5.729  -3.064  0.00  0.00     0.049 A 
ATOM      9 CL   UNL d   1       2.094   7.119  -3.960  0.00  0.00    -0.083 Cl
ATOM     10  C   UNL d   1       3.772   4.988  -3.326  0.00  0.00     0.055 A 
ATOM     11  C   UNL d   1       4.139   4.007  -2.404  0.00  0.00     0.048 A 
BRANCH  10  12
ATOM     12  C   UNL d   1       4.602   5.213  -4.552  0.00  0.00     0.253 C 
ATOM     13  O   UNL d   1       4.264   6.032  -5.382  0.00  0.00    -0.268 OA
ATOM     14  N   UNL d   1       5.751   4.443  -4.732  0.00  0.00    -0.352 N 
ATOM     15  H   UNL d   1       6.043   3.736  -4.078  0.00  0.00     0.163 HD
BRANCH  14  16
ATOM     16  C   UNL d   1       6.606   4.670  -5.890  0.00  0.00     0.084 C 
ATOM     17  C   UNL d   1       7.177   6.096  -5.871  0.00  0.00     0.025 C 
ATOM     18  C   UNL d   1       8.111   6.354  -7.042  0.00  0.00     0.002 C 
ATOM     19  C   UNL d   1       9.239   5.335  -7.079  0.00  0.00     0.000 C 
ATOM     20  C   UNL d   1       8.686   3.914  -7.122  0.00  0.00     0.002 C 
ATOM     21  C   UNL d   1       7.746   3.641  -5.948  0.00  0.00     0.025 C 
ENDBRANCH  14  16
ENDBRANCH  10  12
ENDBRANCH   3   5
BRANCH   1  22
ATOM     22  C   UNL d   1       5.571   1.790   1.014  0.00  0.00     0.223 C 
BRANCH  22  23
ATOM     23  N   UNL d   1       6.837   1.696   1.681  0.00  0.00    -0.379 N 
ATOM     24  H   UNL d   1       7.588   2.132   1.151  0.00  0.00     0.160 HD
BRANCH  23  25
ATOM     25  C   UNL d   1       7.188   0.526   2.397  0.00  0.00     0.062 A 
ATOM     26  C   UNL d   1       8.557   0.511   2.780  0.00  0.00     0.032 A 
ATOM     27  C   UNL d   1       9.100  -0.434   3.656  0.00  0.00     0.002 A 
ATOM     28  C   UNL d   1       8.285  -1.416   4.190  0.00  0.00     0.003 A 
ATOM     29  C   UNL d   1       6.944  -1.475   3.807  0.00  0.00     0.039 A 
ATOM     30  C   UNL d   1       6.363  -0.510   2.947  0.00  0.00     0.095 A 
BRANCH  30  31
ATOM     31  O   UNL d   1       4.977  -0.665   2.932  0.00  0.00    -0.349 OA
BRANCH  31  32
ATOM     32  C   UNL d   1       4.359  -0.760   1.663  0.00  0.00     0.175 C 
BRANCH  32  33
ATOM     33  C   UNL d   1       2.854  -0.568   1.568  0.00  0.00     0.026 C 
BRANCH  33  34
ATOM     34  C   UNL d   1       2.459  -0.235   0.106  0.00  0.00    -0.002 C 
ATOM     35  C   UNL d   1       0.969   0.003   0.023  0.00  0.00     0.005 C 
ENDBRANCH  33  34
ENDBRANCH  32  33
ENDBRANCH  31  32
ENDBRANCH  30  31
ENDBRANCH  23  25
ENDBRANCH  22  23
ENDBRANCH   1  22
TORSDOF 10
