@<TRIPOS>MOLECULE
*****
 33 34 0 0 0
SMALL
GASTEIGER

@<TRIPOS>ATOM
      1 C           2.9513   -0.2366    1.3733 C.3     1  UNL1       -0.0348
      2 C           2.4075   -0.0485   -0.0375 C.3     1  UNL1        0.0774
      3 O           0.9897    0.0591    0.0070 O.3     1  UNL1       -0.3875
      4 C           2.8271   -1.2027   -0.9167 C.ar    1  UNL1       -0.0177
      5 C           2.3292   -2.4967   -0.7550 C.ar    1  UNL1       -0.0560
      6 C           2.8326   -3.5446   -1.5233 C.ar    1  UNL1       -0.0597
      7 C           3.8071   -3.3028   -2.4997 C.ar    1  UNL1       -0.0404
      8 C           4.3330   -2.0167   -2.6642 C.ar    1  UNL1        0.0340
      9 N           5.3741   -1.7961   -3.5992 N.am    1  UNL1       -0.2815
     10 C           6.0111   -0.5851   -3.8128 C.2     1  UNL1        0.2497
     11 O           5.8205    0.4706   -3.2029 O.2     1  UNL1       -0.2698
     12 C           7.0484   -0.5023   -4.8589 C.ar    1  UNL1        0.0554
     13 C           8.1582    0.3205   -4.5721 C.ar    1  UNL1       -0.0468
     14 C           9.0801    0.6403   -5.5667 C.ar    1  UNL1       -0.0426
     15 C           8.9326    0.0841   -6.8326 C.ar    1  UNL1        0.0424
     16 CL         10.1273    0.3761   -8.0336 Cl      1  UNL1       -0.0835
     17 C           7.8431   -0.7362   -7.1272 C.ar    1  UNL1       -0.0243
     18 C           6.8932   -1.0276   -6.1439 C.ar    1  UNL1        0.0544
     19 CL          5.5520   -2.0091   -6.6115 Cl      1  UNL1       -0.0827
     20 C           3.8230   -0.9856   -1.8732 C.ar    1  UNL1       -0.0349
     21 H           4.0469   -0.2502    1.3806 H       1  UNL1        0.0258
     22 H           2.5994   -1.1782    1.8101 H       1  UNL1        0.0258
     23 H           2.6014    0.5655    2.0293 H       1  UNL1        0.0258
     24 H           2.7794    0.9015   -0.4414 H       1  UNL1        0.0641
     25 H           0.6412   -0.7995    0.2900 H       1  UNL1        0.2102
     26 H           1.5574   -2.7022   -0.0197 H       1  UNL1        0.0621
     27 H           2.4692   -4.5530   -1.3410 H       1  UNL1        0.0618
     28 H           4.1422   -4.1379   -3.1085 H       1  UNL1        0.0636
     29 H           5.6511   -2.5919   -4.1642 H       1  UNL1        0.1551
     30 H           8.2862    0.7403   -3.5731 H       1  UNL1        0.0626
     31 H           9.8932    1.3302   -5.3519 H       1  UNL1        0.0632
     32 H           7.7219   -1.1329   -8.1316 H       1  UNL1        0.0647
     33 H           4.1896    0.0288   -1.9681 H       1  UNL1        0.0640
@<TRIPOS>BOND
     1     2     4    1
     2     4     5   ar
     3     5     6   ar
     4     6     7   ar
     5     7     8   ar
     6     8     9    1
     7     9    10   am
     8    10    11    2
     9    10    12    1
    10    12    13   ar
    11    13    14   ar
    12    14    15   ar
    13    15    16    1
    14    15    17   ar
    15    17    18   ar
    16    12    18   ar
    17    18    19    1
    18     8    20   ar
    19     4    20   ar
    20     2     3    1
    21     2     1    1
    22     1    21    1
    23     1    22    1
    24     1    23    1
    25     2    24    1
    26     3    25    1
    27     5    26    1
    28     6    27    1
    29     7    28    1
    30     9    29    1
    31    13    30    1
    32    14    31    1
    33    17    32    1
    34    20    33    1
