@<TRIPOS>MOLECULE
*****
 66 70 0 0 0
SMALL
GASTEIGER

@<TRIPOS>ATOM
      1 C           3.2137   -0.0713    1.5341 C.3     1  UNL1       -0.0442
      2 C           2.5551   -0.0348    0.1602 C.3     1  UNL1        0.0464
      3 N           2.9070    1.2599   -0.4492 N.3     1  UNL1       -0.2334
      4 N           3.7549    1.2260   -1.5599 N.am    1  UNL1       -0.2465
      5 C           4.0804    0.1185   -2.2880 C.2     1  UNL1        0.2578
      6 O           4.6333    0.2924   -3.3693 O.2     1  UNL1       -0.2691
      7 C           3.7561   -1.1753   -1.6943 C.2     1  UNL1        0.0652
      8 C           3.0159   -1.2246   -0.5925 C.2     1  UNL1       -0.0111
      9 C           2.7613   -2.6341   -0.2085 C.3     1  UNL1        0.0818
     10 C           1.2706   -2.9624   -0.2603 C.3     1  UNL1       -0.0346
     11 O           3.5253   -3.4213   -1.1602 O.3     1  UNL1       -0.3472
     12 C           4.1482   -2.5264   -2.1237 C.3     1  UNL1        0.1565
     13 N           5.5800   -2.6884   -1.9905 N.am    1  UNL1       -0.2855
     14 C           6.3905   -2.1542   -2.9747 C.2     1  UNL1        0.2251
     15 O           5.9105   -1.7200   -4.0172 O.2     1  UNL1       -0.2748
     16 C           7.9010   -2.2506   -2.7869 C.3     1  UNL1        0.0756
     17 S           8.7471   -1.1235   -3.9960 S.3     1  UNL1       -0.0827
     18 C          10.5197   -1.5174   -3.9097 C.3     1  UNL1        0.2380
     19 N          11.2906   -0.4141   -4.4825 N.pl3   1  UNL1       -0.1248
     20 N          11.4529   -0.5343   -5.8354 N.2     1  UNL1        0.0392
     21 C          11.2771   -1.7980   -6.0956 C.2     1  UNL1        0.3188
     22 C          11.4493   -2.4415   -7.4584 C.3     1  UNL1        0.0842
     23 C          11.7735   -1.3999   -8.4983 C.ar    1  UNL1        0.0014
     24 C          12.8958   -0.5940   -8.5423 C.ar    1  UNL1       -0.0510
     25 C          12.8167    0.4040   -9.5505 C.ar    1  UNL1       -0.0545
     26 C          11.6739    0.2796  -10.3073 C.ar    1  UNL1       -0.0241
     27 S          10.7026   -1.0347   -9.7858 S.2     1  UNL1       -0.1010
     28 N          10.9135   -2.5284   -4.8985 N.pl3   1  UNL1       -0.1892
     29 C          11.1563   -3.9535   -4.6641 C.3     1  UNL1        0.0938
     30 C          12.1987   -4.2254   -3.5606 C.3     1  UNL1       -0.0137
     31 C          12.2934   -5.7298   -3.2391 C.3     1  UNL1       -0.0494
     32 C          10.9373   -6.3298   -2.8703 C.3     1  UNL1       -0.0528
     33 C           9.9230   -6.0749   -3.9786 C.3     1  UNL1       -0.0494
     34 C           9.8394   -4.5930   -4.2758 C.3     1  UNL1       -0.0137
     35 H           2.9656    0.8238    2.1115 H       1  UNL1        0.0248
     36 H           4.3059   -0.1144    1.4264 H       1  UNL1        0.0248
     37 H           2.8948   -0.9434    2.1109 H       1  UNL1        0.0248
     38 H           1.4626   -0.0621    0.2440 H       1  UNL1        0.0521
     39 H           3.3833    1.8354    0.2487 H       1  UNL1        0.1449
     40 H           3.9688    2.0891   -2.0532 H       1  UNL1        0.1693
     41 H           3.1501   -2.8702    0.7882 H       1  UNL1        0.0642
     42 H           0.8516   -2.7695   -1.2541 H       1  UNL1        0.0258
     43 H           0.7108   -2.3562    0.4639 H       1  UNL1        0.0258
     44 H           1.0827   -4.0154   -0.0295 H       1  UNL1        0.0258
     45 H           3.7910   -2.7978   -3.1214 H       1  UNL1        0.0863
     46 H           5.8943   -3.4322   -1.3838 H       1  UNL1        0.1515
     47 H           8.0564   -3.2941   -3.0156 H       1  UNL1        0.0473
     48 H           8.2165   -2.0326   -1.7633 H       1  UNL1        0.0473
     49 H          10.8597   -1.7301   -2.8965 H       1  UNL1        0.1142
     50 H          11.0316    0.5185   -4.1689 H       1  UNL1        0.1998
     51 H          10.5455   -3.0089   -7.7092 H       1  UNL1        0.0442
     52 H          12.2806   -3.1535   -7.4062 H       1  UNL1        0.0442
     53 H          13.6968   -0.6606   -7.8167 H       1  UNL1        0.0626
     54 H          13.5534    1.1843   -9.6970 H       1  UNL1        0.0623
     55 H          11.3632    0.9084  -11.1322 H       1  UNL1        0.0693
     56 H          11.5192   -4.4090   -5.5902 H       1  UNL1        0.0763
     57 H          11.9402   -3.6939   -2.6358 H       1  UNL1        0.0304
     58 H          13.1845   -3.8580   -3.8658 H       1  UNL1        0.0304
     59 H          12.9985   -5.8987   -2.4173 H       1  UNL1        0.0267
     60 H          12.6861   -6.2631   -4.1131 H       1  UNL1        0.0267
     61 H          10.5840   -5.8890   -1.9278 H       1  UNL1        0.0265
     62 H          11.0272   -7.4080   -2.6999 H       1  UNL1        0.0265
     63 H           8.9365   -6.4337   -3.6632 H       1  UNL1        0.0267
     64 H          10.2047   -6.6174   -4.8854 H       1  UNL1        0.0267
     65 H           9.5655   -4.1350   -3.3326 H       1  UNL1        0.0304
     66 H           9.0710   -4.3829   -5.0265 H       1  UNL1        0.0304
@<TRIPOS>BOND
     1     2     3    1
     2     3     4    1
     3     4     5   am
     4     5     6    2
     5     5     7    1
     6     7     8    2
     7     2     8    1
     8     8     9    1
     9     9    10    1
    10     9    11    1
    11    11    12    1
    12     7    12    1
    13    12    13    1
    14    13    14   am
    15    14    15    2
    16    14    16    1
    17    16    17    1
    18    17    18    1
    19    18    19    1
    20    19    20    1
    21    20    21    2
    22    21    22    1
    23    22    23    1
    24    23    24   ar
    25    24    25   ar
    26    25    26   ar
    27    26    27   ar
    28    23    27   ar
    29    21    28    1
    30    18    28    1
    31    28    29    1
    32    29    30    1
    33    30    31    1
    34    31    32    1
    35    32    33    1
    36    33    34    1
    37    29    34    1
    38     2     1    1
    39     1    35    1
    40     1    36    1
    41     1    37    1
    42     2    38    1
    43     3    39    1
    44     4    40    1
    45     9    41    1
    46    10    42    1
    47    10    43    1
    48    10    44    1
    49    12    45    1
    50    13    46    1
    51    16    47    1
    52    16    48    1
    53    18    49    1
    54    19    50    1
    55    22    51    1
    56    22    52    1
    57    24    53    1
    58    25    54    1
    59    26    55    1
    60    29    56    1
    61    30    57    1
    62    30    58    1
    63    31    59    1
    64    31    60    1
    65    32    61    1
    66    32    62    1
    67    33    63    1
    68    33    64    1
    69    34    65    1
    70    34    66    1
