@<TRIPOS>MOLECULE
*****
 72 75 0 0 0
SMALL
GASTEIGER

@<TRIPOS>ATOM
      1 C           6.1773   -7.0908    2.7572 C.3     1  UNL1       -0.0651
      2 C           6.0635   -5.8861    1.9140 C.3     1  UNL1       -0.0504
      3 C           4.7785   -5.1127    1.9087 C.3     1  UNL1       -0.0026
      4 C           4.6627   -3.8742    0.9686 C.3     1  UNL1        0.0422
      5 C           4.8879   -4.0951   -0.4904 C.ar    1  UNL1        0.1999
      6 N           6.0078   -4.5838   -0.9930 N.ar    1  UNL1       -0.1075
      7 N           5.8157   -4.7236   -2.3318 N.ar    1  UNL1       -0.0228
      8 N           4.6284   -4.2598   -2.6845 N.ar    1  UNL1       -0.0432
      9 N           4.0254   -3.8297   -1.5490 N.ar    1  UNL1       -0.2136
     10 C           2.6861   -3.1965   -1.7100 C.3     1  UNL1        0.1422
     11 C           2.0674   -2.6626   -0.4538 C.2     1  UNL1        0.3289
     12 O           2.6683   -2.6768    0.5698 O.2     1  UNL1       -0.2488
     13 O           0.8540   -2.1044   -0.3564 O.3     1  UNL1       -0.4636
     14 C           0.6550   -1.6937    1.0535 C.3     1  UNL1        0.0897
     15 C          -0.6555   -1.0005    1.1646 C.3     1  UNL1       -0.0306
     16 N           5.1759   -2.4511    1.5437 N.4     1  UNL1        0.2484
     17 C           4.5830   -1.1482    0.8980 C.3     1  UNL1        0.0003
     18 C           4.8865    0.1110    1.6183 C.ar    1  UNL1        0.0618
     19 C           5.1906    0.1585    2.9287 C.ar    1  UNL1       -0.0392
     20 C           6.1630    1.1777    3.3399 C.ar    1  UNL1       -0.0010
     21 C           7.1607    0.9295    4.3119 C.ar    1  UNL1       -0.0524
     22 C           8.1788    1.8491    4.5033 C.ar    1  UNL1       -0.0582
     23 C           7.9988    3.1207    3.9738 C.ar    1  UNL1       -0.0485
     24 C           8.7153    4.2856    4.5651 C.3     1  UNL1       -0.0396
     25 C           7.0390    3.3520    2.9803 C.ar    1  UNL1       -0.0348
     26 C           6.2377    2.3209    2.5570 C.ar    1  UNL1        0.0494
     27 N           5.5404    2.4025    1.3409 N.ar    1  UNL1       -0.3217
     28 C           4.9099    1.3295    0.7807 C.ar    1  UNL1        0.2574
     29 O           4.3747    1.3290   -0.3212 O.2     1  UNL1       -0.2674
     30 C           6.7189   -2.3273    1.4662 C.3     1  UNL1       -0.0199
     31 C           7.3664   -1.1908    2.1796 C.3     1  UNL1       -0.0096
     32 C           8.8560   -1.2065    2.3801 C.3     1  UNL1       -0.0480
     33 C           9.2304   -2.4191    3.1981 C.3     1  UNL1       -0.0527
     34 C           8.7185   -3.6186    2.4626 C.3     1  UNL1       -0.0480
     35 C           7.2540   -3.4740    2.1966 C.3     1  UNL1       -0.0096
     36 H           7.2414   -7.3620    2.7173 H       1  UNL1        0.0230
     37 H           5.5385   -7.8725    2.3804 H       1  UNL1        0.0230
     38 H           5.9459   -6.7993    3.7885 H       1  UNL1        0.0230
     39 H           6.4684   -6.0187    0.9087 H       1  UNL1        0.0265
     40 H           6.7642   -5.3727    2.5346 H       1  UNL1        0.0265
     41 H           4.4915   -4.8004    2.9252 H       1  UNL1        0.0324
     42 H           3.9995   -5.8260    1.5918 H       1  UNL1        0.0324
     43 H           3.6240   -3.9393    1.1967 H       1  UNL1        0.0936
     44 H           2.0585   -3.9803   -2.1320 H       1  UNL1        0.0626
     45 H           2.8571   -2.3704   -2.4066 H       1  UNL1        0.0626
     46 H           1.4376   -0.9912    1.3964 H       1  UNL1        0.0694
     47 H           0.6902   -2.5669    1.7322 H       1  UNL1        0.0694
     48 H          -0.6280   -0.1208    0.5201 H       1  UNL1        0.0262
     49 H          -0.8551   -0.6966    2.1959 H       1  UNL1        0.0262
     50 H          -1.4274   -1.6825    0.8131 H       1  UNL1        0.0262
     51 H           4.7961   -2.4604    2.4951 H       1  UNL1        0.2047
     52 H           4.8632   -1.1859   -0.1625 H       1  UNL1        0.0869
     53 H           3.5157   -1.0783    1.0070 H       1  UNL1        0.0869
     54 H           5.1161   -0.7275    3.5464 H       1  UNL1        0.0630
     55 H           7.2367   -0.0120    4.8567 H       1  UNL1        0.0624
     56 H           9.0544    1.6062    5.1069 H       1  UNL1        0.0620
     57 H           9.4355    3.9701    5.3245 H       1  UNL1        0.0278
     58 H           7.9630    4.9132    5.0568 H       1  UNL1        0.0278
     59 H           9.2234    4.8527    3.7854 H       1  UNL1        0.0278
     60 H           6.9040    4.3408    2.5626 H       1  UNL1        0.0641
     61 H           5.5828    3.2478    0.7872 H       1  UNL1        0.1689
     62 H           6.9711   -2.3275    0.4066 H       1  UNL1        0.0851
     63 H           6.9868   -1.2499    3.2015 H       1  UNL1        0.0320
     64 H           7.1951   -0.2909    1.6066 H       1  UNL1        0.0320
     65 H           9.1448   -0.3035    2.9186 H       1  UNL1        0.0267
     66 H           9.3197   -1.1909    1.3935 H       1  UNL1        0.0267
     67 H           8.7669   -2.3753    4.1959 H       1  UNL1        0.0265
     68 H          10.3091   -2.4739    3.3201 H       1  UNL1        0.0265
     69 H           8.8924   -4.5455    3.0160 H       1  UNL1        0.0267
     70 H           9.1933   -3.7062    1.4823 H       1  UNL1        0.0267
     71 H           6.6800   -3.6042    3.1387 H       1  UNL1        0.0320
     72 H           7.1234   -4.1648    1.3880 H       1  UNL1        0.0320
@<TRIPOS>UNITY_ATOM_ATTR
16 1
charge 1
@<TRIPOS>BOND
     1     1     2    1
     2     2     3    1
     3     3     4    1
     4     4     5    1
     5     5     6   ar
     6     6     7   ar
     7     7     8   ar
     8     8     9   ar
     9     5     9   ar
    10     9    10    1
    11    10    11    1
    12    11    12    2
    13    11    13    1
    14    13    14    1
    15    14    15    1
    16    17    18    1
    17    18    19   ar
    18    19    20   ar
    19    20    21   ar
    20    21    22   ar
    21    22    23   ar
    22    23    24    1
    23    23    25   ar
    24    25    26   ar
    25    20    26   ar
    26    26    27   ar
    27    27    28   ar
    28    18    28   ar
    29    28    29    2
    30    16    30    1
    31    30    31    1
    32    31    32    1
    33    32    33    1
    34    33    34    1
    35    34    35    1
    36    30    35    1
    37    16    17    1
    38    16     4    1
    39     1    36    1
    40     1    37    1
    41     1    38    1
    42     2    39    1
    43     2    40    1
    44     3    41    1
    45     3    42    1
    46     4    43    1
    47    10    44    1
    48    10    45    1
    49    14    46    1
    50    14    47    1
    51    15    48    1
    52    15    49    1
    53    15    50    1
    54    16    51    1
    55    17    52    1
    56    17    53    1
    57    19    54    1
    58    21    55    1
    59    22    56    1
    60    24    57    1
    61    24    58    1
    62    24    59    1
    63    25    60    1
    64    27    61    1
    65    30    62    1
    66    31    63    1
    67    31    64    1
    68    32    65    1
    69    32    66    1
    70    33    67    1
    71    33    68    1
    72    34    69    1
    73    34    70    1
    74    35    71    1
    75    35    72    1
