@<TRIPOS>MOLECULE
*****
 64 68 0 0 0
SMALL
GASTEIGER

@<TRIPOS>ATOM
      1 C           6.7820   -0.4765   -0.5128 C.3     1  UNL1       -0.0597
      2 C           5.6558    0.0394    0.3139 C.3     1  UNL1       -0.0051
      3 C           4.9996   -0.7945    1.3478 C.3     1  UNL1        0.0417
      4 C           5.7717   -1.1629    2.5860 C.ar    1  UNL1        0.1997
      5 N           5.3351   -2.0989    3.4216 N.ar    1  UNL1       -0.1075
      6 N           6.2993   -2.2759    4.3670 N.ar    1  UNL1       -0.0228
      7 N           7.2918   -1.4238    4.1814 N.ar    1  UNL1       -0.0434
      8 N           6.9732   -0.6584    3.0977 N.ar    1  UNL1       -0.2201
      9 C           8.0213    0.3281    2.6793 C.3     1  UNL1        0.0704
     10 C           7.6541    1.5875    1.8408 C.ar    1  UNL1       -0.0258
     11 C           6.4309    2.2813    2.0916 C.ar    1  UNL1       -0.0541
     12 C           5.7317    2.8908    1.0057 C.ar    1  UNL1       -0.0261
     13 C           6.3002    2.9514   -0.2730 C.ar    1  UNL1        0.1234
     14 F           5.5055    3.1892   -1.3314 F       1  UNL1       -0.2055
     15 C           7.5781    2.4437   -0.4918 C.ar    1  UNL1       -0.0261
     16 C           8.2647    1.7680    0.5577 C.ar    1  UNL1       -0.0541
     17 N           4.4350   -1.8441    0.4523 N.4     1  UNL1        0.2464
     18 C           2.9518   -1.6524    0.3945 C.3     1  UNL1       -0.0288
     19 C           2.4070   -2.6377   -0.5854 C.3     1  UNL1        0.0107
     20 C           0.9100   -2.5738   -0.6069 C.3     1  UNL1        0.0490
     21 O           0.4650   -3.6312   -1.4282 O.3     1  UNL1       -0.3948
     22 C           5.0749   -3.2303    0.5574 C.3     1  UNL1       -0.0001
     23 C           6.5925   -3.3220    0.4630 C.ar    1  UNL1        0.0588
     24 C           7.4036   -3.3811    1.6214 C.ar    1  UNL1       -0.0391
     25 C           8.8026   -3.0793    1.6034 C.ar    1  UNL1        0.0048
     26 C           9.7043   -2.8554    2.7387 C.ar    1  UNL1       -0.0070
     27 C          11.0796   -2.8347    2.4794 C.ar    1  UNL1        0.1669
     28 C          11.4539   -3.4177    1.3277 C.ar    1  UNL1        0.1683
     29 C          10.6718   -3.1931    0.2137 C.ar    1  UNL1        0.0099
     30 C           9.3056   -3.0232    0.3278 C.ar    1  UNL1        0.0785
     31 N           8.5947   -2.9902   -0.8268 N.ar    1  UNL1       -0.2125
     32 C           7.2713   -3.2047   -0.7266 C.ar    1  UNL1        0.2213
     33 O           6.5974   -3.0574   -1.9095 O.3     1  UNL1       -0.4921
     34 O          12.8079   -3.4403    1.1547 O.3     1  UNL1       -0.4525
     35 C          12.9748   -2.0882    1.5534 C.3     1  UNL1        0.2332
     36 O          12.0384   -1.8078    2.6757 O.3     1  UNL1       -0.4526
     37 H           7.3500    0.2183   -1.1120 H       1  UNL1        0.0232
     38 H           6.3541   -1.0797   -1.2843 H       1  UNL1        0.0232
     39 H           7.5168   -0.9249    0.1543 H       1  UNL1        0.0232
     40 H           4.9431    0.6113   -0.2799 H       1  UNL1        0.0322
     41 H           6.1054    0.6507    0.9856 H       1  UNL1        0.0322
     42 H           4.1665   -0.1973    1.7663 H       1  UNL1        0.0936
     43 H           8.7709   -0.2750    2.1475 H       1  UNL1        0.0560
     44 H           8.4732    0.6663    3.6144 H       1  UNL1        0.0560
     45 H           5.8213    1.9667    2.9444 H       1  UNL1        0.0622
     46 H           4.6470    3.0194    1.0669 H       1  UNL1        0.0646
     47 H           7.8943    2.3080   -1.5335 H       1  UNL1        0.0646
     48 H           9.0976    1.1239    0.2454 H       1  UNL1        0.0622
     49 H           4.6707   -1.5935   -0.5156 H       1  UNL1        0.2044
     50 H           2.5475   -1.7340    1.4063 H       1  UNL1        0.0815
     51 H           2.7652   -0.6231    0.0292 H       1  UNL1        0.0815
     52 H           2.6906   -3.6475   -0.2849 H       1  UNL1        0.0339
     53 H           2.8330   -2.4691   -1.5849 H       1  UNL1        0.0339
     54 H           0.5489   -1.6149   -0.9877 H       1  UNL1        0.0559
     55 H           0.5263   -2.7247    0.4071 H       1  UNL1        0.0559
     56 H           0.8099   -3.4957   -2.3285 H       1  UNL1        0.2094
     57 H           4.6856   -3.7862   -0.2950 H       1  UNL1        0.0869
     58 H           4.6894   -3.6450    1.4842 H       1  UNL1        0.0869
     59 H           6.9440   -3.6422    2.5606 H       1  UNL1        0.0630
     60 H           9.3342   -3.0315    3.7496 H       1  UNL1        0.0662
     61 H          11.1700   -3.1026   -0.7252 H       1  UNL1        0.0677
     62 H           7.2886   -2.7166   -2.5144 H       1  UNL1        0.2937
     63 H          12.7207   -1.4677    0.6685 H       1  UNL1        0.1166
     64 H          14.0432   -1.9332    1.7368 H       1  UNL1        0.1166
@<TRIPOS>UNITY_ATOM_ATTR
17 1
charge 1
@<TRIPOS>BOND
     1     1     2    1
     2     2     3    1
     3     3     4    1
     4     4     5   ar
     5     5     6   ar
     6     6     7   ar
     7     7     8   ar
     8     4     8   ar
     9     8     9    1
    10     9    10    1
    11    10    11   ar
    12    11    12   ar
    13    12    13   ar
    14    13    14    1
    15    13    15   ar
    16    15    16   ar
    17    10    16   ar
    18    18    19    1
    19    19    20    1
    20    20    21    1
    21    17    22    1
    22    22    23    1
    23    23    24   ar
    24    24    25   ar
    25    25    26   ar
    26    26    27   ar
    27    27    28   ar
    28    28    29   ar
    29    29    30   ar
    30    25    30   ar
    31    30    31   ar
    32    31    32   ar
    33    23    32   ar
    34    32    33    1
    35    28    34    1
    36    34    35    1
    37    35    36    1
    38    27    36    1
    39    17    18    1
    40    17     3    1
    41     1    37    1
    42     1    38    1
    43     1    39    1
    44     2    40    1
    45     2    41    1
    46     3    42    1
    47     9    43    1
    48     9    44    1
    49    11    45    1
    50    12    46    1
    51    15    47    1
    52    16    48    1
    53    17    49    1
    54    18    50    1
    55    18    51    1
    56    19    52    1
    57    19    53    1
    58    20    54    1
    59    20    55    1
    60    21    56    1
    61    22    57    1
    62    22    58    1
    63    24    59    1
    64    26    60    1
    65    29    61    1
    66    33    62    1
    67    35    63    1
    68    35    64    1
