REMARK  14 active torsions:
REMARK  status: ('A' for Active; 'I' for Inactive)
REMARK    1  A    between atoms: C_2  and  C_3 
REMARK    2  A    between atoms: C_3  and  C_4 
REMARK    3  A    between atoms: C_4  and  O_5 
REMARK    4  A    between atoms: O_5  and  C_6 
REMARK    5  A    between atoms: C_9  and  C_10 
REMARK    6  A    between atoms: C_10  and  O_12 
REMARK    7  A    between atoms: O_12  and  C_13 
REMARK    8  A    between atoms: C_16  and  C_17 
REMARK    9  A    between atoms: N_18  and  N_19 
REMARK       I    between atoms: N_19  and  C_20 
REMARK   10  A    between atoms: C_20  and  C_22 
REMARK   11  A    between atoms: C_22  and  O_23 
REMARK   12  A    between atoms: O_23  and  C_24 
REMARK   13  A    between atoms: C_27  and  O_28 
REMARK   14  A    between atoms: C_33  and  O_34 
ROOT
ATOM      1  C   UNL d   1      12.791   2.338   2.726  0.00  0.00     0.112 A 
ATOM      2  C   UNL d   1      13.568   3.362   2.143  0.00  0.00     0.041 A 
ATOM      3  C   UNL d   1      14.981   3.348   2.223  0.00  0.00     0.016 A 
ATOM      4  C   UNL d   1      15.637   2.347   2.948  0.00  0.00    -0.014 A 
ATOM      5  C   UNL d   1      14.857   1.314   3.494  0.00  0.00     0.052 A 
ATOM      6  C   UNL d   1      13.439   1.276   3.375  0.00  0.00     0.102 A 
ENDROOT
BRANCH   4   7
ATOM      7  C   UNL d   1      17.129   2.416   3.182  0.00  0.00     0.150 C 
ATOM      8  N   UNL d   1      17.753   1.530   3.900  0.00  0.00    -0.184 NA
BRANCH   8   9
ATOM      9  N   UNL d   1      19.120   1.644   4.129  0.00  0.00    -0.246 N 
ATOM     10  C   UNL d   1      19.739   0.652   4.914  0.00  0.00     0.261 C 
ATOM     11  O   UNL d   1      19.111  -0.287   5.408  0.00  0.00    -0.269 OA
ATOM     12  H   UNL d   1      19.630   2.430   3.743  0.00  0.00     0.192 HD
BRANCH  10  13
ATOM     13  C   UNL d   1      21.271   0.799   5.138  0.00  0.00     0.280 C 
BRANCH  13  14
ATOM     14  O   UNL d   1      21.780  -0.349   5.841  0.00  0.00    -0.342 OA
BRANCH  14  15
ATOM     15  C   UNL d   1      23.078  -0.346   6.272  0.00  0.00     0.069 A 
ATOM     16  C   UNL d   1      23.726  -1.587   6.317  0.00  0.00     0.039 A 
ATOM     17  C   UNL d   1      25.019  -1.707   6.853  0.00  0.00     0.039 A 
ATOM     18  C   UNL d   1      25.707  -0.576   7.295  0.00  0.00     0.068 A 
ATOM     19  C   UNL d   1      25.052   0.655   7.271  0.00  0.00     0.039 A 
ATOM     20  C   UNL d   1      23.744   0.769   6.771  0.00  0.00     0.039 A 
BRANCH  18  21
ATOM     21  O   UNL d   1      26.994  -0.779   7.717  0.00  0.00    -0.356 OA
ATOM     22  C   UNL d   1      27.745   0.390   8.042  0.00  0.00     0.210 C 
ENDBRANCH  18  21
ENDBRANCH  14  15
ENDBRANCH  13  14
ENDBRANCH  10  13
ENDBRANCH   8   9
ENDBRANCH   4   7
BRANCH   6  23
ATOM     23  O   UNL d   1      12.909   0.145   3.941  0.00  0.00    -0.353 OA
ATOM     24  C   UNL d   1      11.536  -0.169   3.803  0.00  0.00     0.210 C 
ENDBRANCH   6  23
BRANCH   1  25
ATOM     25  O   UNL d   1      11.386   2.392   2.492  0.00  0.00    -0.272 OA
BRANCH  25  26
ATOM     26  C   UNL d   1      10.531   2.489   3.590  0.00  0.00     0.298 C 
ATOM     27  O   UNL d   1      10.879   2.760   4.740  0.00  0.00    -0.259 OA
BRANCH  26  28
ATOM     28  C   UNL d   1       9.140   2.000   3.260  0.00  0.00     0.040 A 
ATOM     29  C   UNL d   1       8.331   1.435   4.268  0.00  0.00     0.020 A 
ATOM     30  C   UNL d   1       7.010   1.030   3.999  0.00  0.00     0.038 A 
ATOM     31  C   UNL d   1       6.458   1.228   2.733  0.00  0.00     0.068 A 
ATOM     32  C   UNL d   1       7.277   1.724   1.717  0.00  0.00     0.038 A 
ATOM     33  C   UNL d   1       8.617   2.076   1.968  0.00  0.00     0.020 A 
BRANCH  31  34
ATOM     34  O   UNL d   1       5.107   1.026   2.623  0.00  0.00    -0.351 OA
BRANCH  34  35
ATOM     35  C   UNL d   1       4.636   0.539   1.363  0.00  0.00     0.175 C 
BRANCH  35  36
ATOM     36  C   UNL d   1       3.106   0.548   1.355  0.00  0.00     0.026 C 
BRANCH  36  37
ATOM     37  C   UNL d   1       2.560  -0.069   0.067  0.00  0.00    -0.002 C 
ATOM     38  C   UNL d   1       1.041  -0.072   0.054  0.00  0.00     0.005 C 
ENDBRANCH  36  37
ENDBRANCH  35  36
ENDBRANCH  34  35
ENDBRANCH  31  34
ENDBRANCH  26  28
ENDBRANCH  25  26
ENDBRANCH   1  25
TORSDOF 14
