@<TRIPOS>MOLECULE
*****
 56 59 0 0 0
SMALL
GASTEIGER

@<TRIPOS>ATOM
      1 C          13.6686   -1.3862  -10.5859 C.3     1  UNL1        0.0820
      2 O          13.4399   -1.2721   -9.1711 O.3     1  UNL1       -0.4645
      3 C          12.3525   -1.9728   -8.7402 C.2     1  UNL1        0.3389
      4 O          11.6224   -2.6505   -9.4326 O.2     1  UNL1       -0.2450
      5 C          12.1518   -1.8210   -7.2703 C.ar    1  UNL1        0.0592
      6 C          11.6895   -2.9159   -6.5281 C.ar    1  UNL1       -0.0443
      7 C          11.2967   -2.7535   -5.1892 C.ar    1  UNL1       -0.0192
      8 C          11.4216   -1.5170   -4.5535 C.ar    1  UNL1        0.1207
      9 O          11.0392   -1.4898   -3.2289 O.3     1  UNL1       -0.4890
     10 C          11.3814   -0.2873   -2.5271 C.3     1  UNL1        0.1201
     11 C          11.1252   -0.3677   -0.9856 C.3     1  UNL1        0.1191
     12 N          11.8539   -1.4411   -0.3044 N.3     1  UNL1       -0.1784
     13 O          13.1143   -0.8325    0.1443 O.3     1  UNL1       -0.2698
     14 C          12.9463    0.5787    0.0477 C.3     1  UNL1        0.2084
     15 C          13.8763    1.1230   -1.0831 C.2     1  UNL1        0.2589
     16 O          13.4517    1.7867   -2.0347 O.2     1  UNL1       -0.2714
     17 N          15.2230    0.8301   -0.9957 N.am    1  UNL1       -0.3117
     18 C          16.0746    1.1739   -2.1153 C.3     1  UNL1        0.0156
     19 C          17.5298    0.9002   -1.8342 C.3     1  UNL1       -0.0092
     20 C          18.4948    1.1934   -2.9376 C.2     1  UNL1        0.0092
     21 C          19.7998    1.0184   -2.7358 C.ar    1  UNL1        0.0536
     22 C          20.5056    0.5817   -1.5853 C.ar    1  UNL1       -0.0129
     23 C          21.8354    0.6706   -1.6029 C.ar    1  UNL1        0.1244
     24 F          22.5263    0.4186   -0.4770 F       1  UNL1       -0.2055
     25 C          22.5582    1.0586   -2.7998 C.ar    1  UNL1       -0.0202
     26 C          21.9550    1.4305   -3.9513 C.ar    1  UNL1        0.0125
     27 C          20.4739    1.4456   -3.9661 C.ar    1  UNL1        0.2087
     28 N          19.6312    1.7821   -4.8692 N.2     1  UNL1       -0.2369
     29 C          18.2355    1.7127   -4.3254 C.3     1  UNL1        0.1661
     30 N          11.5381    0.8345   -0.2646 N.3     1  UNL1       -0.2627
     31 C          11.9054   -0.4293   -5.2938 C.ar    1  UNL1       -0.0192
     32 C          12.2661   -0.5774   -6.6447 C.ar    1  UNL1       -0.0443
     33 H          14.5823   -0.8365  -10.8348 H       1  UNL1        0.0661
     34 H          12.8409   -0.9410  -11.1485 H       1  UNL1        0.0661
     35 H          13.8129   -2.4316  -10.8815 H       1  UNL1        0.0661
     36 H          11.6087   -3.8975   -6.9914 H       1  UNL1        0.0627
     37 H          10.8662   -3.5944   -4.6487 H       1  UNL1        0.0654
     38 H          10.7818    0.5413   -2.9255 H       1  UNL1        0.0727
     39 H          12.4392   -0.1097   -2.7132 H       1  UNL1        0.0727
     40 H          10.0517   -0.5340   -0.8442 H       1  UNL1        0.0684
     41 H          12.1609   -2.1232   -0.9987 H       1  UNL1        0.1558
     42 H          13.2369    1.0671    0.9841 H       1  UNL1        0.0888
     43 H          15.5897    0.3812   -0.1598 H       1  UNL1        0.1488
     44 H          15.9303    2.2344   -2.3475 H       1  UNL1        0.0465
     45 H          15.7455    0.5871   -2.9803 H       1  UNL1        0.0465
     46 H          17.6444   -0.1571   -1.5579 H       1  UNL1        0.0327
     47 H          17.8259    1.4837   -0.9498 H       1  UNL1        0.0327
     48 H          19.9711    0.2430   -0.7064 H       1  UNL1        0.0654
     49 H          23.6406    1.0008   -2.7120 H       1  UNL1        0.0648
     50 H          22.5409    1.7148   -4.8173 H       1  UNL1        0.0684
     51 H          19.9129    2.0488   -5.8129 H       1  UNL1        0.4459
     52 H          17.6456    1.0251   -4.9372 H       1  UNL1        0.1077
     53 H          17.8087    2.7215   -4.3380 H       1  UNL1        0.1077
     54 H          11.4550    1.6687   -0.8402 H       1  UNL1        0.1265
     55 H          11.9781    0.5646   -4.8613 H       1  UNL1        0.0654
     56 H          12.5874    0.2941   -7.2093 H       1  UNL1        0.0627
@<TRIPOS>UNITY_ATOM_ATTR
28 1
charge 1
@<TRIPOS>BOND
     1     1     2    1
     2     2     3    1
     3     3     4    2
     4     3     5    1
     5     5     6   ar
     6     6     7   ar
     7     7     8   ar
     8     8     9    1
     9     9    10    1
    10    11    12    1
    11    12    13    1
    12    13    14    1
    13    14    15    1
    14    15    16    2
    15    15    17   am
    16    17    18    1
    17    18    19    1
    18    19    20    1
    19    20    21    2
    20    21    22   ar
    21    22    23   ar
    22    23    24    1
    23    23    25   ar
    24    25    26   ar
    25    26    27   ar
    26    21    27   ar
    27    27    28    2
    28    28    29    1
    29    20    29    1
    30    14    30    1
    31    11    30    1
    32     8    31   ar
    33    31    32   ar
    34     5    32   ar
    35    11    10    1
    36     1    33    1
    37     1    34    1
    38     1    35    1
    39     6    36    1
    40     7    37    1
    41    10    38    1
    42    10    39    1
    43    11    40    1
    44    12    41    1
    45    14    42    1
    46    17    43    1
    47    18    44    1
    48    18    45    1
    49    19    46    1
    50    19    47    1
    51    22    48    1
    52    25    49    1
    53    26    50    1
    54    28    51    1
    55    29    52    1
    56    29    53    1
    57    30    54    1
    58    31    55    1
    59    32    56    1
