REMARK  10 active torsions:
REMARK  status: ('A' for Active; 'I' for Inactive)
REMARK    1  A    between atoms: C_2  and  C_3 
REMARK    2  A    between atoms: C_3  and  C_4 
REMARK       I    between atoms: C_4  and  N_6 
REMARK    3  A    between atoms: N_6  and  C_7 
REMARK    4  A    between atoms: C_10  and  C_11 
REMARK       I    between atoms: C_11  and  N_13 
REMARK    5  A    between atoms: N_13  and  N_14 
REMARK    6  A    between atoms: N_14  and  C_15 
REMARK    7  A    between atoms: C_15  and  N_17 
REMARK       I    between atoms: N_17  and  C_18 
REMARK    8  A    between atoms: C_18  and  C_20 
REMARK    9  A    between atoms: C_24  and  C_25 
REMARK   10  A    between atoms: C_25  and  O_27 
ROOT
ATOM      1  N   UNL d   1      13.249  -1.701   1.276  0.00  0.00    -0.273 N 
ATOM      2  H   UNL d   1      13.742  -2.450   0.795  0.00  0.00     0.189 HD
ENDROOT
BRANCH   1   3
ATOM      3  N   UNL d   1      11.797  -1.804   1.244  0.00  0.00    -0.264 N 
ATOM      4  C   UNL d   1      11.123  -2.843   0.606  0.00  0.00     0.270 C 
ATOM      5  O   UNL d   1      11.724  -3.752   0.038  0.00  0.00    -0.266 OA
ATOM      6  H   UNL d   1      11.322  -1.026   1.695  0.00  0.00     0.190 HD
BRANCH   4   7
ATOM      7  C   UNL d   1       9.595  -2.811   0.604  0.00  0.00     0.033 A 
ATOM      8  C   UNL d   1       8.868  -3.814  -0.074  0.00  0.00     0.019 A 
ATOM      9  C   UNL d   1       7.454  -3.760  -0.200  0.00  0.00     0.030 A 
ATOM     10  C   UNL d   1       6.735  -2.716   0.385  0.00  0.00     0.034 A 
ATOM     11  C   UNL d   1       7.451  -1.747   1.092  0.00  0.00     0.030 A 
ATOM     12  C   UNL d   1       8.852  -1.794   1.211  0.00  0.00     0.019 A 
BRANCH  10  13
ATOM     13  N   UNL d   1       5.316  -2.651   0.311  0.00  0.00    -0.327 N 
ATOM     14  C   UNL d   1       4.643  -1.442   0.161  0.00  0.00     0.222 C 
ATOM     15  O   UNL d   1       5.215  -0.365  -0.005  0.00  0.00    -0.273 OA
ATOM     16  H   UNL d   1       4.800  -3.519   0.231  0.00  0.00     0.169 HD
BRANCH  14  17
ATOM     17  C   UNL d   1       3.118  -1.517   0.170  0.00  0.00     0.103 C 
BRANCH  17  18
ATOM     18  C   UNL d   1       2.532  -0.113  -0.058  0.00  0.00     0.005 C 
ATOM     19  C   UNL d   1       1.015  -0.094  -0.062  0.00  0.00     0.005 C 
ENDBRANCH  17  18
ENDBRANCH  14  17
ENDBRANCH  10  13
ENDBRANCH   4   7
ENDBRANCH   1   3
BRANCH   1  20
ATOM     20  C   UNL d   1      13.829  -0.611   1.957  0.00  0.00     0.193 C 
ATOM     21  S   UNL d   1      12.823   0.538   2.686  0.00  0.00    -0.039 SA
BRANCH  20  22
ATOM     22  N   UNL d   1      15.244  -0.573   1.970  0.00  0.00    -0.298 N 
ATOM     23  C   UNL d   1      16.048   0.388   2.629  0.00  0.00     0.257 C 
ATOM     24  O   UNL d   1      15.623   1.340   3.280  0.00  0.00    -0.267 OA
ATOM     25  H   UNL d   1      15.732  -1.328   1.509  0.00  0.00     0.171 HD
BRANCH  23  26
ATOM     26  C   UNL d   1      17.541   0.320   2.566  0.00  0.00     0.033 A 
ATOM     27  C   UNL d   1      18.267   0.721   3.710  0.00  0.00     0.017 A 
ATOM     28  C   UNL d   1      19.649   0.930   3.651  0.00  0.00     0.002 A 
ATOM     29  C   UNL d   1      20.330   0.688   2.461  0.00  0.00     0.017 A 
ATOM     30  C   UNL d   1      19.625   0.299   1.308  0.00  0.00     0.040 A 
ATOM     31  C   UNL d   1      18.225   0.121   1.363  0.00  0.00     0.034 A 
BRANCH  30  32
ATOM     32  C   UNL d   1      20.400   0.146   0.043  0.00  0.00     0.292 C 
ATOM     33  O   UNL d   1      21.617   0.294  -0.023  0.00  0.00    -0.259 OA
BRANCH  32  34
ATOM     34  O   UNL d   1      19.588  -0.168  -0.995  0.00  0.00    -0.323 OA
ATOM     35  C   UNL d   1      20.268  -0.329  -2.245  0.00  0.00     0.213 C 
ENDBRANCH  32  34
ENDBRANCH  30  32
ENDBRANCH  23  26
ENDBRANCH  20  22
ENDBRANCH   1  20
TORSDOF 10
