@<TRIPOS>MOLECULE
*****
 52 54 0 0 0
SMALL
GASTEIGER

@<TRIPOS>ATOM
      1 C           0.9960   -0.4672    0.4363 C.3     1  UNL1        0.0789
      2 O           2.4132   -0.3350    0.3888 O.3     1  UNL1       -0.4933
      3 C           3.0652   -0.9078   -0.6643 C.ar    1  UNL1        0.1413
      4 C           4.2063   -1.6476   -0.3059 C.ar    1  UNL1       -0.0164
      5 C           4.9633   -2.3507   -1.2593 C.ar    1  UNL1       -0.0369
      6 C           4.5796   -2.3228   -2.5985 C.ar    1  UNL1        0.0354
      7 N           5.2220   -3.1850   -3.5200 N.am    1  UNL1       -0.2857
      8 C           4.9506   -3.5118   -4.8236 C.2     1  UNL1        0.2141
      9 C           3.8333   -2.8872   -5.6193 C.3     1  UNL1        0.0125
     10 O           5.6601   -4.3616   -5.3756 O.2     1  UNL1       -0.2758
     11 C           3.5627   -1.4265   -2.9411 C.ar    1  UNL1       -0.0156
     12 C           2.7609   -0.7502   -2.0152 C.ar    1  UNL1        0.0774
     13 N           1.7009    0.0396   -2.5517 N.am    1  UNL1       -0.2812
     14 C           1.2252    1.1738   -1.9143 C.2     1  UNL1        0.2352
     15 O           1.9004    1.8096   -1.1088 O.2     1  UNL1       -0.2737
     16 C          -0.2172    1.5737   -2.2194 C.3     1  UNL1        0.1005
     17 N          -0.8224    2.2685   -1.0740 N.am    1  UNL1       -0.2150
     18 C          -1.9218    1.8735   -0.3587 C.2     1  UNL1        0.3100
     19 O          -2.3116    0.7510   -0.1413 O.2     1  UNL1       -0.2522
     20 N          -2.5475    3.0239    0.1066 N.am    1  UNL1       -0.2813
     21 C          -1.6400    4.1485    0.1181 C.3     1  UNL1        0.1361
     22 C          -1.1777    4.3642    1.5702 C.3     1  UNL1       -0.0308
     23 C          -2.2035    5.4137   -0.5260 C.ar    1  UNL1       -0.0016
     24 C          -2.1615    6.6284    0.2037 C.ar    1  UNL1       -0.0550
     25 C          -2.6943    7.8138   -0.2869 C.ar    1  UNL1       -0.0614
     26 C          -3.1911    7.8519   -1.5755 C.ar    1  UNL1       -0.0607
     27 C          -3.2022    6.6934   -2.3459 C.ar    1  UNL1       -0.0474
     28 C          -2.7271    5.4802   -1.8325 C.ar    1  UNL1        0.0235
     29 BR         -2.8448    4.0196   -3.0468 Br      1  UNL1       -0.0499
     30 C          -0.5027    3.5587   -0.7372 C.2     1  UNL1        0.2512
     31 O           0.4894    4.1790   -1.0927 O.2     1  UNL1       -0.2724
     32 H           0.6228    0.3262    1.0924 H       1  UNL1        0.0660
     33 H           0.7264   -1.4489    0.8155 H       1  UNL1        0.0660
     34 H           0.4574   -0.3690   -0.5032 H       1  UNL1        0.0660
     35 H           4.4897   -1.6906    0.7438 H       1  UNL1        0.0655
     36 H           5.8456   -2.8953   -0.9254 H       1  UNL1        0.0637
     37 H           5.9656   -3.7763   -3.1538 H       1  UNL1        0.1548
     38 H           3.0758   -2.3787   -5.0513 H       1  UNL1        0.0323
     39 H           3.2459   -3.6670   -6.1054 H       1  UNL1        0.0323
     40 H           4.2562   -2.1965   -6.3543 H       1  UNL1        0.0323
     41 H           3.4476   -1.0945   -3.9563 H       1  UNL1        0.0656
     42 H           1.4252   -0.1345   -3.5122 H       1  UNL1        0.1550
     43 H          -0.8446    0.7231   -2.5197 H       1  UNL1        0.0566
     44 H          -0.1663    2.2773   -3.0576 H       1  UNL1        0.0566
     45 H          -3.4876    3.0221    0.4809 H       1  UNL1        0.1516
     46 H          -2.0091    4.7509    2.1796 H       1  UNL1        0.0258
     47 H          -0.3527    5.0845    1.6204 H       1  UNL1        0.0258
     48 H          -0.8354    3.4484    2.0590 H       1  UNL1        0.0258
     49 H          -1.6942    6.7021    1.1833 H       1  UNL1        0.0621
     50 H          -2.7055    8.6979    0.3447 H       1  UNL1        0.0618
     51 H          -3.5569    8.7865   -1.9860 H       1  UNL1        0.0618
     52 H          -3.5945    6.7411   -3.3583 H       1  UNL1        0.0629
@<TRIPOS>BOND
     1     1     2    1
     2     2     3    1
     3     3     4   ar
     4     4     5   ar
     5     5     6   ar
     6     6     7    1
     7     7     8   am
     8     8     9    1
     9     8    10    2
    10     6    11   ar
    11    11    12   ar
    12     3    12   ar
    13    12    13    1
    14    13    14   am
    15    14    15    2
    16    14    16    1
    17    16    17    1
    18    17    18   am
    19    18    19    2
    20    18    20   am
    21    20    21    1
    22    21    22    1
    23    21    23    1
    24    23    24   ar
    25    24    25   ar
    26    25    26   ar
    27    26    27   ar
    28    27    28   ar
    29    23    28   ar
    30    28    29    1
    31    21    30    1
    32    17    30   am
    33    30    31    2
    34     1    32    1
    35     1    33    1
    36     1    34    1
    37     4    35    1
    38     5    36    1
    39     7    37    1
    40     9    38    1
    41     9    39    1
    42     9    40    1
    43    11    41    1
    44    13    42    1
    45    16    43    1
    46    16    44    1
    47    20    45    1
    48    22    46    1
    49    22    47    1
    50    22    48    1
    51    24    49    1
    52    25    50    1
    53    26    51    1
    54    27    52    1
