@<TRIPOS>MOLECULE
*****
 53 55 0 0 0
SMALL
GASTEIGER

@<TRIPOS>ATOM
      1 C          10.2855    7.1163  -11.9306 C.3     1  UNL1       -0.0306
      2 C          10.1961    8.5850  -11.5415 C.3     1  UNL1        0.0900
      3 O           9.4003    8.7303  -10.3510 O.3     1  UNL1       -0.4614
      4 C           9.2060   10.0158   -9.9473 C.2     1  UNL1        0.3392
      5 O           9.6286   11.0234  -10.5030 O.2     1  UNL1       -0.2450
      6 C           8.4326   10.0609   -8.6828 C.ar    1  UNL1        0.0591
      7 C           7.4690   11.0481   -8.4148 C.ar    1  UNL1       -0.0460
      8 C           6.8695   11.1378   -7.1335 C.ar    1  UNL1       -0.0397
      9 C           7.1933   10.2028   -6.1359 C.ar    1  UNL1        0.0335
     10 N           6.5072   10.1803   -4.8873 N.am    1  UNL1       -0.2846
     11 C           6.6503    9.1788   -3.9256 C.2     1  UNL1        0.2311
     12 O           7.4980    8.2829   -3.9429 O.2     1  UNL1       -0.2742
     13 C           5.7418    9.1828   -2.7121 C.3     1  UNL1        0.0969
     14 C           6.4539    9.7528   -1.5128 C.3     1  UNL1        0.0466
     15 C           6.1144   11.1599   -1.1399 C.2     1  UNL1        0.2397
     16 O           6.6888   11.6498   -0.1625 O.2     1  UNL1       -0.2736
     17 N           5.2634   11.9007   -1.8977 N.am    1  UNL1       -0.1590
     18 C           4.3802   11.4288   -2.7071 C.2     1  UNL1        0.1513
     19 N           3.5390   12.1578   -3.4818 N.pl3   1  UNL1       -0.2959
     20 C           3.2090   13.4840   -3.2324 C.ar    1  UNL1        0.0329
     21 C           1.8874   13.8424   -2.9762 C.ar    1  UNL1       -0.0402
     22 C           1.5590   15.1814   -2.8034 C.ar    1  UNL1       -0.0568
     23 C           2.5631   16.1604   -2.7899 C.ar    1  UNL1       -0.0474
     24 C           2.2022   17.5763   -2.4601 C.3     1  UNL1       -0.0395
     25 C           3.8990   15.7947   -3.0221 C.ar    1  UNL1       -0.0458
     26 C           5.0266   16.7770   -3.1197 C.3     1  UNL1       -0.0394
     27 C           4.2084   14.4512   -3.2126 C.ar    1  UNL1       -0.0373
     28 S           4.0963    9.7579   -3.0242 S.3     1  UNL1       -0.0795
     29 C           8.1755    9.2576   -6.4300 C.ar    1  UNL1       -0.0397
     30 C           8.7819    9.1732   -7.6770 C.ar    1  UNL1       -0.0460
     31 H          10.8799    6.9907  -12.8423 H       1  UNL1        0.0262
     32 H           9.2899    6.6963  -12.1070 H       1  UNL1        0.0262
     33 H          10.7478    6.5241  -11.1339 H       1  UNL1        0.0262
     34 H           9.7351    9.1456  -12.3617 H       1  UNL1        0.0695
     35 H          11.2058    8.9692  -11.3563 H       1  UNL1        0.0695
     36 H           7.1804   11.7470   -9.1995 H       1  UNL1        0.0626
     37 H           6.1658   11.9488   -6.9471 H       1  UNL1        0.0636
     38 H           5.7615   10.8575   -4.7779 H       1  UNL1        0.1548
     39 H           5.5693    8.1228   -2.4901 H       1  UNL1        0.0516
     40 H           7.5423    9.7094   -1.6517 H       1  UNL1        0.0375
     41 H           6.2219    9.1379   -0.6348 H       1  UNL1        0.0375
     42 H           2.9093   11.6540   -4.0902 H       1  UNL1        0.1539
     43 H           1.1138   13.0840   -2.8814 H       1  UNL1        0.0636
     44 H           0.5152   15.4571   -2.6739 H       1  UNL1        0.0621
     45 H           1.1294   17.6864   -2.2814 H       1  UNL1        0.0278
     46 H           2.4834   18.2420   -3.2800 H       1  UNL1        0.0278
     47 H           2.7239   17.8720   -1.5432 H       1  UNL1        0.0278
     48 H           4.6956   17.8080   -2.9922 H       1  UNL1        0.0278
     49 H           5.4807   16.7007   -4.1141 H       1  UNL1        0.0278
     50 H           5.7822   16.5640   -2.3581 H       1  UNL1        0.0278
     51 H           5.2431   14.1527   -3.3723 H       1  UNL1        0.0639
     52 H           8.5282    8.5447   -5.6995 H       1  UNL1        0.0636
     53 H           9.5445    8.4158   -7.8261 H       1  UNL1        0.0626
@<TRIPOS>BOND
     1     1     2    1
     2     2     3    1
     3     3     4    1
     4     4     5    2
     5     4     6    1
     6     6     7   ar
     7     7     8   ar
     8     8     9   ar
     9     9    10    1
    10    10    11   am
    11    11    12    2
    12    13    14    1
    13    14    15    1
    14    15    16    2
    15    15    17    1
    16    17    18    2
    17    18    19    1
    18    19    20    1
    19    20    21   ar
    20    21    22   ar
    21    22    23   ar
    22    23    24    1
    23    23    25   ar
    24    25    26    1
    25    25    27   ar
    26    20    27   ar
    27    18    28    1
    28    13    28    1
    29     9    29   ar
    30    29    30   ar
    31     6    30   ar
    32    13    11    1
    33     1    31    1
    34     1    32    1
    35     1    33    1
    36     2    34    1
    37     2    35    1
    38     7    36    1
    39     8    37    1
    40    10    38    1
    41    13    39    1
    42    14    40    1
    43    14    41    1
    44    19    42    1
    45    21    43    1
    46    22    44    1
    47    24    45    1
    48    24    46    1
    49    24    47    1
    50    26    48    1
    51    26    49    1
    52    26    50    1
    53    27    51    1
    54    29    52    1
    55    30    53    1
