@<TRIPOS>MOLECULE
*****
 38 40 0 0 0
SMALL
GASTEIGER

@<TRIPOS>ATOM
      1 C          -2.9766    1.4879   -0.0254 C.3     1  UNL1       -0.0206
      2 C          -1.7033    0.6940   -0.0179 C.ar    1  UNL1        0.0599
      3 N          -0.5432    1.3942   -0.0212 N.ar    1  UNL1       -0.2486
      4 C           0.6042    0.6895   -0.0117 C.ar    1  UNL1        0.0895
      5 C           1.8085    1.3726    0.0589 C.ar    1  UNL1       -0.0335
      6 C           3.0390    0.7048    0.0922 C.ar    1  UNL1       -0.0474
      7 C           3.0867   -0.6863    0.0018 C.ar    1  UNL1        0.0403
      8 C           4.3873   -1.4548   -0.0093 C.2     1  UNL1        0.2601
      9 O           4.3696   -2.6785   -0.1600 O.2     1  UNL1       -0.2687
     10 N           5.5755   -0.7360    0.1560 N.am    1  UNL1       -0.2325
     11 N           6.7838   -1.3923   -0.1048 N.pl3   1  UNL1       -0.2642
     12 C           8.0023   -0.7177    0.0754 C.ar    1  UNL1        0.0458
     13 C           8.1848    0.3163    1.0059 C.ar    1  UNL1       -0.0393
     14 C           9.4057    1.0025    1.1060 C.ar    1  UNL1       -0.0586
     15 C          10.4571    0.6916    0.2474 C.ar    1  UNL1       -0.0433
     16 C          10.2860   -0.3172   -0.6947 C.ar    1  UNL1        0.0428
     17 CL         11.5692   -0.6775   -1.7865 Cl      1  UNL1       -0.0835
     18 C           9.0803   -1.0258   -0.7714 C.ar    1  UNL1       -0.0210
     19 C           1.8599   -1.3798   -0.0720 C.ar    1  UNL1       -0.0221
     20 C           0.6203   -0.7216   -0.0465 C.ar    1  UNL1        0.0902
     21 N          -0.5431   -1.4123   -0.0358 N.ar    1  UNL1       -0.2486
     22 C          -1.7038   -0.6995    0.0036 C.ar    1  UNL1        0.0599
     23 C          -2.9876   -1.4712    0.1071 C.3     1  UNL1       -0.0206
     24 H          -2.7702    2.5621   -0.0683 H       1  UNL1        0.0293
     25 H          -3.5557    1.2924    0.8825 H       1  UNL1        0.0293
     26 H          -3.5817    1.2301   -0.9010 H       1  UNL1        0.0293
     27 H           1.7875    2.4595    0.1068 H       1  UNL1        0.0640
     28 H           3.9297    1.3128    0.1900 H       1  UNL1        0.0626
     29 H           5.6178    0.2715    0.0754 H       1  UNL1        0.1730
     30 H           6.7617   -2.4109   -0.1859 H       1  UNL1        0.1700
     31 H           7.3914    0.5717    1.7031 H       1  UNL1        0.0636
     32 H           9.5377    1.7779    1.8574 H       1  UNL1        0.0619
     33 H          11.3985    1.2320    0.3173 H       1  UNL1        0.0632
     34 H           8.9711   -1.8030   -1.5236 H       1  UNL1        0.0651
     35 H           1.8530   -2.4679   -0.1361 H       1  UNL1        0.0647
     36 H          -2.8007   -2.5483    0.1380 H       1  UNL1        0.0293
     37 H          -3.6334   -1.2606   -0.7511 H       1  UNL1        0.0293
     38 H          -3.5183   -1.1987    1.0266 H       1  UNL1        0.0293
@<TRIPOS>BOND
     1     1     2    1
     2     2     3   ar
     3     3     4   ar
     4     4     5   ar
     5     5     6   ar
     6     6     7   ar
     7     7     8    1
     8     8     9    2
     9     8    10   am
    10    10    11    1
    11    11    12    1
    12    12    13   ar
    13    13    14   ar
    14    14    15   ar
    15    15    16   ar
    16    16    17    1
    17    16    18   ar
    18    12    18   ar
    19     7    19   ar
    20    19    20   ar
    21     4    20   ar
    22    20    21   ar
    23    21    22   ar
    24     2    22   ar
    25    22    23    1
    26     1    24    1
    27     1    25    1
    28     1    26    1
    29     5    27    1
    30     6    28    1
    31    10    29    1
    32    11    30    1
    33    13    31    1
    34    14    32    1
    35    15    33    1
    36    18    34    1
    37    19    35    1
    38    23    36    1
    39    23    37    1
    40    23    38    1
