@<TRIPOS>MOLECULE
*****
 49 49 0 0 0
SMALL
GASTEIGER

@<TRIPOS>ATOM
      1 C           1.0947   -0.0027    0.4051 C.3     1  UNL1        0.0790
      2 O           2.4746   -0.0344    0.0337 O.3     1  UNL1       -0.4915
      3 C           2.9844   -1.0746   -0.7128 C.ar    1  UNL1        0.1615
      4 C           4.1014   -1.6957   -0.1164 C.ar    1  UNL1       -0.0157
      5 C           4.9060   -2.6361   -0.8086 C.ar    1  UNL1       -0.0509
      6 C           4.5819   -3.0513   -2.1068 C.ar    1  UNL1       -0.0212
      7 C           5.3271   -4.1482   -2.7998 C.2     1  UNL1       -0.0495
      8 C           5.0409   -4.6733   -4.0167 C.2     1  UNL1        0.0022
      9 C           5.7978   -5.8272   -4.6249 C.2     1  UNL1        0.2530
     10 O           6.7324   -6.3740   -4.0282 O.2     1  UNL1       -0.2693
     11 N           5.3734   -6.2308   -5.8846 N.am    1  UNL1       -0.2297
     12 N           6.0301   -7.3222   -6.5566 N.am    1  UNL1       -0.2180
     13 C           5.6048   -7.7191   -7.8148 C.2     1  UNL1        0.3160
     14 O           4.6719   -7.1604   -8.3988 O.2     1  UNL1       -0.2513
     15 N           6.2972   -8.7885   -8.3582 N.am    1  UNL1       -0.2982
     16 C           5.9740   -9.2940   -9.6949 C.3     1  UNL1        0.0133
     17 C           6.8592  -10.4567  -10.1838 C.3     1  UNL1       -0.0350
     18 C           6.4786  -10.9628  -11.5998 C.3     1  UNL1       -0.0453
     19 C           6.6017   -9.8586  -12.6521 C.3     1  UNL1       -0.0626
     20 C           7.3648  -12.1434  -12.0160 C.3     1  UNL1       -0.0626
     21 C           3.4974   -2.4016   -2.7003 C.ar    1  UNL1       -0.0092
     22 C           2.7088   -1.4206   -2.0472 C.ar    1  UNL1        0.1620
     23 O           1.7954   -0.9308   -2.9491 O.3     1  UNL1       -0.4914
     24 C           0.8164   -0.0774   -2.4308 C.3     1  UNL1        0.0790
     25 H           0.9697    0.5763    1.3245 H       1  UNL1        0.0660
     26 H           0.6502   -0.9948    0.5201 H       1  UNL1        0.0660
     27 H           0.5103    0.6116   -0.2813 H       1  UNL1        0.0660
     28 H           4.3694   -1.4353    0.9083 H       1  UNL1        0.0655
     29 H           5.7929   -3.0228   -0.3073 H       1  UNL1        0.0625
     30 H           6.1463   -4.5772   -2.2213 H       1  UNL1        0.0625
     31 H           4.2233   -4.2897   -4.6121 H       1  UNL1        0.0670
     32 H           4.6035   -5.8034   -6.3989 H       1  UNL1        0.1731
     33 H           6.8010   -7.7538   -6.0564 H       1  UNL1        0.1744
     34 H           7.0856   -9.1829   -7.8667 H       1  UNL1        0.1503
     35 H           6.0577   -8.4438  -10.3787 H       1  UNL1        0.0462
     36 H           4.9245   -9.6112   -9.6924 H       1  UNL1        0.0462
     37 H           6.7845  -11.2937   -9.4773 H       1  UNL1        0.0283
     38 H           7.9114  -10.1458  -10.1851 H       1  UNL1        0.0283
     39 H           5.4382  -11.3139  -11.5845 H       1  UNL1        0.0296
     40 H           7.6280   -9.4785  -12.6958 H       1  UNL1        0.0232
     41 H           5.9349   -9.0202  -12.4361 H       1  UNL1        0.0232
     42 H           6.3330  -10.2294  -13.6469 H       1  UNL1        0.0232
     43 H           8.4191  -11.8491  -12.0601 H       1  UNL1        0.0232
     44 H           7.0820  -12.5141  -13.0089 H       1  UNL1        0.0232
     45 H           7.2721  -12.9767  -11.3126 H       1  UNL1        0.0232
     46 H           3.2315   -2.6218   -3.7303 H       1  UNL1        0.0661
     47 H           0.1105    0.2660   -3.1873 H       1  UNL1        0.0660
     48 H           1.3106    0.8185   -2.0439 H       1  UNL1        0.0660
     49 H           0.2157   -0.6591   -1.7262 H       1  UNL1        0.0660
@<TRIPOS>BOND
     1     1     2    1
     2     2     3    1
     3     3     4   ar
     4     4     5   ar
     5     5     6   ar
     6     6     7    1
     7     7     8    2
     8     8     9    1
     9     9    10    2
    10     9    11   am
    11    11    12    1
    12    12    13   am
    13    13    14    2
    14    13    15   am
    15    15    16    1
    16    16    17    1
    17    17    18    1
    18    18    19    1
    19    18    20    1
    20     6    21   ar
    21    21    22   ar
    22     3    22   ar
    23    22    23    1
    24    23    24    1
    25     1    25    1
    26     1    26    1
    27     1    27    1
    28     4    28    1
    29     5    29    1
    30     7    30    1
    31     8    31    1
    32    11    32    1
    33    12    33    1
    34    15    34    1
    35    16    35    1
    36    16    36    1
    37    17    37    1
    38    17    38    1
    39    18    39    1
    40    19    40    1
    41    19    41    1
    42    19    42    1
    43    20    43    1
    44    20    44    1
    45    20    45    1
    46    21    46    1
    47    24    47    1
    48    24    48    1
    49    24    49    1
