REMARK  6 active torsions:
REMARK  status: ('A' for Active; 'I' for Inactive)
REMARK    1  A    between atoms: C_2  and  C_19 
REMARK    2  A    between atoms: N_3  and  N_4 
REMARK       I    between atoms: N_4  and  C_5 
REMARK    3  A    between atoms: C_5  and  C_7 
REMARK    4  A    between atoms: C_7  and  O_8 
REMARK    5  A    between atoms: O_8  and  C_9 
REMARK    6  A    between atoms: C_23  and  O_24 
ROOT
ATOM      1  N   UNL d   1       4.557   1.190   0.389  0.00  0.00    -0.245 N 
ATOM      2  C   UNL d   1       5.180   2.377   0.778  0.00  0.00     0.261 C 
ATOM      3  O   UNL d   1       4.559   3.392   1.106  0.00  0.00    -0.269 OA
ATOM      4  H   UNL d   1       5.106   0.411   0.048  0.00  0.00     0.192 HD
ENDROOT
BRANCH   2   5
ATOM      5  C   UNL d   1       6.726   2.328   0.765  0.00  0.00     0.280 C 
BRANCH   5   6
ATOM      6  O   UNL d   1       7.257   3.596   1.185  0.00  0.00    -0.341 OA
BRANCH   6   7
ATOM      7  C   UNL d   1       8.627   3.724   1.211  0.00  0.00     0.080 A 
ATOM      8  C   UNL d   1       9.421   3.289   0.147  0.00  0.00     0.037 A 
ATOM      9  C   UNL d   1      10.807   3.434   0.198  0.00  0.00     0.004 A 
ATOM     10  C   UNL d   1      11.409   4.038   1.299  0.00  0.00     0.012 A 
ATOM     11  C   UNL d   1      10.633   4.551   2.346  0.00  0.00    -0.023 A 
ATOM     12  C   UNL d   1      11.253   5.210   3.423  0.00  0.00     0.012 A 
ATOM     13  C   UNL d   1       9.221   4.408   2.309  0.00  0.00     0.007 A 
ATOM     14  C   UNL d   1      10.498   5.739   4.468  0.00  0.00     0.001 A 
ATOM     15  C   UNL d   1       9.113   5.618   4.443  0.00  0.00     0.001 A 
ATOM     16  C   UNL d   1       8.483   4.961   3.379  0.00  0.00     0.015 A 
ENDBRANCH   6   7
ENDBRANCH   5   6
ENDBRANCH   2   5
BRANCH   1  17
ATOM     17  N   UNL d   1       3.178   1.095   0.411  0.00  0.00    -0.176 NA
ATOM     18  C   UNL d   1       2.562  -0.006   0.079  0.00  0.00     0.061 C 
ATOM     19  C   UNL d   1       1.037  -0.002   0.079  0.00  0.00     0.073 C 
BRANCH  18  20
ATOM     20  C   UNL d   1       3.210  -1.292  -0.293  0.00  0.00    -0.008 A 
ATOM     21  C   UNL d   1       2.783  -2.007  -1.416  0.00  0.00     0.013 A 
ATOM     22  C   UNL d   1       3.463  -3.167  -1.798  0.00  0.00     0.004 A 
ATOM     23  C   UNL d   1       4.578  -3.600  -1.075  0.00  0.00     0.036 A 
ATOM     24  C   UNL d   1       4.982  -2.887   0.047  0.00  0.00     0.066 A 
ATOM     25  C   UNL d   1       4.281  -1.767   0.468  0.00  0.00     0.050 A 
BRANCH  24  26
ATOM     26  O   UNL d   1       6.088  -3.224   0.768  0.00  0.00    -0.361 OA
ATOM     27  H   UNL d   1       6.495  -4.019   0.385  0.00  0.00     0.217 HD
ENDBRANCH  24  26
ENDBRANCH  18  20
ENDBRANCH   1  17
TORSDOF 6
