@<TRIPOS>MOLECULE
*****
 59 63 0 0 0
SMALL
GASTEIGER

@<TRIPOS>ATOM
      1 C          -3.5182    0.0927   -0.0042 C.3     1  UNL1       -0.0237
      2 C          -2.0459   -0.0888    0.0021 C.ar    1  UNL1        0.0261
      3 N          -1.2068    1.0051   -0.0110 N.ar    1  UNL1       -0.3575
      4 C           0.1101    0.6160    0.0025 C.ar    1  UNL1        0.0474
      5 C           1.2892    1.3824    0.0030 C.ar    1  UNL1       -0.0378
      6 C           2.5114    0.7015   -0.0136 C.ar    1  UNL1       -0.0598
      7 C           2.5499   -0.6883   -0.0226 C.ar    1  UNL1       -0.0611
      8 C           1.3643   -1.4320   -0.0001 C.ar    1  UNL1       -0.0519
      9 C           0.1111   -0.7798    0.0103 C.ar    1  UNL1        0.0120
     10 C          -1.2634   -1.2424    0.0282 C.ar    1  UNL1        0.0646
     11 C          -1.6843   -2.6663    0.0672 C.2     1  UNL1        0.2464
     12 O          -0.8738   -3.5779    0.1062 O.2     1  UNL1       -0.2701
     13 N          -3.0516   -2.9281    0.0633 N.am    1  UNL1       -0.3095
     14 C          -3.5814   -4.2846    0.1043 C.3     1  UNL1        0.0315
     15 C          -5.1334   -4.3586    0.0919 C.3     1  UNL1        0.0593
     16 N          -5.6419   -5.7192    0.1328 N.ar    1  UNL1       -0.2448
     17 N          -4.7311   -6.7023    0.0274 N.ar    1  UNL1       -0.1770
     18 C          -5.4589   -7.8037    0.0343 C.ar    1  UNL1        0.0620
     19 C          -6.8417   -7.5731    0.1634 C.ar    1  UNL1        0.0784
     20 C          -8.0079   -8.3731    0.2407 C.ar    1  UNL1        0.1354
     21 N          -7.9738   -9.7646    0.3483 N.pl3   1  UNL1       -0.3096
     22 C          -6.6695  -10.3572    0.6759 C.3     1  UNL1        0.0396
     23 C          -6.8332  -11.7271    1.3040 C.3     1  UNL1        0.0719
     24 C          -7.4730  -11.5547    2.6726 C.3     1  UNL1       -0.0372
     25 O          -7.5683  -12.5990    0.4366 O.3     1  UNL1       -0.3708
     26 C          -8.8421  -12.0717   -0.0007 C.3     1  UNL1        0.0719
     27 C          -9.9148  -12.2273    1.0798 C.3     1  UNL1       -0.0372
     28 C          -8.7446  -10.6200   -0.5740 C.3     1  UNL1        0.0396
     29 N          -9.1840   -7.6974    0.3562 N.ar    1  UNL1       -0.2200
     30 C          -9.1545   -6.3388    0.4273 C.ar    1  UNL1        0.1204
     31 N          -8.0890   -5.4980    0.3682 N.ar    1  UNL1       -0.2162
     32 C          -6.9411   -6.1891    0.2302 C.ar    1  UNL1        0.1633
     33 H          -3.8249    1.1387   -0.0570 H       1  UNL1        0.0292
     34 H          -3.9393   -0.3361    0.9120 H       1  UNL1        0.0292
     35 H          -3.9485   -0.4193   -0.8723 H       1  UNL1        0.0292
     36 H          -1.5071    1.9709   -0.0334 H       1  UNL1        0.1656
     37 H           1.2698    2.4686    0.0088 H       1  UNL1        0.0638
     38 H           3.4447    1.2613   -0.0236 H       1  UNL1        0.0618
     39 H           3.5044   -1.2081   -0.0479 H       1  UNL1        0.0618
     40 H           1.4103   -2.5175    0.0009 H       1  UNL1        0.0624
     41 H          -3.7076   -2.1774    0.0273 H       1  UNL1        0.1491
     42 H          -3.1795   -4.7621    1.0072 H       1  UNL1        0.0480
     43 H          -3.1579   -4.8175   -0.7576 H       1  UNL1        0.0480
     44 H          -5.5220   -3.9062   -0.8264 H       1  UNL1        0.0525
     45 H          -5.5466   -3.8302    0.9558 H       1  UNL1        0.0525
     46 H          -4.9199   -8.7324   -0.0460 H       1  UNL1        0.0856
     47 H          -6.1478   -9.7539    1.4268 H       1  UNL1        0.0489
     48 H          -6.0759  -10.4511   -0.2413 H       1  UNL1        0.0489
     49 H          -5.8345  -12.1642    1.4365 H       1  UNL1        0.0609
     50 H          -8.3100  -10.8606    2.6059 H       1  UNL1        0.0255
     51 H          -6.8125  -11.0623    3.3880 H       1  UNL1        0.0255
     52 H          -7.8305  -12.5100    3.0583 H       1  UNL1        0.0255
     53 H          -9.1460  -12.7400   -0.8164 H       1  UNL1        0.0609
     54 H          -9.8562  -11.4922    1.8783 H       1  UNL1        0.0255
     55 H          -9.8417  -13.2116    1.5558 H       1  UNL1        0.0255
     56 H         -10.9112  -12.0778    0.6650 H       1  UNL1        0.0255
     57 H          -9.7483  -10.2383   -0.7870 H       1  UNL1        0.0489
     58 H          -8.1977  -10.6751   -1.5273 H       1  UNL1        0.0489
     59 H         -10.1235   -5.8569    0.5570 H       1  UNL1        0.1048
@<TRIPOS>BOND
     1     1     2    1
     2     2     3   ar
     3     3     4   ar
     4     4     5   ar
     5     5     6   ar
     6     6     7   ar
     7     7     8   ar
     8     8     9   ar
     9     4     9   ar
    10     9    10   ar
    11     2    10   ar
    12    10    11    1
    13    11    12    2
    14    11    13   am
    15    13    14    1
    16    14    15    1
    17    15    16    1
    18    16    17   ar
    19    17    18   ar
    20    18    19   ar
    21    19    20   ar
    22    20    21    1
    23    21    22    1
    24    22    23    1
    25    23    25    1
    26    25    26    1
    27    26    28    1
    28    21    28    1
    29    20    29   ar
    30    29    30   ar
    31    30    31   ar
    32    31    32   ar
    33    19    32   ar
    34    16    32   ar
    35    23    24    1
    36    26    27    1
    37     1    33    1
    38     1    34    1
    39     1    35    1
    40     3    36    1
    41     5    37    1
    42     6    38    1
    43     7    39    1
    44     8    40    1
    45    13    41    1
    46    14    42    1
    47    14    43    1
    48    15    44    1
    49    15    45    1
    50    18    46    1
    51    22    47    1
    52    22    48    1
    53    23    49    1
    54    24    50    1
    55    24    51    1
    56    24    52    1
    57    26    53    1
    58    27    54    1
    59    27    55    1
    60    27    56    1
    61    28    57    1
    62    28    58    1
    63    30    59    1
