REMARK  6 active torsions:
REMARK  status: ('A' for Active; 'I' for Inactive)
REMARK       I    between atoms: C_2  and  N_4 
REMARK    1  A    between atoms: N_4  and  C_5 
REMARK    2  A    between atoms: C_9  and  S_10 
REMARK    3  A    between atoms: S_10  and  C_11 
REMARK    4  A    between atoms: C_11  and  C_12 
REMARK       I    between atoms: C_12  and  N_14 
REMARK    5  A    between atoms: N_14  and  C_15 
REMARK    6  A    between atoms: N_25  and  C_26 
ROOT
ATOM      1  C   UNL d   1       4.659   0.652  -1.071  0.00  0.00     0.173 A 
ATOM      2  C   UNL d   1       5.339   1.743  -1.486  0.00  0.00     0.280 A 
ATOM      3  O   UNL d   1       4.865   2.840  -1.877  0.00  0.00    -0.265 OA
ATOM      4  N   UNL d   1       6.756   1.746  -1.461  0.00  0.00    -0.301 N 
ATOM      5  C   UNL d   1       7.473   0.649  -1.068  0.00  0.00     0.157 A 
ATOM      6  N   UNL d   1       6.842  -0.481  -0.703  0.00  0.00    -0.256 N 
ATOM      7  C   UNL d   1       5.411  -0.546  -0.651  0.00  0.00     0.286 A 
ATOM      8  O   UNL d   1       4.866  -1.599  -0.348  0.00  0.00    -0.265 OA
ATOM      9  H   UNL d   1       7.235   2.611  -1.756  0.00  0.00     0.171 HD
ENDROOT
BRANCH   5  10
ATOM     10  S   UNL d   1       9.281   0.786  -1.120  0.00  0.00    -0.084 SA
BRANCH  10  11
ATOM     11  C   UNL d   1      10.160  -0.921  -0.617  0.00  0.00     0.185 C 
BRANCH  11  12
ATOM     12  C   UNL d   1      11.955  -0.911  -0.523  0.00  0.00     0.231 C 
ATOM     13  O   UNL d   1      12.213   0.245  -0.872  0.00  0.00    -0.272 OA
ATOM     14  N   UNL d   1      13.159  -2.121  -0.051  0.00  0.00    -0.326 N 
ATOM     15  H   UNL d   1      12.219  -2.811   0.190  0.00  0.00     0.169 HD
BRANCH  14  16
ATOM     16  C   UNL d   1      15.118  -2.461   0.121  0.00  0.00     0.045 A 
ATOM     17  C   UNL d   1      14.403  -3.443   0.443  0.00  0.00     0.030 A 
ATOM     18  C   UNL d   1      15.550  -3.238   0.331  0.00  0.00     0.003 A 
ATOM     19  C   UNL d   1      16.340  -4.388   0.759  0.00  0.00     0.012 A 
ATOM     20  C   UNL d   1      17.575  -4.168   0.718  0.00  0.00    -0.024 A 
ATOM     21  C   UNL d   1      18.616  -5.391   1.179  0.00  0.00     0.012 C 
ATOM     22  C   UNL d   1      17.243  -2.897   0.319  0.00  0.00     0.001 A 
ATOM     23  C   UNL d   1      19.960  -5.328   1.460  0.00  0.00     0.001 C 
ATOM     24  C   UNL d   1      20.373  -4.128   1.028  0.00  0.00     0.001 C 
ATOM     25  C   UNL d   1      19.124  -3.062   0.402  0.00  0.00     0.014 C 
ENDBRANCH  14  16
ENDBRANCH  11  12
ENDBRANCH  10  11
ENDBRANCH   5  10
BRANCH   6  26
ATOM     26  C   UNL d   1       7.465  -1.629  -0.247  0.00  0.00     0.044 C 
ATOM     27  C   UNL d   1       7.458  -2.864  -0.912  0.00  0.00     0.030 C 
ATOM     28  C   UNL d   1       8.039  -4.010  -0.345  0.00  0.00     0.002 C 
ATOM     29  C   UNL d   1       8.901  -3.898   0.718  0.00  0.00     0.000 C 
ATOM     30  C   UNL d   1       9.107  -2.661   1.256  0.00  0.00     0.002 C 
ATOM     31  C   UNL d   1       8.203  -1.606   0.937  0.00  0.00     0.030 C 
ENDBRANCH   6  26
BRANCH   1  32
ATOM     32  N   UNL d   1       3.248   0.577  -1.035  0.00  0.00    -0.318 N 
ATOM     33  C   UNL d   1       2.562   0.058   0.068  0.00  0.00     0.218 C 
ATOM     34  C   UNL d   1       1.040   0.076   0.050  0.00  0.00     0.117 C 
ATOM     35  O   UNL d   1       3.135  -0.380   1.068  0.00  0.00    -0.274 OA
ATOM     36  H   UNL d   1       2.769   1.036  -1.807  0.00  0.00     0.169 HD
ENDBRANCH   1  32
TORSDOF 6
