@<TRIPOS>MOLECULE
*****
 29 29 0 0 0
SMALL
GASTEIGER

@<TRIPOS>ATOM
      1 C           3.0198   -1.3627   -0.1737 C.3     1  UNL1       -0.0526
      2 C           2.5066    0.0645    0.0509 C.3     1  UNL1        0.0493
      3 C           0.9600    0.0485    0.1199 C.3     1  UNL1        0.0200
      4 N           0.4646    0.7321    1.3216 N.pl3   1  UNL1       -0.3431
      5 C          -0.9085    0.9000    1.4970 C.ar    1  UNL1        0.0285
      6 C          -1.7925   -0.1736    1.3312 C.ar    1  UNL1       -0.0408
      7 C          -3.1653   -0.0334    1.5519 C.ar    1  UNL1       -0.0586
      8 C          -3.6895    1.2077    1.8957 C.ar    1  UNL1       -0.0433
      9 C          -2.8328    2.2990    2.0138 C.ar    1  UNL1        0.0427
     10 CL         -3.4913    3.8446    2.3989 Cl      1  UNL1       -0.0835
     11 C          -1.4524    2.1503    1.8232 C.ar    1  UNL1       -0.0225
     12 C           2.9997    0.9845   -1.0701 C.2     1  UNL1        0.2306
     13 O           2.2471    1.6239   -1.8138 O.2     1  UNL1       -0.2742
     14 N           4.3816    1.0681   -1.2107 N.am    1  UNL1       -0.2533
     15 N           4.9214    1.9670   -2.1637 N.3     1  UNL1       -0.2544
     16 H           4.1130   -1.4090   -0.1691 H       1  UNL1        0.0237
     17 H           2.6743   -1.7542   -1.1369 H       1  UNL1        0.0237
     18 H           2.6623   -2.0338    0.6157 H       1  UNL1        0.0237
     19 H           2.9268    0.4341    0.9957 H       1  UNL1        0.0407
     20 H           0.5033    0.4758   -0.7804 H       1  UNL1        0.0468
     21 H           0.6181   -0.9918    0.1673 H       1  UNL1        0.0468
     22 H           1.0649    1.4180    1.7649 H       1  UNL1        0.1461
     23 H          -1.4088   -1.1574    1.0785 H       1  UNL1        0.0636
     24 H          -3.8165   -0.8985    1.4638 H       1  UNL1        0.0619
     25 H          -4.7573    1.3159    2.0653 H       1  UNL1        0.0632
     26 H          -0.8094    3.0211    1.9170 H       1  UNL1        0.0651
     27 H           5.0121    0.6397   -0.5355 H       1  UNL1        0.1687
     28 H           4.1201    2.3880   -2.6609 H       1  UNL1        0.1405
     29 H           5.4082    1.4294   -2.8847 H       1  UNL1        0.1405
@<TRIPOS>BOND
     1     3     4    1
     2     4     5    1
     3     5     6   ar
     4     6     7   ar
     5     7     8   ar
     6     8     9   ar
     7     9    10    1
     8     9    11   ar
     9     5    11   ar
    10     2    12    1
    11    12    13    2
    12    12    14   am
    13    14    15    1
    14     2     3    1
    15     2     1    1
    16     1    16    1
    17     1    17    1
    18     1    18    1
    19     2    19    1
    20     3    20    1
    21     3    21    1
    22     4    22    1
    23     6    23    1
    24     7    24    1
    25     8    25    1
    26    11    26    1
    27    14    27    1
    28    15    28    1
    29    15    29    1
