REMARK  11 active torsions:
REMARK  status: ('A' for Active; 'I' for Inactive)
REMARK    1  A    between atoms: C_2  and  N_3 
REMARK    2  A    between atoms: N_3  and  C_4 
REMARK    3  A    between atoms: N_3  and  C_32 
REMARK    4  A    between atoms: C_4  and  C_5 
REMARK    5  A    between atoms: C_5  and  C_6 
REMARK    6  A    between atoms: C_6  and  N_7 
REMARK       I    between atoms: N_7  and  C_8 
REMARK    7  A    between atoms: C_8  and  C_10 
REMARK    8  A    between atoms: C_10  and  C_11 
REMARK    9  A    between atoms: C_11  and  C_12 
REMARK       I    between atoms: C_12  and  N_14 
REMARK   10  A    between atoms: N_14  and  C_15 
REMARK   11  A    between atoms: C_20  and  N_21 
ROOT
ATOM      1  C   UNL d   1      -6.710   2.724  -1.972  0.00  0.00     0.222 C 
ATOM      2  O   UNL d   1      -6.870   1.746  -1.253  0.00  0.00    -0.273 OA
ATOM      3  N   UNL d   1      -7.762   3.447  -2.527  0.00  0.00    -0.327 N 
ATOM      4  H   UNL d   1      -7.563   4.061  -3.310  0.00  0.00     0.169 HD
ENDROOT
BRANCH   1   5
ATOM      5  C   UNL d   1      -5.325   3.210  -2.362  0.00  0.00     0.112 C 
BRANCH   5   6
ATOM      6  C   UNL d   1      -4.234   2.334  -1.720  0.00  0.00     0.112 C 
BRANCH   6   7
ATOM      7  C   UNL d   1      -2.862   2.854  -2.106  0.00  0.00     0.217 C 
ATOM      8  N   UNL d   1      -1.784   2.165  -1.597  0.00  0.00    -0.361 N 
ATOM      9  H   UNL d   1      -1.918   1.353  -1.000  0.00  0.00     0.162 HD
ATOM     10  O   UNL d   1      -2.715   3.828  -2.827  0.00  0.00    -0.274 OA
BRANCH   8  11
ATOM     11  C   UNL d   1      -0.431   2.622  -1.938  0.00  0.00     0.124 C 
BRANCH  11  12
ATOM     12  C   UNL d   1       0.590   1.733  -1.286  0.00  0.00     0.039 C 
BRANCH  12  13
ATOM     13  C   UNL d   1       2.075   1.990  -1.466  0.00  0.00     0.124 C 
BRANCH  13  14
ATOM     14  N   UNL d   1       2.965   0.991  -0.820  0.00  0.00    -0.381 N 
BRANCH  14  15
ATOM     15  C   UNL d   1       2.584  -0.136   0.078  0.00  0.00     0.118 C 
ATOM     16  C   UNL d   1       1.117  -0.449   0.330  0.00  0.00     0.026 C 
ENDBRANCH  14  15
BRANCH  14  17
ATOM     17  C   UNL d   1       4.362   1.204  -0.934  0.00  0.00     0.030 A 
ATOM     18  C   UNL d   1       5.255   0.128  -1.102  0.00  0.00     0.029 A 
ATOM     19  C   UNL d   1       6.648   0.295  -1.067  0.00  0.00     0.002 A 
ATOM     20  C   UNL d   1       7.193   1.567  -0.966  0.00  0.00     0.000 A 
ATOM     21  C   UNL d   1       6.341   2.664  -0.923  0.00  0.00     0.002 A 
ATOM     22  C   UNL d   1       4.948   2.480  -0.867  0.00  0.00     0.029 A 
ENDBRANCH  14  17
ENDBRANCH  13  14
ENDBRANCH  12  13
ENDBRANCH  11  12
ENDBRANCH   8  11
ENDBRANCH   6   7
ENDBRANCH   5   6
ENDBRANCH   1   5
BRANCH   3  23
ATOM     23  C   UNL d   1      -9.111   3.142  -2.239  0.00  0.00     0.035 C 
ATOM     24  C   UNL d   1      -9.531   2.893  -0.932  0.00  0.00     0.032 C 
ATOM     25  C   UNL d   1     -10.892   2.777  -0.633  0.00  0.00     0.033 C 
ATOM     26  C   UNL d   1     -11.820   2.616  -1.665  0.00  0.00     0.044 A 
ATOM     27  N   UNL d   1     -13.095   2.278  -1.397  0.00  0.00    -0.342 N 
ATOM     28  C   UNL d   1     -11.397   2.731  -3.007  0.00  0.00    -0.001 A 
ATOM     29  C   UNL d   1     -14.007   1.940  -2.323  0.00  0.00     0.104 A 
ATOM     30  H   UNL d   1     -13.392   2.161  -0.434  0.00  0.00     0.167 HD
ATOM     31  C   UNL d   1     -13.621   1.988  -3.661  0.00  0.00     0.056 A 
ATOM     32  C   UNL d   1     -12.328   2.406  -4.016  0.00  0.00    -0.046 A 
ATOM     33  C   UNL d   1     -11.928   2.432  -5.468  0.00  0.00     0.049 C 
ATOM     34  C   UNL d   1     -10.057   3.121  -3.264  0.00  0.00     0.043 C 
BRANCH  29  35
ATOM     35  N   UNL d   1     -15.215   1.486  -1.863  0.00  0.00    -0.363 N 
ATOM     36  C   UNL d   1     -15.841   0.250  -2.390  0.00  0.00     0.150 C 
ATOM     37  C   UNL d   1     -17.107   0.532  -3.215  0.00  0.00     0.187 C 
ATOM     38  O   UNL d   1     -18.019   1.365  -2.489  0.00  0.00    -0.388 OA
ATOM     39  C   UNL d   1     -17.413   2.626  -2.183  0.00  0.00     0.187 C 
ATOM     40  C   UNL d   1     -16.183   2.439  -1.278  0.00  0.00     0.150 C 
ENDBRANCH  29  35
ENDBRANCH   3  23
TORSDOF 11
