@<TRIPOS>MOLECULE
*****
 50 53 0 0 0
SMALL
GASTEIGER

@<TRIPOS>ATOM
      1 N           0.9446    0.0606   -0.0571 N.1     1  UNL1       -0.1907
      2 C           2.2056    0.0606   -0.0571 C.1     1  UNL1        0.1044
      3 C           3.7256    0.0606   -0.0571 C.2     1  UNL1        0.1142
      4 C           4.3643    0.0596   -1.2447 C.2     1  UNL1       -0.0301
      5 C           3.7023    0.1026   -2.5095 C.ar    1  UNL1        0.0016
      6 C           4.0355   -0.7011   -3.5652 C.ar    1  UNL1        0.0133
      7 N           3.1203   -0.4999   -4.5772 N.ar    1  UNL1       -0.3417
      8 C           3.0794   -1.2056   -5.8703 C.3     1  UNL1        0.0484
      9 C           4.1706   -2.2464   -6.0175 C.ar    1  UNL1       -0.0264
     10 C           4.2073   -3.3594   -5.1567 C.ar    1  UNL1       -0.0568
     11 C           5.3216   -4.1958   -5.1208 C.ar    1  UNL1       -0.0601
     12 C           6.4249   -3.9104   -5.9219 C.ar    1  UNL1       -0.0434
     13 C           6.3692   -2.8499   -6.8250 C.ar    1  UNL1        0.0413
     14 CL          7.7464   -2.4810   -7.7890 Cl      1  UNL1       -0.0835
     15 C           5.2292   -2.0503   -6.9154 C.ar    1  UNL1       -0.0385
     16 C           2.2263    0.4919   -4.1927 C.ar    1  UNL1        0.0499
     17 C           1.1183    1.0689   -4.8385 C.ar    1  UNL1       -0.0376
     18 C           0.3874    2.0550   -4.1555 C.ar    1  UNL1       -0.0598
     19 C           0.7541    2.4795   -2.8877 C.ar    1  UNL1       -0.0611
     20 C           1.8846    1.9481   -2.2865 C.ar    1  UNL1       -0.0520
     21 C           2.6092    0.9130   -2.9151 C.ar    1  UNL1        0.0070
     22 C           4.4493    0.0191    1.2729 C.2     1  UNL1        0.2586
     23 O           3.7632    0.0309    2.3035 O.2     1  UNL1       -0.2691
     24 N           5.8517    0.0477    1.3024 N.am    1  UNL1       -0.2809
     25 C           6.5960    0.0549    2.5230 C.ar    1  UNL1        0.0341
     26 C           6.1828   -0.7095    3.6194 C.ar    1  UNL1       -0.0341
     27 C           6.7783   -0.5585    4.8776 C.ar    1  UNL1        0.0173
     28 C           7.8662    0.3042    5.0277 C.ar    1  UNL1        0.2733
     29 N           8.4120    0.5537    6.3722 N.pl3   1  UNL1        0.0796
     30 O           7.8682   -0.0076    7.3313 O.2     1  UNL1        0.0414
     31 O           9.3771    1.3298    6.4671 O.co2   1  UNL1       -0.5760
     32 C           8.3978    0.9572    3.9075 C.ar    1  UNL1        0.0173
     33 C           7.7477    0.8472    2.6599 C.ar    1  UNL1       -0.0341
     34 H           5.4437   -0.0140   -1.3008 H       1  UNL1        0.0638
     35 H           4.8290   -1.4307   -3.6420 H       1  UNL1        0.0815
     36 H           3.1736   -0.4299   -6.6399 H       1  UNL1        0.0541
     37 H           2.0949   -1.6773   -5.9636 H       1  UNL1        0.0541
     38 H           3.4082   -3.5136   -4.4310 H       1  UNL1        0.0621
     39 H           5.3443   -5.0386   -4.4348 H       1  UNL1        0.0618
     40 H           7.3251   -4.5123   -5.8329 H       1  UNL1        0.0632
     41 H           5.1919   -1.2480   -7.6487 H       1  UNL1        0.0635
     42 H           0.8127    0.7644   -5.8331 H       1  UNL1        0.0638
     43 H          -0.4853    2.5052   -4.6203 H       1  UNL1        0.0618
     44 H           0.1671    3.2145   -2.3436 H       1  UNL1        0.0618
     45 H           2.1530    2.2951   -1.2927 H       1  UNL1        0.0624
     46 H           6.3714    0.3008    0.4725 H       1  UNL1        0.1552
     47 H           5.3792   -1.4337    3.5094 H       1  UNL1        0.0638
     48 H           6.3627   -1.1014    5.7236 H       1  UNL1        0.0686
     49 H           9.2872    1.5805    4.0008 H       1  UNL1        0.0686
     50 H           8.1153    1.4576    1.8379 H       1  UNL1        0.0638
@<TRIPOS>UNITY_ATOM_ATTR
29 1
charge 1
31 1
charge -1
@<TRIPOS>BOND
     1     1     2    3
     2     2     3    1
     3     3     4    2
     4     4     5    1
     5     5     6   ar
     6     6     7   ar
     7     7     8    1
     8     8     9    1
     9     9    10   ar
    10    10    11   ar
    11    11    12   ar
    12    12    13   ar
    13    13    14    1
    14    13    15   ar
    15     9    15   ar
    16     7    16   ar
    17    16    17   ar
    18    17    18   ar
    19    18    19   ar
    20    19    20   ar
    21    20    21   ar
    22     5    21   ar
    23    16    21   ar
    24     3    22    1
    25    22    23    2
    26    22    24   am
    27    24    25    1
    28    25    26   ar
    29    26    27   ar
    30    27    28   ar
    31    28    29    1
    32    29    30    2
    33    29    31    1
    34    28    32   ar
    35    32    33   ar
    36    25    33   ar
    37     4    34    1
    38     6    35    1
    39     8    36    1
    40     8    37    1
    41    10    38    1
    42    11    39    1
    43    12    40    1
    44    15    41    1
    45    17    42    1
    46    18    43    1
    47    19    44    1
    48    20    45    1
    49    24    46    1
    50    26    47    1
    51    27    48    1
    52    32    49    1
    53    33    50    1
