REMARK  7 active torsions:
REMARK  status: ('A' for Active; 'I' for Inactive)
REMARK    1  A    between atoms: C_2  and  C_3 
REMARK       I    between atoms: C_2  and  N_15 
REMARK    2  A    between atoms: C_3  and  O_4 
REMARK    3  A    between atoms: O_4  and  C_5 
REMARK    4  A    between atoms: C_9  and  C_10 
REMARK    5  A    between atoms: N_15  and  N_16 
REMARK       I    between atoms: N_16  and  C_17 
REMARK    6  A    between atoms: C_17  and  C_19 
REMARK    7  A    between atoms: C_19  and  C_20 
ROOT
ATOM      1  O   UNL d   1       1.252  -0.328   0.089  0.00  0.00    -0.269 OA
ATOM      2  C   UNL d   1       2.487  -0.212   0.105  0.00  0.00     0.260 C 
ATOM      3  N   UNL d   1       3.294  -1.379   0.157  0.00  0.00    -0.266 N 
ATOM      4  H   UNL d   1       2.756  -2.248   0.207  0.00  0.00     0.190 HD
ENDROOT
BRANCH   3   5
ATOM      5  N   UNL d   1       4.823  -1.510   0.308  0.00  0.00    -0.267 N 
ATOM      6  C   UNL d   1       5.528  -2.827   0.479  0.00  0.00     0.237 C 
ATOM      7  O   UNL d   1       4.854  -3.858   0.413  0.00  0.00    -0.272 OA
ATOM      8  H   UNL d   1       5.312  -0.638   0.155  0.00  0.00     0.190 HD
BRANCH   6   9
ATOM      9  C   UNL d   1       7.292  -2.781   0.751  0.00  0.00     0.121 C 
BRANCH   9  10
ATOM     10  C   UNL d   1       8.544  -4.127   0.770  0.00  0.00     0.028 C 
ATOM     11  C   UNL d   1       8.750  -4.364  -0.549  0.00  0.00     0.094 C 
ATOM     12  N   UNL d   1       8.786  -5.697  -0.299  0.00  0.00    -0.285 NA
ATOM     13  C   UNL d   1      10.046  -5.817   0.206  0.00  0.00     0.015 A 
ATOM     14  H   UNL d   1       8.075  -6.259   0.146  0.00  0.00     0.128 HD
ATOM     15  C   UNL d   1      10.881  -6.898  -0.301  0.00  0.00     0.024 A 
ATOM     16  C   UNL d   1      10.200  -4.601   1.177  0.00  0.00    -0.025 A 
ATOM     17  C   UNL d   1      12.194  -7.097  -0.014  0.00  0.00     0.002 A 
ATOM     18  C   UNL d   1      12.641  -6.147   0.840  0.00  0.00     0.001 A 
ATOM     19  C   UNL d   1      11.675  -5.097   1.365  0.00  0.00     0.010 A 
ENDBRANCH   9  10
ENDBRANCH   6   9
ENDBRANCH   3   5
BRANCH   2  20
ATOM     20  C   UNL d   1       3.123   1.199   0.032  0.00  0.00     0.280 C 
BRANCH  20  21
ATOM     21  O   UNL d   1       2.166   2.280   0.083  0.00  0.00    -0.342 OA
BRANCH  21  22
ATOM     22  C   UNL d   1       2.637   3.561  -0.090  0.00  0.00     0.070 A 
ATOM     23  C   UNL d   1       1.989   4.588   0.612  0.00  0.00     0.037 A 
ATOM     24  C   UNL d   1       2.327   5.934   0.404  0.00  0.00     0.004 A 
ATOM     25  C   UNL d   1       3.357   6.264  -0.472  0.00  0.00     0.016 A 
ATOM     26  C   UNL d   1       4.005   5.254  -1.195  0.00  0.00     0.050 A 
ATOM     27  C   UNL d   1       3.634   3.908  -0.999  0.00  0.00     0.052 A 
BRANCH  26  28
ATOM     28  C   UNL d   1       5.054   5.614  -2.215  0.00  0.00     0.417 C 
ATOM     29  F   UNL d   1       4.576   6.442  -3.183  0.00  0.00    -0.166 F 
ATOM     30  F   UNL d   1       6.124   6.250  -1.665  0.00  0.00    -0.166 F 
ATOM     31  F   UNL d   1       5.560   4.529  -2.868  0.00  0.00    -0.166 F 
ENDBRANCH  26  28
ENDBRANCH  21  22
ENDBRANCH  20  21
ENDBRANCH   2  20
TORSDOF 7
