REMARK  2 active torsions:
REMARK  status: ('A' for Active; 'I' for Inactive)
REMARK    1  A    between atoms: C_10  and  C_11 
REMARK    2  A    between atoms: C_13  and  C_14 
ROOT
ATOM      1  C   UNL d   1       1.244  -1.847   1.444  0.00  0.00     0.207 A 
ATOM      2  N   UNL d   1       0.451  -1.431   2.421  0.00  0.00    -0.202 NA
ATOM      3  C   UNL d   1      -0.690  -2.224   2.262  0.00  0.00     0.189 A 
ATOM      4  N   UNL d   1      -0.562  -3.116   1.263  0.00  0.00    -0.105 NA
ATOM      5  O   UNL d   1       0.692  -2.866   0.720  0.00  0.00    -0.193 OA
ENDROOT
BRANCH   1   6
ATOM      6  C   UNL d   1       2.516  -1.225   0.839  0.00  0.00     0.307 C 
ATOM      7  C   UNL d   1       3.681  -1.327   1.869  0.00  0.00     0.103 C 
ATOM      8  C   UNL d   1       4.054  -0.001   2.373  0.00  0.00     0.037 A 
ATOM      9  N   UNL d   1       4.846   0.291   3.465  0.00  0.00    -0.354 N 
ATOM     10  C   UNL d   1       3.690   1.194   1.823  0.00  0.00     0.061 A 
ATOM     11  C   UNL d   1       4.954   1.622   3.612  0.00  0.00     0.180 A 
ATOM     12  H   UNL d   1       5.273  -0.390   4.080  0.00  0.00     0.166 HD
ATOM     13  N   UNL d   1       4.256   2.173   2.619  0.00  0.00    -0.353 N 
ATOM     14  H   UNL d   1       4.152   3.179   2.480  0.00  0.00     0.166 HD
ATOM     15  C   UNL d   1       2.832   1.347   0.643  0.00  0.00     0.332 C 
ATOM     16  N   UNL d   1       2.272   0.088   0.118  0.00  0.00     0.102 N 
ATOM     17  C   UNL d   1       0.841   0.280  -0.156  0.00  0.00     0.311 C 
ENDBRANCH   1   6
BRANCH   3  18
ATOM     18  C   UNL d   1      -1.869  -2.222   3.158  0.00  0.00     0.015 A 
ATOM     19  C   UNL d   1      -2.189  -3.406   3.835  0.00  0.00     0.016 A 
ATOM     20  C   UNL d   1      -3.275  -3.479   4.723  0.00  0.00     0.013 A 
ATOM     21  C   UNL d   1      -4.091  -2.369   4.976  0.00  0.00    -0.026 A 
ATOM     22  C   UNL d   1      -5.134  -2.435   5.929  0.00  0.00     0.012 A 
ATOM     23  C   UNL d   1      -3.845  -1.176   4.263  0.00  0.00    -0.025 A 
ATOM     24  C   UNL d   1      -5.948  -1.333   6.188  0.00  0.00     0.001 A 
ATOM     25  C   UNL d   1      -5.744  -0.160   5.473  0.00  0.00     0.001 A 
ATOM     26  C   UNL d   1      -4.716  -0.086   4.515  0.00  0.00     0.012 A 
ATOM     27  C   UNL d   1      -2.736  -1.123   3.348  0.00  0.00     0.027 A 
ENDBRANCH   3  18
TORSDOF 2
