@<TRIPOS>MOLECULE
*****
 48 50 0 0 0
SMALL
GASTEIGER

@<TRIPOS>ATOM
      1 C           1.1630   -0.0580   -0.0293 C.3     1  UNL1        0.0820
      2 O           2.5984   -0.0760   -0.0244 O.3     1  UNL1       -0.4645
      3 C           3.1535    0.4735   -1.1393 C.2     1  UNL1        0.3389
      4 O           2.5506    0.9538   -2.0763 O.2     1  UNL1       -0.2450
      5 C           4.6409    0.4302   -1.0826 C.ar    1  UNL1        0.0590
      6 C           5.3640    1.5075   -1.6064 C.ar    1  UNL1       -0.0472
      7 C           6.7570    1.4261   -1.7327 C.ar    1  UNL1       -0.0533
      8 C           7.4664    0.3052   -1.2692 C.ar    1  UNL1       -0.0178
      9 C           8.9389    0.2866   -1.3214 C.ar    1  UNL1       -0.0178
     10 C           9.6934    1.2930   -0.6990 C.ar    1  UNL1       -0.0533
     11 C          11.0863    1.3404   -0.8432 C.ar    1  UNL1       -0.0491
     12 C          11.7741    0.3310   -1.5420 C.ar    1  UNL1        0.0371
     13 C          13.2679    0.3791   -1.5699 C.2     1  UNL1        0.2483
     14 O          13.7980    1.2901   -0.9341 O.2     1  UNL1       -0.2699
     15 N          13.9690   -0.5840   -2.3124 N.am    1  UNL1       -0.2814
     16 C          15.3825   -0.7107   -2.2974 C.ar    1  UNL1        0.0354
     17 C          16.1307   -1.1807   -3.3593 C.ar    1  UNL1       -0.0404
     18 C          17.5231   -1.3299   -3.2002 C.ar    1  UNL1       -0.0583
     19 C          18.1596   -1.0396   -1.9707 C.ar    1  UNL1       -0.0403
     20 C          17.3945   -0.6119   -0.8857 C.ar    1  UNL1        0.0365
     21 N          17.9402   -0.4019    0.4016 N.am    1  UNL1       -0.2696
     22 C          17.3878   -0.0812    1.6098 C.2     1  UNL1        0.3013
     23 N          16.0669    0.1228    1.7827 N.am    1  UNL1       -0.3131
     24 O          18.1132    0.0465    2.5973 O.2     1  UNL1       -0.2527
     25 C          16.0517   -0.4109   -1.1276 C.ar    1  UNL1       -0.0192
     26 C          11.0313   -0.6871   -2.1383 C.ar    1  UNL1       -0.0491
     27 C           9.6328   -0.7047   -2.0290 C.ar    1  UNL1       -0.0533
     28 C           6.7261   -0.7726   -0.7563 C.ar    1  UNL1       -0.0533
     29 C           5.3256   -0.7124   -0.6591 C.ar    1  UNL1       -0.0472
     30 H           0.8070   -0.4725    0.9193 H       1  UNL1        0.0661
     31 H           0.7740   -0.6821   -0.8410 H       1  UNL1        0.0661
     32 H           0.7796    0.9647   -0.1173 H       1  UNL1        0.0661
     33 H           4.8516    2.4113   -1.9298 H       1  UNL1        0.0626
     34 H           7.2912    2.2391   -2.2241 H       1  UNL1        0.0624
     35 H           9.2003    2.0508   -0.0899 H       1  UNL1        0.0624
     36 H          11.6273    2.1816   -0.4069 H       1  UNL1        0.0625
     37 H          13.4771   -1.2756   -2.8553 H       1  UNL1        0.1551
     38 H          15.6707   -1.3383   -4.3294 H       1  UNL1        0.0636
     39 H          18.1177   -1.6763   -4.0441 H       1  UNL1        0.0619
     40 H          19.2412   -1.1437   -1.9021 H       1  UNL1        0.0636
     41 H          18.9423   -0.5271    0.4925 H       1  UNL1        0.1564
     42 H          15.3013   -0.1312    1.1916 H       1  UNL1        0.1465
     43 H          15.7487    0.3855    2.7021 H       1  UNL1        0.1465
     44 H          15.4394    0.0237   -0.3886 H       1  UNL1        0.0655
     45 H          11.4997   -1.4793   -2.7072 H       1  UNL1        0.0625
     46 H           9.0821   -1.5035   -2.5203 H       1  UNL1        0.0624
     47 H           7.2383   -1.6772   -0.4335 H       1  UNL1        0.0624
     48 H           4.7792   -1.5699   -0.2751 H       1  UNL1        0.0626
@<TRIPOS>BOND
     1     1     2    1
     2     2     3    1
     3     3     4    2
     4     3     5    1
     5     5     6   ar
     6     6     7   ar
     7     7     8   ar
     8     8     9    1
     9     9    10   ar
    10    10    11   ar
    11    11    12   ar
    12    12    13    1
    13    13    14    2
    14    13    15   am
    15    15    16    1
    16    16    17   ar
    17    17    18   ar
    18    18    19   ar
    19    19    20   ar
    20    20    21    1
    21    21    22   am
    22    22    23   am
    23    22    24    2
    24    20    25   ar
    25    16    25   ar
    26    12    26   ar
    27    26    27   ar
    28     9    27   ar
    29     8    28   ar
    30    28    29   ar
    31     5    29   ar
    32     1    30    1
    33     1    31    1
    34     1    32    1
    35     6    33    1
    36     7    34    1
    37    10    35    1
    38    11    36    1
    39    15    37    1
    40    17    38    1
    41    18    39    1
    42    19    40    1
    43    21    41    1
    44    23    42    1
    45    23    43    1
    46    25    44    1
    47    26    45    1
    48    27    46    1
    49    28    47    1
    50    29    48    1
