@<TRIPOS>MOLECULE
*****
 43 45 0 0 0
SMALL
GASTEIGER

@<TRIPOS>ATOM
      1 N           1.1325   -0.1025    0.0377 N.3     1  UNL1       -0.2035
      2 S           2.8185   -0.1319   -0.0534 S.O2    1  UNL1        0.0574
      3 O           3.1717   -1.3607   -0.7348 O.2     1  UNL1       -0.1532
      4 O           3.1844    1.1402   -0.6181 O.2     1  UNL1       -0.1532
      5 C           3.3358   -0.2694    1.6511 C.ar    1  UNL1        0.1239
      6 C           3.4564   -1.5617    2.2429 C.ar    1  UNL1       -0.0218
      7 C           3.9400   -1.7396    3.5681 C.ar    1  UNL1        0.0401
      8 C           4.0256   -3.1371    4.1850 C.2     1  UNL1        0.2602
      9 O           3.6732   -4.1158    3.5323 O.2     1  UNL1       -0.2687
     10 N           4.4980   -3.2526    5.4919 N.am    1  UNL1       -0.2311
     11 N           4.5929   -4.5233    6.1855 N.am    1  UNL1       -0.2453
     12 C           5.1180   -4.5437    7.4928 C.2     1  UNL1        0.1510
     13 S           5.6614   -3.0970    8.1900 S.2     1  UNL1       -0.0171
     14 N           5.1653   -5.8207    8.0939 N.am    1  UNL1       -0.2953
     15 C           5.6535   -6.0873    9.4332 C.ar    1  UNL1        0.0404
     16 C           5.1976   -5.2810   10.4864 C.ar    1  UNL1       -0.0399
     17 C           5.7225   -5.3811   11.7727 C.ar    1  UNL1       -0.0594
     18 C           6.6838   -6.3401   12.0550 C.ar    1  UNL1       -0.0539
     19 C           7.0949   -7.2411   11.0669 C.ar    1  UNL1       -0.0161
     20 C           8.0317   -8.2328   11.4081 C.ar    1  UNL1       -0.0540
     21 C           8.4802   -9.1441   10.4589 C.ar    1  UNL1       -0.0612
     22 C           8.0027   -9.0637    9.1566 C.ar    1  UNL1       -0.0611
     23 C           7.0757   -8.0733    8.7971 C.ar    1  UNL1       -0.0523
     24 C           6.5790   -7.1387    9.7346 C.ar    1  UNL1        0.0033
     25 C           4.3240   -0.5910    4.2701 C.ar    1  UNL1       -0.0481
     26 C           4.2130    0.6804    3.6854 C.ar    1  UNL1       -0.0408
     27 C           3.7154    0.8539    2.3874 C.ar    1  UNL1        0.0673
     28 CL          3.5852    2.4942    1.8657 Cl      1  UNL1       -0.0815
     29 H           0.7691   -0.0955   -0.9219 H       1  UNL1        0.1442
     30 H           0.7941    0.7250    0.5304 H       1  UNL1        0.1442
     31 H           3.1727   -2.4402    1.6601 H       1  UNL1        0.0645
     32 H           4.8026   -2.4652    6.0577 H       1  UNL1        0.1731
     33 H           4.3113   -5.3409    5.6483 H       1  UNL1        0.1718
     34 H           5.1016   -6.6282    7.4868 H       1  UNL1        0.1539
     35 H           4.4165   -4.5463   10.3158 H       1  UNL1        0.0636
     36 H           5.3847   -4.6987   12.5479 H       1  UNL1        0.0618
     37 H           7.1011   -6.3797   13.0603 H       1  UNL1        0.0624
     38 H           8.4209   -8.3059   12.4237 H       1  UNL1        0.0624
     39 H           9.2028   -9.9085   10.7359 H       1  UNL1        0.0618
     40 H           8.3571   -9.7718    8.4116 H       1  UNL1        0.0618
     41 H           6.7522   -8.0400    7.7622 H       1  UNL1        0.0624
     42 H           4.7163   -0.6299    5.2808 H       1  UNL1        0.0625
     43 H           4.5219    1.5524    4.2626 H       1  UNL1        0.0633
@<TRIPOS>BOND
     1     1     2    1
     2     2     3    2
     3     2     4    2
     4     2     5    1
     5     5     6   ar
     6     6     7   ar
     7     7     8    1
     8     8     9    2
     9     8    10   am
    10    10    11    1
    11    11    12    1
    12    12    13    2
    13    12    14    1
    14    14    15    1
    15    15    16   ar
    16    16    17   ar
    17    17    18   ar
    18    18    19   ar
    19    19    20   ar
    20    20    21   ar
    21    21    22   ar
    22    22    23   ar
    23    23    24   ar
    24    15    24   ar
    25    19    24   ar
    26     7    25   ar
    27    25    26   ar
    28    26    27   ar
    29     5    27   ar
    30    27    28    1
    31     1    29    1
    32     1    30    1
    33     6    31    1
    34    10    32    1
    35    11    33    1
    36    14    34    1
    37    16    35    1
    38    17    36    1
    39    18    37    1
    40    20    38    1
    41    21    39    1
    42    22    40    1
    43    23    41    1
    44    25    42    1
    45    26    43    1
