@<TRIPOS>MOLECULE
*****
 51 54 0 0 0
SMALL
GASTEIGER

@<TRIPOS>ATOM
      1 C           1.0601   -0.0526    0.0185 C.3     1  UNL1       -0.0456
      2 C           2.5876   -0.0327    0.1799 C.3     1  UNL1        0.0366
      3 C           3.0431   -1.4616    0.4982 C.3     1  UNL1        0.0430
      4 C           4.5046   -1.6791    0.2385 C.2     1  UNL1        0.2190
      5 O           4.9035   -2.3949   -0.6961 O.2     1  UNL1       -0.2754
      6 N           5.3870   -1.0485    1.0682 N.am    1  UNL1       -0.2839
      7 C           5.5985    0.3192    0.8052 C.ar    1  UNL1        0.0550
      8 C           6.9266    0.5920    0.4297 C.ar    1  UNL1       -0.0387
      9 C           7.2840    1.8459   -0.0300 C.ar    1  UNL1       -0.0599
     10 C           6.3116    2.8412   -0.0675 C.ar    1  UNL1       -0.0599
     11 C           4.9831    2.5905    0.3697 C.ar    1  UNL1       -0.0385
     12 C           4.5832    1.3125    0.8120 C.ar    1  UNL1        0.0578
     13 N           3.1585    1.0040    1.1120 N.am    1  UNL1       -0.2657
     14 C           2.5503    1.6009    2.2621 C.2     1  UNL1        0.2303
     15 O           3.1960    2.3957    2.9576 O.2     1  UNL1       -0.2743
     16 C           1.0681    1.2346    2.6772 C.3     1  UNL1        0.0773
     17 S           0.4815    2.1102    4.1919 S.3     1  UNL1       -0.0876
     18 C          -1.2093    1.6224    4.4211 C.ar    1  UNL1        0.1604
     19 N          -1.6106    0.3729    4.5105 N.ar    1  UNL1       -0.1332
     20 N          -2.9703    0.2795    4.8132 N.ar    1  UNL1       -0.1252
     21 C          -3.5685    1.4501    4.9496 C.ar    1  UNL1        0.1826
     22 N          -4.8950    1.5639    5.2277 N.pl3   1  UNL1       -0.3179
     23 C          -5.6393    2.8075    5.3386 C.3     1  UNL1        0.0362
     24 C          -7.1382    2.6330    5.5804 C.ar    1  UNL1       -0.0303
     25 C          -7.7660    1.3861    5.7201 C.ar    1  UNL1       -0.0571
     26 C          -9.1577    1.2724    5.7452 C.ar    1  UNL1       -0.0615
     27 C          -9.9508    2.4115    5.7761 C.ar    1  UNL1       -0.0617
     28 C          -9.3484    3.6655    5.7912 C.ar    1  UNL1       -0.0615
     29 C          -7.9594    3.7780    5.6425 C.ar    1  UNL1       -0.0571
     30 S          -2.4688    2.7650    4.7278 S.2     1  UNL1       -0.0245
     31 H           0.7591   -0.7327   -0.7873 H       1  UNL1        0.0248
     32 H           0.6581    0.9357   -0.2215 H       1  UNL1        0.0248
     33 H           0.5665   -0.4445    0.9108 H       1  UNL1        0.0248
     34 H           2.9652    0.2466   -0.8171 H       1  UNL1        0.0506
     35 H           2.5184   -2.1632   -0.1665 H       1  UNL1        0.0377
     36 H           2.8050   -1.7411    1.5268 H       1  UNL1        0.0377
     37 H           5.2878   -1.2442    2.0581 H       1  UNL1        0.1549
     38 H           7.6665   -0.2080    0.4330 H       1  UNL1        0.0637
     39 H           8.2993    2.0236   -0.3818 H       1  UNL1        0.0618
     40 H           6.5944    3.8164   -0.4634 H       1  UNL1        0.0618
     41 H           4.2702    3.4066    0.2888 H       1  UNL1        0.0637
     42 H           1.0043    0.1634    2.8810 H       1  UNL1        0.0475
     43 H           0.3842    1.5452    1.8863 H       1  UNL1        0.0475
     44 H          -5.4142    0.6981    5.2320 H       1  UNL1        0.1483
     45 H          -5.5323    3.3754    4.4047 H       1  UNL1        0.0511
     46 H          -5.2327    3.4082    6.1603 H       1  UNL1        0.0511
     47 H          -7.2038    0.4641    5.8058 H       1  UNL1        0.0621
     48 H          -9.6141    0.2858    5.7464 H       1  UNL1        0.0618
     49 H         -11.0330    2.3170    5.8035 H       1  UNL1        0.0618
     50 H          -9.9644    4.5550    5.9024 H       1  UNL1        0.0618
     51 H          -7.5278    4.7754    5.5711 H       1  UNL1        0.0621
@<TRIPOS>BOND
     1     1     2    1
     2     2     3    1
     3     3     4    1
     4     4     5    2
     5     4     6   am
     6     6     7    1
     7     7     8   ar
     8     8     9   ar
     9     9    10   ar
    10    10    11   ar
    11    11    12   ar
    12     7    12   ar
    13    12    13    1
    14     2    13    1
    15    13    14   am
    16    14    15    2
    17    14    16    1
    18    16    17    1
    19    17    18    1
    20    18    19   ar
    21    19    20   ar
    22    20    21   ar
    23    21    22    1
    24    22    23    1
    25    23    24    1
    26    24    25   ar
    27    25    26   ar
    28    26    27   ar
    29    27    28   ar
    30    28    29   ar
    31    24    29   ar
    32    21    30   ar
    33    18    30   ar
    34     1    31    1
    35     1    32    1
    36     1    33    1
    37     2    34    1
    38     3    35    1
    39     3    36    1
    40     6    37    1
    41     8    38    1
    42     9    39    1
    43    10    40    1
    44    11    41    1
    45    16    42    1
    46    16    43    1
    47    22    44    1
    48    23    45    1
    49    23    46    1
    50    25    47    1
    51    26    48    1
    52    27    49    1
    53    28    50    1
    54    29    51    1
