@<TRIPOS>MOLECULE
*****
 39 40 0 0 0
SMALL
GASTEIGER

@<TRIPOS>ATOM
      1 N           1.1459    0.0047    0.0670 N.am    1  UNL1       -0.3286
      2 C           2.5074    0.0777    0.0361 C.2     1  UNL1        0.2207
      3 O           3.0291    1.1314   -0.3466 O.2     1  UNL1       -0.2751
      4 C           3.2658   -1.1649    0.5074 C.3     1  UNL1        0.0746
      5 S           5.0209   -1.0249   -0.0041 S.3     1  UNL1       -0.1141
      6 C           5.8416   -2.2723    1.0012 C.ar    1  UNL1        0.0292
      7 C           5.4956   -3.5889    0.6614 C.ar    1  UNL1       -0.0465
      8 C           6.0467   -4.6774    1.3263 C.ar    1  UNL1       -0.0606
      9 C           7.0202   -4.4691    2.2916 C.ar    1  UNL1       -0.0600
     10 C           7.4145   -3.1644    2.6129 C.ar    1  UNL1       -0.0398
     11 C           6.8489   -2.0328    1.9774 C.ar    1  UNL1        0.0411
     12 N           7.2993   -0.7860    2.3960 N.pl3   1  UNL1       -0.3345
     13 C           6.9033    0.4774    1.7794 C.3     1  UNL1        0.0861
     14 C           7.6295    1.6621    2.3904 C.2     1  UNL1        0.2343
     15 O           8.4981    1.4998    3.2507 O.2     1  UNL1       -0.2738
     16 N           7.2038    2.9035    1.9131 N.am    1  UNL1       -0.2842
     17 C           7.8562    4.1003    2.2700 C.ar    1  UNL1        0.0349
     18 C           7.1489    5.2950    2.4201 C.ar    1  UNL1       -0.0390
     19 C           7.8433    6.4765    2.7233 C.ar    1  UNL1       -0.0402
     20 C           9.2331    6.4597    2.8985 C.ar    1  UNL1        0.0594
     21 CL         10.0196    7.9291    3.3493 Cl      1  UNL1       -0.0820
     22 C           9.9366    5.2685    2.7273 C.ar    1  UNL1        0.0610
     23 CL         11.6572    5.1657    2.8265 Cl      1  UNL1       -0.0820
     24 C           9.2453    4.1006    2.4210 C.ar    1  UNL1       -0.0207
     25 H           0.6379    0.8179   -0.2620 H       1  UNL1        0.1450
     26 H           0.6189   -0.7850    0.4126 H       1  UNL1        0.1450
     27 H           2.8454   -2.0475    0.0169 H       1  UNL1        0.0474
     28 H           3.1448   -1.2606    1.5931 H       1  UNL1        0.0474
     29 H           4.8087   -3.7716   -0.1605 H       1  UNL1        0.0629
     30 H           5.7198   -5.6818    1.0753 H       1  UNL1        0.0618
     31 H           7.4839   -5.3222    2.7820 H       1  UNL1        0.0618
     32 H           8.1857   -3.0425    3.3739 H       1  UNL1        0.0636
     33 H           8.0983   -0.7216    3.0271 H       1  UNL1        0.1466
     34 H           5.8399    0.6435    1.9691 H       1  UNL1        0.0557
     35 H           7.1537    0.4797    0.7130 H       1  UNL1        0.0557
     36 H           6.3589    2.9639    1.3505 H       1  UNL1        0.1549
     37 H           6.0619    5.3220    2.3751 H       1  UNL1        0.0636
     38 H           7.2987    7.4130    2.8271 H       1  UNL1        0.0633
     39 H           9.8089    3.1847    2.2640 H       1  UNL1        0.0651
@<TRIPOS>BOND
     1     1     2   am
     2     2     3    2
     3     2     4    1
     4     4     5    1
     5     5     6    1
     6     6     7   ar
     7     7     8   ar
     8     8     9   ar
     9     9    10   ar
    10    10    11   ar
    11     6    11   ar
    12    11    12    1
    13    12    13    1
    14    13    14    1
    15    14    15    2
    16    14    16   am
    17    16    17    1
    18    17    18   ar
    19    18    19   ar
    20    19    20   ar
    21    20    21    1
    22    20    22   ar
    23    22    23    1
    24    22    24   ar
    25    17    24   ar
    26     1    25    1
    27     1    26    1
    28     4    27    1
    29     4    28    1
    30     7    29    1
    31     8    30    1
    32     9    31    1
    33    10    32    1
    34    12    33    1
    35    13    34    1
    36    13    35    1
    37    16    36    1
    38    18    37    1
    39    19    38    1
    40    24    39    1
