@<TRIPOS>MOLECULE
*****
 47 49 0 0 0
SMALL
GASTEIGER

@<TRIPOS>ATOM
      1 C           0.7193   -3.4061    0.4401 C.3     1  UNL1       -0.0411
      2 C           0.4552   -2.7056    1.7985 C.3     1  UNL1        0.0827
      3 N           1.1251   -1.3973    1.8501 N.3     1  UNL1       -0.2993
      4 C           2.6204   -1.5265    1.8413 C.3     1  UNL1        0.0313
      5 C           3.1467   -1.2066    0.4323 C.3     1  UNL1       -0.0455
      6 C           3.2136   -2.8219    2.4710 C.ar    1  UNL1       -0.0230
      7 C           2.9121   -4.1198    1.9943 C.ar    1  UNL1       -0.0565
      8 C           3.1193   -5.3464    2.5786 C.ar    1  UNL1       -0.0609
      9 C           3.8719   -5.3585    3.6906 C.ar    1  UNL1       -0.0540
     10 C           4.3761   -4.1425    4.1517 C.ar    1  UNL1       -0.0176
     11 C           5.2404   -4.2332    5.2131 C.ar    1  UNL1       -0.0540
     12 C           5.7965   -3.0814    5.7441 C.ar    1  UNL1       -0.0612
     13 C           5.4866   -1.8255    5.2249 C.ar    1  UNL1       -0.0612
     14 C           4.6114   -1.7023    4.1542 C.ar    1  UNL1       -0.0537
     15 C           4.0496   -2.8537    3.5823 C.ar    1  UNL1       -0.0132
     16 C          -1.0526   -2.6561    1.8476 C.2     1  UNL1        0.2340
     17 O          -1.7102   -3.1596    0.9326 O.2     1  UNL1       -0.2738
     18 N          -1.6528   -2.1090    2.9651 N.am    1  UNL1       -0.2831
     19 C          -3.0689   -2.1213    3.0309 C.ar    1  UNL1        0.0509
     20 C          -3.7382   -0.9165    3.2839 C.ar    1  UNL1       -0.0392
     21 C          -5.1373   -0.8821    3.2760 C.ar    1  UNL1       -0.0599
     22 C          -5.8688   -2.0534    3.0821 C.ar    1  UNL1       -0.0604
     23 C          -5.2083   -3.2589    2.8579 C.ar    1  UNL1       -0.0425
     24 C          -3.8142   -3.3007    2.8024 C.ar    1  UNL1        0.0729
     25 C          -3.1935   -4.5874    2.5450 C.1     1  UNL1        0.1010
     26 N          -2.6938   -5.5999    2.3330 N.1     1  UNL1       -0.1908
     27 H           1.7284   -3.3205    0.0495 H       1  UNL1        0.0249
     28 H           0.1871   -2.9951   -0.4101 H       1  UNL1        0.0249
     29 H           0.4865   -4.4775    0.5503 H       1  UNL1        0.0249
     30 H           0.7368   -3.2694    2.7045 H       1  UNL1        0.0554
     31 H           0.8450   -0.8858    2.6832 H       1  UNL1        0.1232
     32 H           2.9291   -0.6543    2.4326 H       1  UNL1        0.0508
     33 H           2.8529   -1.9223   -0.3320 H       1  UNL1        0.0248
     34 H           4.2387   -1.1835    0.4243 H       1  UNL1        0.0248
     35 H           2.7763   -0.2345    0.0807 H       1  UNL1        0.0248
     36 H           2.3841   -4.3758    1.1215 H       1  UNL1        0.0621
     37 H           2.6658   -6.2201    2.1158 H       1  UNL1        0.0618
     38 H           4.0630   -6.3256    4.1378 H       1  UNL1        0.0624
     39 H           5.4955   -5.2104    5.6113 H       1  UNL1        0.0624
     40 H           6.4834   -3.1776    6.5738 H       1  UNL1        0.0618
     41 H           5.9386   -0.9353    5.6483 H       1  UNL1        0.0618
     42 H           4.4153   -0.7042    3.7731 H       1  UNL1        0.0624
     43 H          -1.1327   -1.4517    3.5306 H       1  UNL1        0.1549
     44 H          -3.1930    0.0164    3.4070 H       1  UNL1        0.0636
     45 H          -5.6648    0.0606    3.4085 H       1  UNL1        0.0618
     46 H          -6.9557   -2.0341    3.0961 H       1  UNL1        0.0618
     47 H          -5.7817   -4.1723    2.7185 H       1  UNL1        0.0631
@<TRIPOS>BOND
     1     1     2    1
     2     2     3    1
     3     4     6    1
     4     6     7   ar
     5     7     8   ar
     6     8     9   ar
     7     9    10   ar
     8    10    11   ar
     9    11    12   ar
    10    12    13   ar
    11    13    14   ar
    12    14    15   ar
    13     6    15   ar
    14    10    15   ar
    15     2    16    1
    16    16    17    2
    17    16    18   am
    18    18    19    1
    19    19    20   ar
    20    20    21   ar
    21    21    22   ar
    22    22    23   ar
    23    23    24   ar
    24    19    24   ar
    25    24    25    1
    26    25    26    3
    27     4     5    1
    28     4     3    1
    29     1    27    1
    30     1    28    1
    31     1    29    1
    32     2    30    1
    33     3    31    1
    34     4    32    1
    35     5    33    1
    36     5    34    1
    37     5    35    1
    38     7    36    1
    39     8    37    1
    40     9    38    1
    41    11    39    1
    42    12    40    1
    43    13    41    1
    44    14    42    1
    45    18    43    1
    46    20    44    1
    47    21    45    1
    48    22    46    1
    49    23    47    1
