REMARK  11 active torsions:
REMARK  status: ('A' for Active; 'I' for Inactive)
REMARK    1  A    between atoms: C_2  and  O_3 
REMARK    2  A    between atoms: O_3  and  C_4 
REMARK    3  A    between atoms: C_4  and  C_6 
REMARK    4  A    between atoms: C_7  and  N_8 
REMARK    5  A    between atoms: N_8  and  C_9 
REMARK    6  A    between atoms: C_9  and  N_11 
REMARK       I    between atoms: N_11  and  C_12 
REMARK    7  A    between atoms: C_12  and  C_14 
REMARK    8  A    between atoms: C_14  and  C_15 
REMARK    9  A    between atoms: C_15  and  C_16 
REMARK   10  A    between atoms: C_16  and  O_17 
REMARK   11  A    between atoms: O_17  and  C_18 
ROOT
ATOM      1  C   UNL d   1       7.842   3.717  -2.017  0.00  0.00     0.179 C 
ATOM      2  S   UNL d   1       8.332   5.315  -1.725  0.00  0.00    -0.040 SA
ENDROOT
BRANCH   1   3
ATOM      3  N   UNL d   1       6.805   3.010  -1.313  0.00  0.00    -0.326 N 
ATOM      4  H   UNL d   1       6.598   2.043  -1.555  0.00  0.00     0.169 HD
BRANCH   3   5
ATOM      5  C   UNL d   1       5.985   3.509  -0.231  0.00  0.00     0.093 A 
ATOM      6  C   UNL d   1       4.927   2.916   0.490  0.00  0.00     0.080 A 
ATOM      7  C   UNL d   1       4.367   3.850   1.493  0.00  0.00    -0.026 A 
ATOM      8  C   UNL d   1       5.034   5.053   1.508  0.00  0.00    -0.008 A 
ATOM      9  C   UNL d   1       3.254   3.639   2.476  0.00  0.00     0.041 C 
ATOM     10  S   UNL d   1       6.228   5.087   0.372  0.00  0.00    -0.075 SA
ATOM     11  C   UNL d   1       4.775   6.261   2.355  0.00  0.00     0.047 C 
ATOM     12  C   UNL d   1       3.811   5.922   3.488  0.00  0.00     0.005 C 
ATOM     13  C   UNL d   1       2.700   4.984   2.999  0.00  0.00     0.005 C 
BRANCH   6  14
ATOM     14  C   UNL d   1       4.475   1.540   0.272  0.00  0.00     0.296 C 
ATOM     15  O   UNL d   1       5.257   0.622   0.015  0.00  0.00    -0.259 OA
BRANCH  14  16
ATOM     16  O   UNL d   1       3.116   1.384   0.333  0.00  0.00    -0.318 OA
BRANCH  16  17
ATOM     17  C   UNL d   1       2.640   0.047   0.090  0.00  0.00     0.174 C 
ATOM     18  C   UNL d   1       1.118   0.030   0.081  0.00  0.00     0.034 C 
ENDBRANCH  16  17
ENDBRANCH  14  16
ENDBRANCH   6  14
ENDBRANCH   3   5
ENDBRANCH   1   3
BRANCH   1  19
ATOM     19  N   UNL d   1       8.493   2.979  -3.062  0.00  0.00    -0.304 N 
ATOM     20  C   UNL d   1       9.535   3.520  -3.852  0.00  0.00     0.223 C 
ATOM     21  O   UNL d   1       9.977   4.664  -3.727  0.00  0.00    -0.273 OA
ATOM     22  H   UNL d   1       8.209   2.027  -3.249  0.00  0.00     0.171 HD
BRANCH  20  23
ATOM     23  C   UNL d   1      10.204   2.707  -4.946  0.00  0.00     0.105 C 
BRANCH  23  24
ATOM     24  C   UNL d   1      11.300   3.612  -5.601  0.00  0.00     0.036 C 
BRANCH  24  25
ATOM     25  C   UNL d   1      12.059   2.942  -6.734  0.00  0.00     0.176 C 
BRANCH  25  26
ATOM     26  O   UNL d   1      13.022   3.868  -7.257  0.00  0.00    -0.349 OA
BRANCH  26  27
ATOM     27  C   UNL d   1      13.820   3.355  -8.250  0.00  0.00     0.090 A 
ATOM     28  C   UNL d   1      13.282   2.688  -9.355  0.00  0.00     0.040 A 
ATOM     29  C   UNL d   1      14.119   2.212 -10.368  0.00  0.00     0.026 A 
ATOM     30  C   UNL d   1      15.495   2.415 -10.288  0.00  0.00     0.035 A 
ATOM     31 CL   UNL d   1      16.515   1.815 -11.537  0.00  0.00    -0.084 Cl
ATOM     32  C   UNL d   1      16.045   3.102  -9.209  0.00  0.00     0.050 A 
ATOM     33  C   UNL d   1      15.205   3.582  -8.198  0.00  0.00     0.069 A 
ATOM     34 CL   UNL d   1      15.925   4.436  -6.880  0.00  0.00    -0.081 Cl
ENDBRANCH  26  27
ENDBRANCH  25  26
ENDBRANCH  24  25
ENDBRANCH  23  24
ENDBRANCH  20  23
ENDBRANCH   1  19
TORSDOF 11
