REMARK  8 active torsions:
REMARK  status: ('A' for Active; 'I' for Inactive)
REMARK    1  A    between atoms: O_2  and  C_3 
REMARK    2  A    between atoms: C_6  and  C_7 
REMARK    3  A    between atoms: C_7  and  N_8 
REMARK    4  A    between atoms: N_8  and  C_9 
REMARK    5  A    between atoms: C_9  and  N_11 
REMARK    6  A    between atoms: N_11  and  N_12 
REMARK       I    between atoms: N_12  and  C_13 
REMARK    7  A    between atoms: C_13  and  C_15 
REMARK    8  A    between atoms: C_19  and  N_20 
ROOT
ATOM      1  N   UNL d   1       5.361  -9.699   0.267  0.00  0.00    -0.264 N 
ATOM      2  C   UNL d   1       4.755 -10.773  -0.382  0.00  0.00     0.270 C 
ATOM      3  O   UNL d   1       3.765 -10.648  -1.099  0.00  0.00    -0.266 OA
ATOM      4  H   UNL d   1       6.207  -9.791   0.826  0.00  0.00     0.190 HD
ENDROOT
BRANCH   2   5
ATOM      5  C   UNL d   1       5.349 -12.149  -0.157  0.00  0.00     0.035 A 
ATOM      6  C   UNL d   1       5.390 -13.101  -1.164  0.00  0.00     0.017 A 
ATOM      7  C   UNL d   1       5.795 -14.416  -0.855  0.00  0.00     0.003 A 
ATOM      8  C   UNL d   1       6.238 -14.786   0.450  0.00  0.00     0.030 A 
ATOM      9  C   UNL d   1       6.228 -13.850   1.492  0.00  0.00     0.046 A 
ATOM     10  C   UNL d   1       5.759 -12.546   1.125  0.00  0.00     0.047 A 
BRANCH   9  11
ATOM     11  N   UNL d   1       6.597 -14.100   2.885  0.00  0.00    -0.244 N 
ATOM     12  C   UNL d   1       6.218 -13.200   3.844  0.00  0.00     0.266 C 
ATOM     13  O   UNL d   1       5.858 -12.049   3.808  0.00  0.00    -0.267 OA
ATOM     14  C   UNL d   1       6.456 -13.759   5.139  0.00  0.00     0.048 C 
ATOM     15  C   UNL d   1       5.942 -13.183   6.291  0.00  0.00     0.018 C 
ATOM     16  C   UNL d   1       7.404 -14.735   5.043  0.00  0.00     0.048 C 
ATOM     17  C   UNL d   1       6.565 -13.449   7.484  0.00  0.00     0.001 C 
ATOM     18  C   UNL d   1       7.676 -14.297   7.465  0.00  0.00     0.001 C 
ATOM     19  C   UNL d   1       8.104 -14.957   6.249  0.00  0.00     0.018 C 
ATOM     20  C   UNL d   1       7.256 -15.153   3.542  0.00  0.00     0.266 C 
ATOM     21  O   UNL d   1       7.519 -16.258   3.093  0.00  0.00    -0.267 OA
ENDBRANCH   9  11
ENDBRANCH   2   5
BRANCH   1  22
ATOM     22  N   UNL d   1       4.873  -8.354   0.116  0.00  0.00    -0.274 N 
ATOM     23  H   UNL d   1       4.026  -8.257  -0.440  0.00  0.00     0.189 HD
BRANCH  22  24
ATOM     24  C   UNL d   1       5.549  -7.289   0.722  0.00  0.00     0.186 C 
ATOM     25  S   UNL d   1       6.940  -7.509   1.638  0.00  0.00    -0.040 SA
BRANCH  24  26
ATOM     26  N   UNL d   1       4.979  -6.046   0.489  0.00  0.00    -0.362 N 
ATOM     27  H   UNL d   1       4.121  -6.030  -0.036  0.00  0.00     0.162 HD
BRANCH  26  28
ATOM     28  C   UNL d   1       5.492  -4.756   1.010  0.00  0.00     0.160 C 
BRANCH  28  29
ATOM     29  C   UNL d   1       4.689  -3.507   0.681  0.00  0.00    -0.040 A 
ATOM     30  C   UNL d   1       5.093  -2.260   1.202  0.00  0.00     0.011 A 
ATOM     31  C   UNL d   1       4.299  -1.113   1.033  0.00  0.00     0.037 A 
ATOM     32  C   UNL d   1       3.130  -1.171   0.277  0.00  0.00     0.068 A 
ATOM     33  C   UNL d   1       2.751  -2.383  -0.287  0.00  0.00     0.037 A 
ATOM     34  C   UNL d   1       3.522  -3.532  -0.087  0.00  0.00     0.011 A 
BRANCH  32  35
ATOM     35  O   UNL d   1       2.490   0.017   0.051  0.00  0.00    -0.356 OA
ATOM     36  C   UNL d   1       1.070  -0.054  -0.045  0.00  0.00     0.210 C 
ENDBRANCH  32  35
ENDBRANCH  28  29
ENDBRANCH  26  28
ENDBRANCH  24  26
ENDBRANCH  22  24
ENDBRANCH   1  22
TORSDOF 8
