@<TRIPOS>MOLECULE
*****
 72 75 0 0 0
SMALL
GASTEIGER

@<TRIPOS>ATOM
      1 C           1.0029   -0.0690   -0.0255 C.3     1  UNL1       -0.0385
      2 C           2.5140    0.0072    0.0122 C.ar    1  UNL1       -0.0295
      3 C           3.2200    1.1556   -0.0536 C.ar    1  UNL1        0.0448
      4 C           2.4656    2.4629   -0.2052 C.3     1  UNL1        0.0046
      5 C           3.3008    3.6977   -0.3416 C.ar    1  UNL1       -0.0428
      6 C           3.4122    4.5688    0.7449 C.ar    1  UNL1       -0.0583
      7 C           4.4980    5.4309    0.8065 C.ar    1  UNL1       -0.0615
      8 C           5.3251    5.5919   -0.3054 C.ar    1  UNL1       -0.0617
      9 C           5.1290    4.8215   -1.4502 C.ar    1  UNL1       -0.0615
     10 C           4.1425    3.8447   -1.4552 C.ar    1  UNL1       -0.0583
     11 C           4.7213    1.1269    0.0369 C.ar    1  UNL1        0.3410
     12 O           5.4508    2.1059    0.1355 O.2     1  UNL1       -0.2449
     13 O           5.3449   -0.0969    0.0243 O.2     1  UNL1       -0.4216
     14 C           4.6302   -1.2860    0.0807 C.ar    1  UNL1        0.1457
     15 C           5.3849   -2.4663    0.1214 C.ar    1  UNL1        0.0348
     16 C           6.8620   -2.4194    0.3811 C.3     1  UNL1       -0.0327
     17 C           4.6881   -3.6545   -0.0812 C.ar    1  UNL1        0.1380
     18 O           5.4067   -4.8739   -0.0804 O.3     1  UNL1       -0.4254
     19 C           4.7061   -6.0741   -0.1598 C.2     1  UNL1        0.3123
     20 O           3.4973   -6.2149   -0.3104 O.2     1  UNL1       -0.2504
     21 C           5.5975   -7.2697   -0.0324 C.3     1  UNL1        0.0454
     22 C           4.6908   -8.4920   -0.2522 C.3     1  UNL1       -0.0429
     23 C           5.4357   -9.8059   -0.1579 C.3     1  UNL1       -0.0511
     24 C           4.4847  -10.9888   -0.3883 C.3     1  UNL1       -0.0373
     25 C           5.2415  -12.3113   -0.2932 C.3     1  UNL1        0.0147
     26 N           4.4158  -13.4864   -0.5017 N.am    1  UNL1       -0.2811
     27 C           4.9518  -14.7483   -0.4568 C.2     1  UNL1        0.4006
     28 O           6.1389  -14.9840   -0.2265 O.2     1  UNL1       -0.2265
     29 O           4.0171  -15.7003   -0.6999 O.3     1  UNL1       -0.4456
     30 C           4.5024  -17.0665   -0.6641 C.3     1  UNL1        0.1191
     31 C           3.3868  -18.0759   -0.8972 C.ar    1  UNL1       -0.0103
     32 C           3.6631  -19.4538   -0.9694 C.ar    1  UNL1       -0.0554
     33 C           2.6210  -20.3888   -0.9428 C.ar    1  UNL1       -0.0614
     34 C           1.3050  -19.9650   -1.0999 C.ar    1  UNL1       -0.0617
     35 C           1.0251  -18.6041   -1.1550 C.ar    1  UNL1       -0.0614
     36 C           2.0479  -17.6732   -0.9663 C.ar    1  UNL1       -0.0554
     37 C           3.3023   -3.6052   -0.2402 C.ar    1  UNL1       -0.0182
     38 C           2.5800   -2.4631    0.0254 C.ar    1  UNL1       -0.0473
     39 C           3.2403   -1.2576    0.0740 C.ar    1  UNL1        0.0213
     40 H           0.5112    0.9022   -0.0959 H       1  UNL1        0.0278
     41 H           0.6252   -0.5380    0.8904 H       1  UNL1        0.0278
     42 H           0.6613   -0.6482   -0.8916 H       1  UNL1        0.0278
     43 H           1.8068    2.5727    0.6683 H       1  UNL1        0.0364
     44 H           1.8113    2.4161   -1.0869 H       1  UNL1        0.0364
     45 H           2.7187    4.5105    1.5796 H       1  UNL1        0.0620
     46 H           4.7289    5.9357    1.7397 H       1  UNL1        0.0618
     47 H           6.1473    6.2979   -0.2669 H       1  UNL1        0.0618
     48 H           5.8085    4.9021   -2.2920 H       1  UNL1        0.0618
     49 H           4.1470    3.0907   -2.2411 H       1  UNL1        0.0620
     50 H           7.2382   -1.3967    0.5092 H       1  UNL1        0.0280
     51 H           7.4145   -2.8672   -0.4474 H       1  UNL1        0.0280
     52 H           7.0858   -2.9464    1.3139 H       1  UNL1        0.0280
     53 H           6.0364   -7.2910    0.9696 H       1  UNL1        0.0378
     54 H           6.3806   -7.2282   -0.7939 H       1  UNL1        0.0378
     55 H           4.2082   -8.4135   -1.2375 H       1  UNL1        0.0270
     56 H           3.8772   -8.4833    0.4886 H       1  UNL1        0.0270
     57 H           5.8991   -9.8819    0.8319 H       1  UNL1        0.0266
     58 H           6.2369   -9.8144   -0.9048 H       1  UNL1        0.0266
     59 H           4.0105  -10.8945   -1.3737 H       1  UNL1        0.0280
     60 H           3.6754  -10.9623    0.3526 H       1  UNL1        0.0280
     61 H           5.7080  -12.4006    0.6946 H       1  UNL1        0.0463
     62 H           6.0447  -12.3314   -1.0389 H       1  UNL1        0.0463
     63 H           3.4261  -13.3997   -0.6952 H       1  UNL1        0.1520
     64 H           4.9255  -17.2679    0.3291 H       1  UNL1        0.0749
     65 H           5.2740  -17.1992   -1.4317 H       1  UNL1        0.0749
     66 H           4.6860  -19.8207   -1.0294 H       1  UNL1        0.0621
     67 H           2.8330  -21.4460   -0.7974 H       1  UNL1        0.0618
     68 H           0.4999  -20.6907   -1.1807 H       1  UNL1        0.0618
     69 H           0.0066  -18.2611   -1.3104 H       1  UNL1        0.0618
     70 H           1.7884  -16.6226   -0.8750 H       1  UNL1        0.0621
     71 H           2.6989   -4.4287   -0.5878 H       1  UNL1        0.0655
     72 H           1.5032   -2.5569    0.1026 H       1  UNL1        0.0626
@<TRIPOS>BOND
     1     1     2    1
     2     2     3   ar
     3     3     4    1
     4     4     5    1
     5     5     6   ar
     6     6     7   ar
     7     7     8   ar
     8     8     9   ar
     9     9    10   ar
    10     5    10   ar
    11     3    11   ar
    12    11    12    2
    13    11    13   ar
    14    13    14   ar
    15    14    15   ar
    16    15    16    1
    17    15    17   ar
    18    17    18    1
    19    18    19    1
    20    19    20    2
    21    19    21    1
    22    21    22    1
    23    22    23    1
    24    23    24    1
    25    24    25    1
    26    25    26    1
    27    26    27   am
    28    27    28    2
    29    27    29    1
    30    29    30    1
    31    30    31    1
    32    31    32   ar
    33    32    33   ar
    34    33    34   ar
    35    34    35   ar
    36    35    36   ar
    37    31    36   ar
    38    17    37   ar
    39    37    38   ar
    40    38    39   ar
    41     2    39   ar
    42    14    39   ar
    43     1    40    1
    44     1    41    1
    45     1    42    1
    46     4    43    1
    47     4    44    1
    48     6    45    1
    49     7    46    1
    50     8    47    1
    51     9    48    1
    52    10    49    1
    53    16    50    1
    54    16    51    1
    55    16    52    1
    56    21    53    1
    57    21    54    1
    58    22    55    1
    59    22    56    1
    60    23    57    1
    61    23    58    1
    62    24    59    1
    63    24    60    1
    64    25    61    1
    65    25    62    1
    66    26    63    1
    67    30    64    1
    68    30    65    1
    69    32    66    1
    70    33    67    1
    71    34    68    1
    72    35    69    1
    73    36    70    1
    74    37    71    1
    75    38    72    1
