@<TRIPOS>MOLECULE
*****
 69 71 0 0 0
SMALL
GASTEIGER

@<TRIPOS>ATOM
      1 C           4.2962   -1.3664    0.2812 C.3     1  UNL1       -0.0306
      2 C           3.7993   -2.8019    0.2254 C.3     1  UNL1        0.0900
      3 O           4.4523   -3.5901    1.2398 O.3     1  UNL1       -0.4614
      4 C           4.1097   -4.9054    1.2148 C.2     1  UNL1        0.3392
      5 O           3.3329   -5.4297    0.4238 O.2     1  UNL1       -0.2450
      6 C           4.7497   -5.6803    2.3063 C.ar    1  UNL1        0.0609
      7 C           5.0389   -7.0429    2.1173 C.ar    1  UNL1       -0.0476
      8 C           5.3711   -7.8655    3.2027 C.ar    1  UNL1       -0.0590
      9 C           5.4873   -7.3219    4.4751 C.ar    1  UNL1       -0.0378
     10 C           5.2463   -5.9577    4.6428 C.ar    1  UNL1        0.0473
     11 N           5.2093   -5.4294    5.9422 N.ar    1  UNL1       -0.3171
     12 C           4.1026   -4.8394    6.4969 C.ar    1  UNL1        0.0216
     13 C           2.7361   -4.7220    5.9250 C.3     1  UNL1       -0.0239
     14 C           4.4532   -4.4201    7.7470 C.ar    1  UNL1       -0.0320
     15 C           5.8046   -4.7457    8.0166 C.ar    1  UNL1        0.0156
     16 C           6.6272   -4.4742    9.1988 C.2     1  UNL1        0.0545
     17 N           6.2851   -3.8717   10.3038 N.2     1  UNL1       -0.1877
     18 N           5.0259   -3.4033   10.4707 N.am    1  UNL1       -0.2070
     19 C           4.5966   -2.7626   11.6028 C.2     1  UNL1        0.2323
     20 O           5.2918   -2.5438   12.5901 O.2     1  UNL1       -0.2741
     21 C           3.1276   -2.3484   11.5028 C.3     1  UNL1        0.0282
     22 C           2.7328   -1.6719   12.8110 C.3     1  UNL1       -0.0144
     23 C           1.2839   -1.2047   12.8166 C.3     1  UNL1        0.0806
     24 O           1.2616    0.1830   12.4693 O.3     1  UNL1       -0.3872
     25 C           0.5978   -1.4579   14.1440 C.ar    1  UNL1       -0.0189
     26 C           0.2176   -2.7624   14.5048 C.ar    1  UNL1       -0.0527
     27 C          -0.5985   -2.9800   15.6217 C.ar    1  UNL1       -0.0196
     28 C          -0.9614   -1.9160   16.4494 C.ar    1  UNL1        0.1205
     29 O          -1.7255   -2.2291   17.5430 O.3     1  UNL1       -0.4922
     30 C          -1.9804   -1.1453   18.4416 C.3     1  UNL1        0.0868
     31 C          -2.7300   -1.6665   19.6498 C.3     1  UNL1       -0.0307
     32 C          -0.5290   -0.6321   16.1284 C.ar    1  UNL1       -0.0196
     33 C           0.2468   -0.4075   14.9956 C.ar    1  UNL1       -0.0527
     34 C           6.2514   -5.4112    6.8673 C.ar    1  UNL1        0.0296
     35 C           7.6049   -5.9551    6.5235 C.3     1  UNL1       -0.0233
     36 C           4.8769   -5.1283    3.5757 C.ar    1  UNL1       -0.0239
     37 H           3.8083   -0.7553   -0.4861 H       1  UNL1        0.0262
     38 H           5.3783   -1.3218    0.1227 H       1  UNL1        0.0262
     39 H           4.0936   -0.9194    1.2597 H       1  UNL1        0.0262
     40 H           4.0151   -3.2176   -0.7658 H       1  UNL1        0.0695
     41 H           2.7162   -2.8135    0.3959 H       1  UNL1        0.0695
     42 H           4.9696   -7.4815    1.1248 H       1  UNL1        0.0626
     43 H           5.4860   -8.9386    3.0666 H       1  UNL1        0.0618
     44 H           5.6910   -7.9692    5.3264 H       1  UNL1        0.0638
     45 H           2.6146   -5.1660    4.9398 H       1  UNL1        0.0292
     46 H           2.4624   -3.6620    5.8745 H       1  UNL1        0.0292
     47 H           2.0237   -5.2105    6.6010 H       1  UNL1        0.0292
     48 H           3.6842   -3.9333    8.3166 H       1  UNL1        0.0642
     49 H           7.6752   -4.8172    9.1562 H       1  UNL1        0.0852
     50 H           4.3544   -3.5162    9.7510 H       1  UNL1        0.1772
     51 H           2.5007   -3.2351   11.3314 H       1  UNL1        0.0360
     52 H           2.9791   -1.6715   10.6504 H       1  UNL1        0.0360
     53 H           3.4040   -0.8176   12.9682 H       1  UNL1        0.0298
     54 H           2.9232   -2.3834   13.6219 H       1  UNL1        0.0298
     55 H           0.6906   -1.7090   12.0450 H       1  UNL1        0.0643
     56 H           1.7846    0.6513   13.1436 H       1  UNL1        0.2102
     57 H           0.5321   -3.6172   13.9078 H       1  UNL1        0.0622
     58 H          -0.9668   -3.9815   15.8319 H       1  UNL1        0.0654
     59 H          -2.5979   -0.3881   17.9438 H       1  UNL1        0.0694
     60 H          -1.0385   -0.6967   18.7830 H       1  UNL1        0.0694
     61 H          -3.6595   -2.1550   19.3434 H       1  UNL1        0.0262
     62 H          -2.9675   -0.8471   20.3349 H       1  UNL1        0.0262
     63 H          -2.1302   -2.4097   20.1841 H       1  UNL1        0.0262
     64 H          -0.8016    0.2358   16.7170 H       1  UNL1        0.0654
     65 H           0.5372    0.6158   14.7830 H       1  UNL1        0.0622
     66 H           8.3303   -5.7978    7.3246 H       1  UNL1        0.0292
     67 H           7.9986   -5.4657    5.6254 H       1  UNL1        0.0292
     68 H           7.5625   -7.0332    6.3428 H       1  UNL1        0.0292
     69 H           4.6403   -4.0808    3.7487 H       1  UNL1        0.0646
@<TRIPOS>BOND
     1     1     2    1
     2     2     3    1
     3     3     4    1
     4     4     5    2
     5     4     6    1
     6     6     7   ar
     7     7     8   ar
     8     8     9   ar
     9     9    10   ar
    10    10    11    1
    11    11    12   ar
    12    12    13    1
    13    12    14   ar
    14    14    15   ar
    15    15    16    1
    16    16    17    2
    17    17    18    1
    18    18    19   am
    19    19    20    2
    20    19    21    1
    21    21    22    1
    22    23    25    1
    23    25    26   ar
    24    26    27   ar
    25    27    28   ar
    26    28    29    1
    27    29    30    1
    28    30    31    1
    29    28    32   ar
    30    32    33   ar
    31    25    33   ar
    32    15    34   ar
    33    11    34   ar
    34    34    35    1
    35    10    36   ar
    36     6    36   ar
    37    23    24    1
    38    23    22    1
    39     1    37    1
    40     1    38    1
    41     1    39    1
    42     2    40    1
    43     2    41    1
    44     7    42    1
    45     8    43    1
    46     9    44    1
    47    13    45    1
    48    13    46    1
    49    13    47    1
    50    14    48    1
    51    16    49    1
    52    18    50    1
    53    21    51    1
    54    21    52    1
    55    22    53    1
    56    22    54    1
    57    23    55    1
    58    24    56    1
    59    26    57    1
    60    27    58    1
    61    30    59    1
    62    30    60    1
    63    31    61    1
    64    31    62    1
    65    31    63    1
    66    32    64    1
    67    33    65    1
    68    35    66    1
    69    35    67    1
    70    35    68    1
    71    36    69    1
