REMARK  6 active torsions:
REMARK  status: ('A' for Active; 'I' for Inactive)
REMARK    1  A    between atoms: C_5  and  O_6 
REMARK    2  A    between atoms: C_7  and  C_8 
REMARK    3  A    between atoms: C_13  and  C_14 
REMARK    4  A    between atoms: N_21  and  C_22 
REMARK    5  A    between atoms: C_22  and  C_23 
REMARK    6  A    between atoms: C_23  and  O_24 
ROOT
ATOM      1  C   UNL d   1      -1.273  -2.494  -0.003  0.00  0.00     0.074 A 
ATOM      2  N   UNL d   1      -2.158  -2.997  -0.936  0.00  0.00    -0.276 N 
ATOM      3  N   UNL d   1      -2.610  -4.259  -0.660  0.00  0.00    -0.168 NA
ATOM      4  C   UNL d   1      -1.985  -4.545   0.485  0.00  0.00     0.155 A 
ATOM      5  C   UNL d   1      -1.166  -3.505   0.914  0.00  0.00     0.035 A 
ATOM      6  C   UNL d   1      -0.477  -3.882   2.154  0.00  0.00     0.162 C 
ATOM      7  N   UNL d   1      -0.740  -5.335   2.221  0.00  0.00    -0.331 N 
ATOM      8  C   UNL d   1      -1.822  -5.692   1.376  0.00  0.00     0.275 C 
ATOM      9  O   UNL d   1      -2.469  -6.735   1.399  0.00  0.00    -0.266 OA
ATOM     10  H   UNL d   1      -2.462  -2.536  -1.788  0.00  0.00     0.189 HD
ENDROOT
BRANCH   1  11
ATOM     11  C   UNL d   1      -0.622  -1.193  -0.082  0.00  0.00     0.026 A 
ATOM     12  C   UNL d   1      -1.334   0.002  -0.044  0.00  0.00     0.078 A 
ATOM     13  C   UNL d   1      -0.660   1.226  -0.046  0.00  0.00     0.038 A 
ATOM     14  C   UNL d   1       0.739   1.264  -0.036  0.00  0.00     0.009 A 
ATOM     15  C   UNL d   1       1.474   0.084  -0.053  0.00  0.00    -0.061 A 
ATOM     16  C   UNL d   1       2.971   0.078   0.035  0.00  0.00     0.048 C 
ATOM     17  C   UNL d   1       0.776  -1.122  -0.131  0.00  0.00     0.023 A 
BRANCH  12  18
ATOM     18  O   UNL d   1      -2.699  -0.036   0.002  0.00  0.00    -0.360 OA
ATOM     19  H   UNL d   1      -3.037   0.869   0.098  0.00  0.00     0.217 HD
ENDBRANCH  12  18
ENDBRANCH   1  11
BRANCH   6  20
ATOM     20  C   UNL d   1       0.946  -3.458   2.044  0.00  0.00     0.008 A 
ATOM     21  C   UNL d   1       1.474  -2.595   3.022  0.00  0.00     0.012 A 
ATOM     22  C   UNL d   1       2.830  -2.286   3.017  0.00  0.00     0.001 A 
ATOM     23  C   UNL d   1       3.663  -2.806   2.023  0.00  0.00     0.003 A 
ATOM     24  C   UNL d   1       3.148  -3.641   1.033  0.00  0.00     0.043 A 
ATOM     25  C   UNL d   1       1.802  -3.978   1.060  0.00  0.00     0.125 A 
ATOM     26  F   UNL d   1       1.329  -4.809   0.120  0.00  0.00    -0.205 F 
ENDBRANCH   6  20
BRANCH   7  27
ATOM     27  C   UNL d   1       0.089  -6.304   2.971  0.00  0.00     0.153 C 
BRANCH  27  28
ATOM     28  C   UNL d   1       1.298  -5.744   3.750  0.00  0.00     0.184 C 
BRANCH  28  29
ATOM     29  O   UNL d   1       2.072  -6.720   4.428  0.00  0.00    -0.399 OA
ATOM     30  H   UNL d   1       1.539  -7.080   5.151  0.00  0.00     0.209 HD
ENDBRANCH  28  29
ENDBRANCH  27  28
ENDBRANCH   7  27
TORSDOF 6
