REMARK  5 active torsions:
REMARK  status: ('A' for Active; 'I' for Inactive)
REMARK    1  A    between atoms: C_7  and  N_8 
REMARK    2  A    between atoms: C_17  and  C_18 
REMARK       I    between atoms: C_18  and  N_20 
REMARK    3  A    between atoms: N_20  and  C_21 
REMARK    4  A    between atoms: C_21  and  C_22 
REMARK    5  A    between atoms: C_28  and  N_29 
ROOT
ATOM      1  C   UNL d   1       1.083   0.023   0.020  0.00  0.00     0.046 C 
ATOM      2  C   UNL d   1       2.614   0.047   0.082  0.00  0.00     0.058 C 
ATOM      3  C   UNL d   1       3.043   0.202   1.550  0.00  0.00     0.046 C 
ATOM      4  C   UNL d   1       3.102  -1.274  -0.464  0.00  0.00     0.077 C 
ATOM      5  C   UNL d   1       4.582  -1.325  -0.710  0.00  0.00    -0.028 A 
ATOM      6  C   UNL d   1       5.318  -0.121  -0.820  0.00  0.00     0.017 A 
ATOM      7  C   UNL d   1       6.712  -0.163  -1.021  0.00  0.00     0.113 A 
ATOM      8  N   UNL d   1       7.292  -1.389  -1.151  0.00  0.00    -0.336 N 
ATOM      9  C   UNL d   1       6.575  -2.567  -1.057  0.00  0.00     0.089 A 
ATOM     10  S   UNL d   1       7.197  -4.180  -1.168  0.00  0.00    -0.064 SA
ATOM     11  C   UNL d   1       5.641  -4.911  -0.932  0.00  0.00     0.101 A 
ATOM     12  C   UNL d   1       4.696  -3.916  -0.782  0.00  0.00     0.062 A 
ATOM     13  C   UNL d   1       5.213  -2.577  -0.843  0.00  0.00     0.033 A 
ATOM     14  C   UNL d   1       4.559   1.192  -0.697  0.00  0.00     0.212 C 
ATOM     15  O   UNL d   1       3.132   1.072  -0.767  0.00  0.00    -0.376 OA
ATOM     16  H   UNL d   1       8.297  -1.427  -1.283  0.00  0.00     0.168 HD
ENDROOT
BRANCH  11  17
ATOM     17  C   UNL d   1       5.303  -6.356  -0.904  0.00  0.00     0.261 C 
ATOM     18  O   UNL d   1       4.137  -6.747  -0.724  0.00  0.00    -0.267 OA
ATOM     19  N   UNL d   1       6.285  -7.285  -1.085  0.00  0.00    -0.352 N 
ATOM     20  H   UNL d   1       7.227  -6.948  -1.148  0.00  0.00     0.163 HD
BRANCH  19  21
ATOM     21  C   UNL d   1       6.014  -8.730  -1.070  0.00  0.00     0.161 C 
BRANCH  21  22
ATOM     22  C   UNL d   1       7.245  -9.595  -1.250  0.00  0.00    -0.041 C 
ATOM     23  C   UNL d   1       8.524  -9.039  -1.387  0.00  0.00     0.009 C 
ATOM     24  C   UNL d   1       9.665  -9.823  -1.287  0.00  0.00     0.001 C 
ATOM     25  C   UNL d   1       9.554 -11.203  -1.341  0.00  0.00     0.000 C 
ATOM     26  C   UNL d   1       8.293 -11.792  -1.358  0.00  0.00     0.001 C 
ATOM     27  C   UNL d   1       7.146 -10.998  -1.225  0.00  0.00     0.009 C 
ENDBRANCH  21  22
ENDBRANCH  19  21
ENDBRANCH  11  17
BRANCH  12  28
ATOM     28  N   UNL d   1       3.395  -4.218  -0.582  0.00  0.00    -0.397 N 
ATOM     29  H   UNL d   1       3.080  -5.196  -0.546  0.00  0.00     0.156 HD
ATOM     30  H   UNL d   1       2.604  -3.591  -0.636  0.00  0.00     0.156 HD
ENDBRANCH  12  28
BRANCH   7  31
ATOM     31  N   UNL d   1       7.492   0.972  -1.127  0.00  0.00    -0.363 N 
ATOM     32  C   UNL d   1       7.511   2.119  -0.168  0.00  0.00     0.150 C 
ATOM     33  C   UNL d   1       7.361   3.479  -0.893  0.00  0.00     0.187 C 
ATOM     34  O   UNL d   1       8.329   3.604  -1.943  0.00  0.00    -0.388 OA
ATOM     35  C   UNL d   1       8.154   2.563  -2.911  0.00  0.00     0.187 C 
ATOM     36  C   UNL d   1       8.393   1.178  -2.276  0.00  0.00     0.150 C 
ENDBRANCH   7  31
TORSDOF 5
