@<TRIPOS>MOLECULE
*****
 41 44 0 0 0
SMALL
GASTEIGER

@<TRIPOS>ATOM
      1 O           0.9348    0.0726   -0.0558 O.2     1  UNL1       -0.2667
      2 C           2.1693    0.0028   -0.0275 C.2     1  UNL1        0.2836
      3 N           2.8798   -0.4771    1.0881 N.am    1  UNL1       -0.2016
      4 N           2.1774   -0.9141    2.2203 N.2     1  UNL1       -0.1859
      5 C           2.8401   -1.1859    3.3048 C.2     1  UNL1        0.0689
      6 C           2.1657   -1.6274    4.5242 C.ar    1  UNL1        0.0595
      7 C           2.4754   -1.3438    5.8542 C.ar    1  UNL1       -0.0320
      8 C           1.5284   -1.9934    6.6943 C.ar    1  UNL1       -0.0262
      9 C           0.6931   -2.7066    5.8611 C.ar    1  UNL1        0.0196
     10 N           1.0504   -2.4501    4.5597 N.ar    1  UNL1       -0.3569
     11 C          -0.4210   -3.5946    6.3121 C.3     1  UNL1       -0.0122
     12 C          -0.8509   -3.1866    7.7363 C.3     1  UNL1       -0.0474
     13 C           0.3655   -3.0475    8.6702 C.3     1  UNL1       -0.0487
     14 C           1.3451   -1.9566    8.1838 C.3     1  UNL1       -0.0260
     15 C           2.9659    0.4884   -1.1884 C.ar    1  UNL1        0.1519
     16 N           4.1185   -0.0953   -1.6221 N.ar    1  UNL1       -0.1686
     17 N           4.4531    0.5850   -2.7615 N.ar    1  UNL1       -0.2806
     18 C           3.6209    1.6188   -2.9933 C.ar    1  UNL1        0.0400
     19 C           2.6545    1.5807   -2.0376 C.ar    1  UNL1        0.0055
     20 C           1.6901    2.6845   -2.2028 C.3     1  UNL1       -0.0234
     21 C           2.2572    3.4680   -3.4495 C.3     1  UNL1       -0.0435
     22 C           3.5332    2.7168   -3.9671 C.3     1  UNL1       -0.0104
     23 H           3.8951   -0.4464    1.0800 H       1  UNL1        0.1776
     24 H           3.9384   -1.0811    3.3599 H       1  UNL1        0.0866
     25 H           3.2760   -0.6990    6.1935 H       1  UNL1        0.0642
     26 H           0.5961   -2.8265    3.7374 H       1  UNL1        0.1656
     27 H          -0.0669   -4.6335    6.3321 H       1  UNL1        0.0328
     28 H          -1.2779   -3.5456    5.6338 H       1  UNL1        0.0328
     29 H          -1.5531   -3.9242    8.1423 H       1  UNL1        0.0269
     30 H          -1.3808   -2.2258    7.6988 H       1  UNL1        0.0269
     31 H           0.8872   -4.0120    8.7225 H       1  UNL1        0.0269
     32 H           0.0294   -2.8162    9.6887 H       1  UNL1        0.0269
     33 H           2.3043   -2.0727    8.6997 H       1  UNL1        0.0314
     34 H           0.9394   -0.9761    8.4650 H       1  UNL1        0.0314
     35 H           5.2660    0.2935   -3.2978 H       1  UNL1        0.1885
     36 H           1.6803    3.3392   -1.3266 H       1  UNL1        0.0315
     37 H           0.6766    2.3294   -2.4073 H       1  UNL1        0.0315
     38 H           2.5111    4.4987   -3.1700 H       1  UNL1        0.0272
     39 H           1.5028    3.5381   -4.2430 H       1  UNL1        0.0272
     40 H           4.4044    3.3785   -3.9280 H       1  UNL1        0.0328
     41 H           3.3860    2.3715   -4.9947 H       1  UNL1        0.0328
@<TRIPOS>BOND
     1     1     2    2
     2     2     3   am
     3     3     4    1
     4     4     5    2
     5     5     6    1
     6     6     7   ar
     7     7     8   ar
     8     8     9   ar
     9     9    10   ar
    10     6    10   ar
    11     9    11    1
    12    11    12    1
    13    12    13    1
    14    13    14    1
    15     8    14    1
    16     2    15    1
    17    15    16   ar
    18    16    17   ar
    19    17    18   ar
    20    18    19   ar
    21    15    19   ar
    22    19    20    1
    23    20    21    1
    24    21    22    1
    25    18    22    1
    26     3    23    1
    27     5    24    1
    28     7    25    1
    29    10    26    1
    30    11    27    1
    31    11    28    1
    32    12    29    1
    33    12    30    1
    34    13    31    1
    35    13    32    1
    36    14    33    1
    37    14    34    1
    38    17    35    1
    39    20    36    1
    40    20    37    1
    41    21    38    1
    42    21    39    1
    43    22    40    1
    44    22    41    1
