REMARK  14 active torsions:
REMARK  status: ('A' for Active; 'I' for Inactive)
REMARK    1  A    between atoms: C_2  and  C_3 
REMARK    2  A    between atoms: C_3  and  C_4 
REMARK    3  A    between atoms: C_4  and  C_5 
REMARK    4  A    between atoms: C_5  and  C_6 
REMARK    5  A    between atoms: C_6  and  O_7 
REMARK    6  A    between atoms: O_7  and  C_8 
REMARK    7  A    between atoms: C_11  and  C_12 
REMARK       I    between atoms: C_12  and  N_14 
REMARK    8  A    between atoms: N_14  and  C_15 
REMARK    9  A    between atoms: C_15  and  N_17 
REMARK   10  A    between atoms: C_23  and  C_24 
REMARK   11  A    between atoms: C_24  and  C_25 
REMARK   12  A    between atoms: C_25  and  O_27 
REMARK   13  A    between atoms: C_28  and  O_27 
REMARK   14  A    between atoms: C_28  and  C_30 
ROOT
ATOM      1  C   UNL d   1      15.319  -5.499   2.952  0.00  0.00     0.177 C 
ATOM      2  S   UNL d   1      16.981  -5.531   3.238  0.00  0.00    -0.041 SA
ENDROOT
BRANCH   1   3
ATOM      3  N   UNL d   1      14.573  -6.576   2.419  0.00  0.00    -0.299 N 
ATOM      4  C   UNL d   1      15.072  -7.813   1.944  0.00  0.00     0.257 C 
ATOM      5  O   UNL d   1      16.260  -8.133   1.990  0.00  0.00    -0.267 OA
ATOM      6  H   UNL d   1      13.592  -6.398   2.288  0.00  0.00     0.171 HD
BRANCH   4   7
ATOM      7  C   UNL d   1      14.167  -8.818   1.277  0.00  0.00     0.032 A 
ATOM      8  C   UNL d   1      14.759 -10.000   0.771  0.00  0.00     0.020 A 
ATOM      9  C   UNL d   1      14.024 -10.939   0.033  0.00  0.00     0.038 A 
ATOM     10  C   UNL d   1      12.660 -10.753  -0.163  0.00  0.00     0.068 A 
ATOM     11  C   UNL d   1      12.053  -9.614   0.372  0.00  0.00     0.038 A 
ATOM     12  C   UNL d   1      12.797  -8.649   1.082  0.00  0.00     0.020 A 
BRANCH  10  13
ATOM     13  O   UNL d   1      11.995 -11.774  -0.788  0.00  0.00    -0.351 OA
BRANCH  13  14
ATOM     14  C   UNL d   1      10.916 -11.382  -1.638  0.00  0.00     0.175 C 
BRANCH  14  15
ATOM     15  C   UNL d   1      10.191 -12.635  -2.126  0.00  0.00     0.027 C 
BRANCH  15  16
ATOM     16  C   UNL d   1       9.081 -12.268  -3.107  0.00  0.00     0.002 C 
BRANCH  16  17
ATOM     17  C   UNL d   1       8.354 -13.512  -3.604  0.00  0.00    -0.000 C 
BRANCH  17  18
ATOM     18  C   UNL d   1       7.253 -13.140  -4.593  0.00  0.00    -0.005 C 
ATOM     19  C   UNL d   1       6.534 -14.383  -5.088  0.00  0.00     0.005 C 
ENDBRANCH  17  18
ENDBRANCH  16  17
ENDBRANCH  15  16
ENDBRANCH  14  15
ENDBRANCH  13  14
ENDBRANCH  10  13
ENDBRANCH   4   7
ENDBRANCH   1   3
BRANCH   1  20
ATOM     20  N   UNL d   1      14.566  -4.314   3.172  0.00  0.00    -0.343 N 
ATOM     21  C   UNL d   1      15.236  -2.986   3.132  0.00  0.00     0.146 C 
ATOM     22  C   UNL d   1      14.260  -1.996   2.520  0.00  0.00     0.142 C 
ATOM     23  N   UNL d   1      13.041  -1.921   3.298  0.00  0.00    -0.358 N 
ATOM     24  C   UNL d   1      12.476  -3.018   3.898  0.00  0.00     0.241 C 
ATOM     25  H   UNL d   1      12.438  -1.110   3.219  0.00  0.00     0.162 HD
ATOM     26  O   UNL d   1      11.375  -2.910   4.440  0.00  0.00    -0.271 OA
ATOM     27  C   UNL d   1      13.344  -4.297   4.047  0.00  0.00     0.188 C 
BRANCH  27  28
ATOM     28  C   UNL d   1      13.774  -4.325   5.522  0.00  0.00     0.146 C 
BRANCH  28  29
ATOM     29  C   UNL d   1      13.618  -5.669   6.149  0.00  0.00     0.261 C 
ATOM     30  O   UNL d   1      13.153  -6.624   5.523  0.00  0.00    -0.265 OA
BRANCH  29  31
ATOM     31  O   UNL d   1      14.053  -5.823   7.420  0.00  0.00    -0.316 OA
BRANCH  31  32
ATOM     32  C   UNL d   1      14.610  -4.814   8.312  0.00  0.00     0.127 C 
ATOM     33  C   UNL d   1      15.797  -4.060   7.723  0.00  0.00     0.040 C 
BRANCH  32  34
ATOM     34  C   UNL d   1      15.144  -5.553   9.552  0.00  0.00     0.027 C 
ATOM     35  C   UNL d   1      14.067  -6.285  10.329  0.00  0.00     0.007 C 
ENDBRANCH  32  34
ENDBRANCH  31  32
ENDBRANCH  29  31
ENDBRANCH  28  29
ENDBRANCH  27  28
ENDBRANCH   1  20
TORSDOF 14
