REMARK  7 active torsions:
REMARK  status: ('A' for Active; 'I' for Inactive)
REMARK    1  A    between atoms: C_2  and  C_3 
REMARK       I    between atoms: C_2  and  N_20 
REMARK    2  A    between atoms: C_3  and  N_4 
REMARK    3  A    between atoms: N_4  and  C_5 
REMARK    4  A    between atoms: C_8  and  C_9 
REMARK       I    between atoms: C_9  and  N_11 
REMARK    5  A    between atoms: N_11  and  C_12 
REMARK    6  A    between atoms: C_12  and  C_13 
REMARK    7  A    between atoms: N_20  and  C_21 
ROOT
ATOM      1  C   UNL d   1       2.517  -3.431   1.757  0.00  0.00     0.028 C 
ATOM      2  C   UNL d   1       1.867  -4.631   1.463  0.00  0.00     0.030 C 
ATOM      3  C   UNL d   1       2.196  -5.817   2.144  0.00  0.00     0.019 C 
ATOM      4  C   UNL d   1       3.255  -5.855   3.062  0.00  0.00     0.032 C 
ATOM      5  C   UNL d   1       3.970  -4.673   3.282  0.00  0.00     0.019 C 
ATOM      6  C   UNL d   1       3.622  -3.491   2.611  0.00  0.00     0.030 C 
ENDROOT
BRANCH   1   7
ATOM      7  N   UNL d   1       2.066  -2.231   1.236  0.00  0.00    -0.381 N 
ATOM      8  H   UNL d   1       1.122  -2.158   0.866  0.00  0.00     0.160 HD
BRANCH   7   9
ATOM      9  C   UNL d   1       3.011  -1.214   0.792  0.00  0.00     0.223 C 
BRANCH   9  10
ATOM     10  C   UNL d   1       2.325  -0.031   0.078  0.00  0.00     0.239 C 
ATOM     11  O   UNL d   1       1.097   0.069   0.000  0.00  0.00    -0.271 OA
ATOM     12  N   UNL d   1       3.110   1.012  -0.377  0.00  0.00    -0.324 N 
ATOM     13  H   UNL d   1       2.589   1.859  -0.580  0.00  0.00     0.169 HD
BRANCH  12  14
ATOM     14  C   UNL d   1       4.514   1.046  -0.511  0.00  0.00     0.056 C 
ATOM     15  C   UNL d   1       5.183   2.221  -0.139  0.00  0.00     0.031 C 
ATOM     16  C   UNL d   1       6.575   2.311  -0.264  0.00  0.00     0.002 C 
ATOM     17  C   UNL d   1       7.315   1.204  -0.673  0.00  0.00     0.002 C 
ATOM     18  C   UNL d   1       6.661   0.043  -1.065  0.00  0.00     0.026 C 
ATOM     19  C   UNL d   1       5.268  -0.001  -1.071  0.00  0.00     0.060 C 
ATOM     20 CL   UNL d   1       4.570  -1.245  -2.065  0.00  0.00    -0.082 Cl
ENDBRANCH  12  14
ENDBRANCH   9  10
ENDBRANCH   7   9
ENDBRANCH   1   7
BRANCH   4  21
ATOM     21  C   UNL d   1       3.584  -7.171   3.724  0.00  0.00     0.251 C 
ATOM     22  O   UNL d   1       2.919  -8.167   3.488  0.00  0.00    -0.268 OA
ATOM     23  N   UNL d   1       4.668  -7.194   4.575  0.00  0.00    -0.351 N 
ATOM     24  H   UNL d   1       5.230  -6.372   4.682  0.00  0.00     0.163 HD
BRANCH  23  25
ATOM     25  C   UNL d   1       5.128  -8.406   5.245  0.00  0.00     0.187 C 
BRANCH  25  26
ATOM     26  C   UNL d   1       6.287  -8.064   6.126  0.00  0.00     0.070 A 
ATOM     27  C   UNL d   1       6.786  -6.865   6.601  0.00  0.00     0.036 A 
ATOM     28  C   UNL d   1       7.916  -7.165   7.389  0.00  0.00     0.027 A 
ATOM     29  C   UNL d   1       8.035  -8.534   7.375  0.00  0.00     0.142 A 
ATOM     30  O   UNL d   1       7.054  -9.092   6.609  0.00  0.00    -0.325 OA
ENDBRANCH  25  26
ENDBRANCH  23  25
ENDBRANCH   4  21
TORSDOF 7
