@<TRIPOS>MOLECULE
*****
 53 55 0 0 0
SMALL
GASTEIGER

@<TRIPOS>ATOM
      1 C           2.4764    0.0008   -0.0127 C.3     1  UNL1       -0.0397
      2 C           0.9753   -0.0075    0.0042 C.ar    1  UNL1       -0.0504
      3 C           0.2601   -1.2113    0.0145 C.ar    1  UNL1       -0.0582
      4 C          -1.1400   -1.2076    0.0231 C.ar    1  UNL1       -0.0507
      5 C          -1.8429    0.0024    0.0103 C.ar    1  UNL1        0.0225
      6 C          -3.2944    0.0238   -0.0505 C.ar    1  UNL1        0.2021
      7 N          -4.1080   -0.5549    0.8471 N.ar    1  UNL1       -0.0561
      8 O          -5.3909   -0.2675    0.3584 O.2     1  UNL1       -0.3377
      9 C          -5.2155    0.4401   -0.7987 C.ar    1  UNL1        0.2281
     10 C          -6.4327    0.8472   -1.5605 C.3     1  UNL1        0.0348
     11 C          -6.0647    1.5886   -2.8641 C.3     1  UNL1        0.0338
     12 C          -7.2879    2.0297   -3.6759 C.2     1  UNL1        0.2296
     13 O          -8.4413    1.8030   -3.3081 O.2     1  UNL1       -0.2743
     14 N          -7.0192    2.7073   -4.8633 N.am    1  UNL1       -0.2332
     15 N          -8.1081    3.1579   -5.6902 N.am    1  UNL1       -0.2182
     16 C          -7.8490    3.8340   -6.8727 C.2     1  UNL1        0.3160
     17 O          -6.7071    4.0753   -7.2669 O.2     1  UNL1       -0.2513
     18 N          -8.9733    4.2184   -7.5899 N.am    1  UNL1       -0.2982
     19 C          -8.8527    4.9496   -8.8576 C.3     1  UNL1        0.0147
     20 C         -10.1957    5.3025   -9.5152 C.3     1  UNL1       -0.0191
     21 C         -10.0204    6.0534  -10.8429 C.3     1  UNL1        0.0296
     22 N         -11.3210    6.4001  -11.4563 N.ar    1  UNL1       -0.2957
     23 C         -11.7813    7.6865  -11.7341 C.ar    1  UNL1        0.0732
     24 C         -13.0163    7.5545  -12.3061 C.ar    1  UNL1        0.1870
     25 N         -13.2671    6.2051  -12.3708 N.ar    1  UNL1       -0.2011
     26 C         -12.2396    5.5108  -11.8728 C.ar    1  UNL1        0.2463
     27 N          -3.9525    0.6589   -1.0806 N.ar    1  UNL1       -0.1913
     28 C          -1.1280    1.2069   -0.0021 C.ar    1  UNL1       -0.0507
     29 C           0.2704    1.2019    0.0022 C.ar    1  UNL1       -0.0582
     30 H           2.8841   -1.0154    0.0004 H       1  UNL1        0.0278
     31 H           2.8627    0.5285    0.8652 H       1  UNL1        0.0278
     32 H           2.8406    0.4961   -0.9189 H       1  UNL1        0.0278
     33 H           0.7880   -2.1628    0.0106 H       1  UNL1        0.0620
     34 H          -1.6743   -2.1550    0.0172 H       1  UNL1        0.0625
     35 H          -7.0542    1.4869   -0.9220 H       1  UNL1        0.0365
     36 H          -7.0265   -0.0469   -1.7892 H       1  UNL1        0.0365
     37 H          -5.4442    0.9321   -3.4871 H       1  UNL1        0.0363
     38 H          -5.4667    2.4743   -2.6156 H       1  UNL1        0.0363
     39 H          -6.0796    2.9134   -5.2021 H       1  UNL1        0.1728
     40 H          -9.0376    2.9487   -5.3371 H       1  UNL1        0.1744
     41 H          -9.8855    4.0107   -7.2084 H       1  UNL1        0.1503
     42 H          -8.2583    4.3337   -9.5434 H       1  UNL1        0.0463
     43 H          -8.2814    5.8662   -8.6678 H       1  UNL1        0.0463
     44 H         -10.7976    5.9189   -8.8371 H       1  UNL1        0.0297
     45 H         -10.7711    4.3868   -9.6939 H       1  UNL1        0.0297
     46 H          -9.4688    5.4490  -11.5729 H       1  UNL1        0.0494
     47 H          -9.4585    6.9826  -10.6898 H       1  UNL1        0.0494
     48 H         -11.1700    8.5380  -11.4865 H       1  UNL1        0.0871
     49 H         -13.7542    8.2441  -12.6789 H       1  UNL1        0.1392
     50 H         -14.1130    5.7827  -12.7488 H       1  UNL1        0.4538
     51 H         -12.1718    4.4313  -11.8087 H       1  UNL1        0.1600
     52 H          -1.6575    2.1570   -0.0129 H       1  UNL1        0.0625
     53 H           0.8076    2.1481   -0.0010 H       1  UNL1        0.0620
@<TRIPOS>UNITY_ATOM_ATTR
25 1
charge 1
@<TRIPOS>BOND
     1     1     2    1
     2     2     3   ar
     3     3     4   ar
     4     4     5   ar
     5     5     6    1
     6     6     7   ar
     7     7     8   ar
     8     8     9   ar
     9     9    10    1
    10    10    11    1
    11    11    12    1
    12    12    13    2
    13    12    14   am
    14    14    15    1
    15    15    16   am
    16    16    17    2
    17    16    18   am
    18    18    19    1
    19    19    20    1
    20    20    21    1
    21    21    22    1
    22    22    23   ar
    23    23    24   ar
    24    24    25   ar
    25    25    26   ar
    26    22    26   ar
    27     9    27   ar
    28     6    27   ar
    29     5    28   ar
    30    28    29   ar
    31     2    29   ar
    32     1    30    1
    33     1    31    1
    34     1    32    1
    35     3    33    1
    36     4    34    1
    37    10    35    1
    38    10    36    1
    39    11    37    1
    40    11    38    1
    41    14    39    1
    42    15    40    1
    43    18    41    1
    44    19    42    1
    45    19    43    1
    46    20    44    1
    47    20    45    1
    48    21    46    1
    49    21    47    1
    50    23    48    1
    51    24    49    1
    52    25    50    1
    53    26    51    1
    54    28    52    1
    55    29    53    1
