REMARK  9 active torsions:
REMARK  status: ('A' for Active; 'I' for Inactive)
REMARK    1  A    between atoms: C_2  and  O_3 
REMARK    2  A    between atoms: O_3  and  C_4 
REMARK    3  A    between atoms: C_7  and  N_8 
REMARK    4  A    between atoms: C_12  and  S_13 
REMARK    5  A    between atoms: S_13  and  C_14 
REMARK    6  A    between atoms: C_14  and  N_16 
REMARK    7  A    between atoms: N_16  and  N_17 
REMARK    8  A    between atoms: N_17  and  C_18 
REMARK    9  A    between atoms: C_18  and  C_19 
ROOT
ATOM      1  C   UNL d   1      13.042  -4.841   2.088  0.00  0.00     0.155 C 
ATOM      2  N   UNL d   1      13.611  -3.675   2.316  0.00  0.00    -0.379 N 
ATOM      3  H   UNL d   1      13.131  -2.799   2.151  0.00  0.00     0.158 HD
ATOM      4  H   UNL d   1      14.545  -3.648   2.694  0.00  0.00     0.158 HD
ENDROOT
BRANCH   1   5
ATOM      5  S   UNL d   1      11.279  -4.702   1.529  0.00  0.00    -0.078 SA
BRANCH   5   6
ATOM      6  C   UNL d   1      10.705  -2.852   1.292  0.00  0.00     0.157 A 
ATOM      7  C   UNL d   1      10.601  -2.043   2.577  0.00  0.00     0.129 A 
ATOM      8  C   UNL d   1       9.165  -1.568   2.702  0.00  0.00     0.232 A 
ATOM      9  N   UNL d   1       8.455  -2.030   1.618  0.00  0.00    -0.251 N 
ATOM     10  O   UNL d   1       8.773  -0.938   3.651  0.00  0.00    -0.273 OA
ATOM     11  C   UNL d   1       9.260  -2.724   0.729  0.00  0.00     0.246 A 
ATOM     12  O   UNL d   1       8.953  -3.065  -0.406  0.00  0.00    -0.271 OA
BRANCH   9  13
ATOM     13  C   UNL d   1       7.064  -1.770   1.417  0.00  0.00     0.045 A 
ATOM     14  C   UNL d   1       6.198  -2.833   1.128  0.00  0.00     0.033 A 
ATOM     15  C   UNL d   1       4.838  -2.611   0.850  0.00  0.00     0.039 A 
ATOM     16  C   UNL d   1       4.302  -1.323   0.876  0.00  0.00     0.068 A 
ATOM     17  C   UNL d   1       5.141  -0.258   1.203  0.00  0.00     0.039 A 
ATOM     18  C   UNL d   1       6.508  -0.481   1.491  0.00  0.00     0.033 A 
BRANCH  16  19
ATOM     19  O   UNL d   1       2.949  -1.229   0.683  0.00  0.00    -0.352 OA
BRANCH  19  20
ATOM     20  C   UNL d   1       2.484  -0.084  -0.038  0.00  0.00     0.171 C 
ATOM     21  C   UNL d   1       0.961  -0.080  -0.033  0.00  0.00     0.034 C 
ENDBRANCH  19  20
ENDBRANCH  16  19
ENDBRANCH   9  13
ENDBRANCH   5   6
ENDBRANCH   1   5
BRANCH   1  22
ATOM     22  N   UNL d   1      13.677  -6.107   2.244  0.00  0.00    -0.258 N 
ATOM     23  H   UNL d   1      13.028  -6.880   2.102  0.00  0.00     0.191 HD
BRANCH  22  24
ATOM     24  N   UNL d   1      15.313  -6.608   2.606  0.00  0.00    -0.185 NA
BRANCH  24  25
ATOM     25  C   UNL d   1      15.621  -7.964   2.606  0.00  0.00     0.148 C 
BRANCH  25  26
ATOM     26  C   UNL d   1      17.004  -8.772   3.226  0.00  0.00    -0.007 C 
ATOM     27  C   UNL d   1      16.736  -8.741   4.588  0.00  0.00     0.118 C 
ATOM     28  N   UNL d   1      18.017  -8.436   4.994  0.00  0.00    -0.281 NA
ATOM     29  C   UNL d   1      18.674  -9.617   4.817  0.00  0.00     0.019 A 
ATOM     30  H   UNL d   1      18.549  -7.617   4.753  0.00  0.00     0.128 HD
ATOM     31  C   UNL d   1      19.593 -10.148   5.753  0.00  0.00     0.024 A 
ATOM     32  C   UNL d   1      18.151 -10.079   3.590  0.00  0.00    -0.005 A 
ATOM     33  C   UNL d   1      20.180 -11.376   5.643  0.00  0.00     0.002 A 
ATOM     34  C   UNL d   1      19.798 -12.049   4.506  0.00  0.00     0.001 A 
ATOM     35  C   UNL d   1      18.839 -11.439   3.446  0.00  0.00     0.014 A 
ENDBRANCH  25  26
ENDBRANCH  24  25
ENDBRANCH  22  24
ENDBRANCH   1  22
TORSDOF 9
