REMARK  10 active torsions:
REMARK  status: ('A' for Active; 'I' for Inactive)
REMARK    1  A    between atoms: C_5  and  N_6 
REMARK       I    between atoms: N_6  and  C_7 
REMARK    2  A    between atoms: C_7  and  C_9 
REMARK    3  A    between atoms: C_9  and  C_10 
REMARK    4  A    between atoms: C_10  and  C_11 
REMARK       I    between atoms: C_11  and  N_13 
REMARK    5  A    between atoms: N_13  and  N_14 
REMARK    6  A    between atoms: N_14  and  C_15 
REMARK    7  A    between atoms: C_15  and  N_17 
REMARK       I    between atoms: N_17  and  C_18 
REMARK    8  A    between atoms: C_18  and  C_20 
REMARK    9  A    between atoms: C_20  and  O_21 
REMARK   10  A    between atoms: O_21  and  C_22 
ROOT
ATOM      1  C   UNL d   1      -8.244  -1.482  -0.213  0.00  0.00     0.236 C 
ATOM      2  O   UNL d   1      -8.258  -2.715  -0.256  0.00  0.00    -0.272 OA
ATOM      3  N   UNL d   1      -9.413  -0.737  -0.216  0.00  0.00    -0.268 N 
ATOM      4  H   UNL d   1      -9.422   0.286  -0.184  0.00  0.00     0.190 HD
ENDROOT
BRANCH   3   5
ATOM      5  N   UNL d   1     -10.732  -1.367  -0.274  0.00  0.00    -0.273 N 
ATOM      6  H   UNL d   1     -10.707  -2.385  -0.311  0.00  0.00     0.189 HD
BRANCH   5   7
ATOM      7  C   UNL d   1     -11.875  -0.546  -0.289  0.00  0.00     0.193 C 
ATOM      8  S   UNL d   1     -11.675   1.131  -0.216  0.00  0.00    -0.039 SA
BRANCH   7   9
ATOM      9  N   UNL d   1     -13.124  -1.211  -0.372  0.00  0.00    -0.301 N 
ATOM     10  C   UNL d   1     -14.397  -0.579  -0.417  0.00  0.00     0.248 C 
ATOM     11  O   UNL d   1     -14.548   0.643  -0.364  0.00  0.00    -0.271 OA
ATOM     12  H   UNL d   1     -13.113  -2.223  -0.383  0.00  0.00     0.171 HD
BRANCH  10  13
ATOM     13  C   UNL d   1     -15.662  -1.466  -0.466  0.00  0.00     0.278 C 
BRANCH  13  14
ATOM     14  O   UNL d   1     -16.837  -0.625  -0.474  0.00  0.00    -0.342 OA
BRANCH  14  15
ATOM     15  C   UNL d   1     -18.093  -1.178  -0.473  0.00  0.00     0.075 A 
ATOM     16  C   UNL d   1     -19.036  -0.539  -1.303  0.00  0.00     0.039 A 
ATOM     17  C   UNL d   1     -20.367  -0.978  -1.369  0.00  0.00     0.022 A 
ATOM     18  C   UNL d   1     -20.775  -2.038  -0.571  0.00  0.00     0.011 A 
ATOM     19 BR   UNL d   1     -22.558  -2.665  -0.642  0.00  0.00    -0.051 Br
ATOM     20  C   UNL d   1     -19.870  -2.644   0.295  0.00  0.00     0.028 A 
ATOM     21  C   UNL d   1     -18.526  -2.220   0.359  0.00  0.00    -0.027 A 
ATOM     22  C   UNL d   1     -17.639  -2.897   1.355  0.00  0.00     0.051 C 
ENDBRANCH  14  15
ENDBRANCH  13  14
ENDBRANCH  10  13
ENDBRANCH   7   9
ENDBRANCH   5   7
ENDBRANCH   3   5
BRANCH   1  23
ATOM     23  C   UNL d   1      -6.941  -0.677  -0.153  0.00  0.00     0.114 C 
BRANCH  23  24
ATOM     24  C   UNL d   1      -5.660  -1.566  -0.149  0.00  0.00     0.112 C 
BRANCH  24  25
ATOM     25  C   UNL d   1      -4.411  -0.696  -0.086  0.00  0.00     0.222 C 
ATOM     26  N   UNL d   1      -3.173  -1.345  -0.065  0.00  0.00    -0.327 N 
ATOM     27  H   UNL d   1      -3.149  -2.358  -0.105  0.00  0.00     0.169 HD
ATOM     28  O   UNL d   1      -4.570   0.529  -0.059  0.00  0.00    -0.273 OA
BRANCH  26  29
ATOM     29  C   UNL d   1      -1.904  -0.675  -0.020  0.00  0.00     0.035 A 
ATOM     30  C   UNL d   1      -1.816   0.717   0.022  0.00  0.00     0.030 A 
ATOM     31  C   UNL d   1      -0.599   1.391   0.024  0.00  0.00     0.009 A 
ATOM     32  C   UNL d   1       0.601   0.691   0.002  0.00  0.00    -0.056 A 
ATOM     33  C   UNL d   1       1.879   1.482  -0.015  0.00  0.00     0.049 C 
ATOM     34  C   UNL d   1       0.564  -0.718  -0.002  0.00  0.00    -0.054 A 
ATOM     35  C   UNL d   1      -0.692  -1.392  -0.020  0.00  0.00     0.037 A 
ATOM     36  C   UNL d   1       1.856  -1.493   0.020  0.00  0.00     0.049 C 
ENDBRANCH  26  29
ENDBRANCH  24  25
ENDBRANCH  23  24
ENDBRANCH   1  23
TORSDOF 10
