@<TRIPOS>MOLECULE
*****
 35 37 0 0 0
SMALL
GASTEIGER

@<TRIPOS>ATOM
      1 O           0.9744    0.0707   -0.1096 O.2     1  UNL1       -0.2654
      2 C           2.2022    0.0507   -0.1261 C.ar    1  UNL1        0.2791
      3 N           2.9624    1.1823   -0.1138 N.ar    1  UNL1       -0.2919
      4 C           4.3300    1.1396   -0.1037 C.ar    1  UNL1        0.2201
      5 N           4.9829    2.3611   -0.1005 N.pl3   1  UNL1       -0.2838
      6 C           6.3883    2.4867   -0.0975 C.ar    1  UNL1        0.0341
      7 C           7.1480    1.9237   -1.1300 C.ar    1  UNL1       -0.0404
      8 C           8.5416    1.9163   -1.0822 C.ar    1  UNL1       -0.0595
      9 C           9.1918    2.3568    0.0644 C.ar    1  UNL1       -0.0500
     10 C           8.4592    2.9341    1.1116 C.ar    1  UNL1        0.0566
     11 C           9.1764    3.3029    2.3868 C.3     1  UNL1        0.4175
     12 F           9.7531    2.2231    2.9876 F       1  UNL1       -0.1659
     13 F          10.1850    4.1946    2.1828 F       1  UNL1       -0.1659
     14 F           8.3660    3.8613    3.3281 F       1  UNL1       -0.1659
     15 C           7.0627    3.0802    0.9785 C.ar    1  UNL1       -0.0288
     16 N           4.9530   -0.0033   -0.0858 N.ar    1  UNL1       -0.1141
     17 N           4.2746   -1.2327   -0.0864 N.ar    1  UNL1       -0.1405
     18 C           2.9777   -1.2442   -0.1311 C.ar    1  UNL1        0.1574
     19 C           2.2344   -2.5294   -0.1396 C.ar    1  UNL1        0.0075
     20 C           1.3020   -2.8089   -1.1453 C.ar    1  UNL1       -0.0523
     21 C           0.4876   -3.9412   -1.0451 C.ar    1  UNL1       -0.0611
     22 C           0.6768   -4.8487   -0.0036 C.ar    1  UNL1       -0.0617
     23 C           1.6919   -4.6341    0.9289 C.ar    1  UNL1       -0.0611
     24 C           2.4427   -3.4545    0.8893 C.ar    1  UNL1       -0.0523
     25 H           2.4582    2.0520   -0.0971 H       1  UNL1        0.1717
     26 H           4.4720    3.2208    0.0318 H       1  UNL1        0.1550
     27 H           6.6462    1.4655   -1.9790 H       1  UNL1        0.0636
     28 H           9.1117    1.5171   -1.9164 H       1  UNL1        0.0618
     29 H          10.2699    2.2257    0.1537 H       1  UNL1        0.0623
     30 H           6.5044    3.5839    1.7652 H       1  UNL1        0.0642
     31 H           1.1925   -2.1502   -2.0022 H       1  UNL1        0.0624
     32 H          -0.2976   -4.1160   -1.7771 H       1  UNL1        0.0618
     33 H           0.0378   -5.7257    0.0771 H       1  UNL1        0.0618
     34 H           1.8866   -5.3801    1.6957 H       1  UNL1        0.0618
     35 H           3.1704   -3.2550    1.6720 H       1  UNL1        0.0624
@<TRIPOS>BOND
     1     1     2    2
     2     2     3   ar
     3     3     4   ar
     4     4     5    1
     5     5     6    1
     6     6     7   ar
     7     7     8   ar
     8     8     9   ar
     9     9    10   ar
    10    10    11    1
    11    11    12    1
    12    11    13    1
    13    11    14    1
    14    10    15   ar
    15     6    15   ar
    16     4    16   ar
    17    16    17   ar
    18    17    18   ar
    19     2    18   ar
    20    18    19    1
    21    19    20   ar
    22    20    21   ar
    23    21    22   ar
    24    22    23   ar
    25    23    24   ar
    26    19    24   ar
    27     3    25    1
    28     5    26    1
    29     7    27    1
    30     8    28    1
    31     9    29    1
    32    15    30    1
    33    20    31    1
    34    21    32    1
    35    22    33    1
    36    23    34    1
    37    24    35    1
