@<TRIPOS>MOLECULE
*****
 59 63 0 0 0
SMALL
GASTEIGER

@<TRIPOS>ATOM
      1 C          -3.5186    0.0940   -0.0042 C.3     1  UNL1       -0.0237
      2 C          -2.0469   -0.0892    0.0022 C.ar    1  UNL1        0.0261
      3 N          -1.2071    1.0042   -0.0109 N.ar    1  UNL1       -0.3575
      4 C           0.1097    0.6149    0.0024 C.ar    1  UNL1        0.0474
      5 C           1.2884    1.3817    0.0027 C.ar    1  UNL1       -0.0378
      6 C           2.5108    0.7013   -0.0137 C.ar    1  UNL1       -0.0598
      7 C           2.5497   -0.6885   -0.0224 C.ar    1  UNL1       -0.0611
      8 C           1.3642   -1.4328   -0.0002 C.ar    1  UNL1       -0.0519
      9 C           0.1106   -0.7804    0.0101 C.ar    1  UNL1        0.0120
     10 C          -1.2632   -1.2442    0.0282 C.ar    1  UNL1        0.0646
     11 C          -1.6914   -2.6612    0.0670 C.2     1  UNL1        0.2464
     12 O          -0.8696   -3.5835    0.1064 O.2     1  UNL1       -0.2701
     13 N          -3.0505   -2.9293    0.0636 N.am    1  UNL1       -0.3095
     14 C          -3.5822   -4.2853    0.1044 C.3     1  UNL1        0.0315
     15 C          -5.1338   -4.3616    0.0919 C.3     1  UNL1        0.0593
     16 N          -5.6416   -5.7233    0.1323 N.ar    1  UNL1       -0.2448
     17 N          -4.7321   -6.7082    0.0277 N.ar    1  UNL1       -0.1770
     18 C          -5.4614   -7.8098    0.0363 C.ar    1  UNL1        0.0620
     19 C          -6.8445   -7.5781    0.1629 C.ar    1  UNL1        0.0784
     20 C          -8.0143   -8.3758    0.2377 C.ar    1  UNL1        0.1354
     21 N          -7.9936   -9.7693    0.3455 N.pl3   1  UNL1       -0.3096
     22 C          -6.6990  -10.3650    0.6981 C.3     1  UNL1        0.0396
     23 C          -6.8952  -11.7458    1.2954 C.3     1  UNL1        0.0719
     24 C          -7.6921  -11.6269    2.5912 C.3     1  UNL1       -0.0372
     25 O          -7.5250  -12.6025    0.3333 O.3     1  UNL1       -0.3708
     26 C          -8.8164  -12.0917   -0.0645 C.3     1  UNL1        0.0719
     27 C          -9.3961  -13.0790   -1.0645 C.3     1  UNL1       -0.0372
     28 C          -8.7407  -10.6225   -0.6100 C.3     1  UNL1        0.0396
     29 N          -9.1875   -7.6952    0.3540 N.ar    1  UNL1       -0.2200
     30 C          -9.1545   -6.3370    0.4259 C.ar    1  UNL1        0.1204
     31 N          -8.0872   -5.4991    0.3671 N.ar    1  UNL1       -0.2162
     32 C          -6.9411   -6.1930    0.2293 C.ar    1  UNL1        0.1633
     33 H          -3.8235    1.1407   -0.0568 H       1  UNL1        0.0292
     34 H          -3.9410   -0.3340    0.9118 H       1  UNL1        0.0292
     35 H          -3.9498   -0.4168   -0.8725 H       1  UNL1        0.0292
     36 H          -1.5071    1.9700   -0.0331 H       1  UNL1        0.1656
     37 H           1.2684    2.4678    0.0085 H       1  UNL1        0.0638
     38 H           3.4438    1.2616   -0.0236 H       1  UNL1        0.0618
     39 H           3.5045   -1.2079   -0.0473 H       1  UNL1        0.0618
     40 H           1.4107   -2.5182    0.0008 H       1  UNL1        0.0624
     41 H          -3.7080   -2.1767    0.0274 H       1  UNL1        0.1491
     42 H          -3.1797   -4.7626    1.0073 H       1  UNL1        0.0480
     43 H          -3.1582   -4.8179   -0.7576 H       1  UNL1        0.0480
     44 H          -5.5229   -3.9082   -0.8259 H       1  UNL1        0.0525
     45 H          -5.5475   -3.8329    0.9557 H       1  UNL1        0.0525
     46 H          -4.9242   -8.7399   -0.0427 H       1  UNL1        0.0856
     47 H          -6.1835   -9.7711    1.4608 H       1  UNL1        0.0489
     48 H          -6.0891  -10.4548   -0.2096 H       1  UNL1        0.0489
     49 H          -5.9032  -12.1619    1.5117 H       1  UNL1        0.0609
     50 H          -8.6853  -11.1990    2.4203 H       1  UNL1        0.0255
     51 H          -7.1934  -10.9588    3.2990 H       1  UNL1        0.0255
     52 H          -7.8398  -12.6113    3.0353 H       1  UNL1        0.0255
     53 H          -9.4738  -12.1315    0.8080 H       1  UNL1        0.0609
     54 H          -8.7800  -13.1503   -1.9655 H       1  UNL1        0.0255
     55 H         -10.4149  -12.7949   -1.3381 H       1  UNL1        0.0255
     56 H          -9.4260  -14.0845   -0.6240 H       1  UNL1        0.0255
     57 H          -9.7545  -10.2532   -0.7941 H       1  UNL1        0.0489
     58 H          -8.1949  -10.6345   -1.5629 H       1  UNL1        0.0489
     59 H         -10.1225   -5.8535    0.5563 H       1  UNL1        0.1048
@<TRIPOS>BOND
     1     1     2    1
     2     2     3   ar
     3     3     4   ar
     4     4     5   ar
     5     5     6   ar
     6     6     7   ar
     7     7     8   ar
     8     8     9   ar
     9     4     9   ar
    10     9    10   ar
    11     2    10   ar
    12    10    11    1
    13    11    12    2
    14    11    13   am
    15    13    14    1
    16    14    15    1
    17    15    16    1
    18    16    17   ar
    19    17    18   ar
    20    18    19   ar
    21    19    20   ar
    22    20    21    1
    23    21    22    1
    24    22    23    1
    25    23    25    1
    26    25    26    1
    27    26    27    1
    28    26    28    1
    29    21    28    1
    30    20    29   ar
    31    29    30   ar
    32    30    31   ar
    33    31    32   ar
    34    19    32   ar
    35    16    32   ar
    36    23    24    1
    37     1    33    1
    38     1    34    1
    39     1    35    1
    40     3    36    1
    41     5    37    1
    42     6    38    1
    43     7    39    1
    44     8    40    1
    45    13    41    1
    46    14    42    1
    47    14    43    1
    48    15    44    1
    49    15    45    1
    50    18    46    1
    51    22    47    1
    52    22    48    1
    53    23    49    1
    54    24    50    1
    55    24    51    1
    56    24    52    1
    57    26    53    1
    58    27    54    1
    59    27    55    1
    60    27    56    1
    61    28    57    1
    62    28    58    1
    63    30    59    1
