@<TRIPOS>MOLECULE
*****
 34 36 0 0 0
SMALL
GASTEIGER

@<TRIPOS>ATOM
      1 O           1.0463   -0.0052   -0.0097 O.2     1  UNL1       -0.2671
      2 C           2.2758   -0.0603   -0.0024 C.2     1  UNL1        0.2764
      3 N           3.0212   -0.4339    1.1100 N.am    1  UNL1       -0.2313
      4 N           2.3449   -0.9462    2.2295 N.pl3   1  UNL1       -0.2642
      5 C           3.0512   -1.2958    3.3902 C.ar    1  UNL1        0.0458
      6 C           4.1487   -0.5579    3.8540 C.ar    1  UNL1       -0.0393
      7 C           4.8768   -0.9597    4.9839 C.ar    1  UNL1       -0.0586
      8 C           4.5409   -2.1331    5.6535 C.ar    1  UNL1       -0.0433
      9 C           3.4581   -2.8821    5.2043 C.ar    1  UNL1        0.0428
     10 CL          3.0643   -4.3540    6.0103 Cl      1  UNL1       -0.0835
     11 C           2.7071   -2.4617    4.0969 C.ar    1  UNL1       -0.0210
     12 C           3.0634    0.3501   -1.2340 C.ar    1  UNL1        0.1065
     13 C           4.0683   -0.4002   -1.7165 C.ar    1  UNL1       -0.0253
     14 C           4.7498   -0.0013   -2.9606 C.ar    1  UNL1       -0.0106
     15 C           5.7985   -0.7623   -3.4922 C.ar    1  UNL1       -0.0538
     16 C           6.4373   -0.3656   -4.6742 C.ar    1  UNL1       -0.0612
     17 C           6.0352    0.7930   -5.3391 C.ar    1  UNL1       -0.0610
     18 C           4.9880    1.5582   -4.8248 C.ar    1  UNL1       -0.0488
     19 C           4.3473    1.1576   -3.6421 C.ar    1  UNL1        0.0465
     20 C           3.2180    1.9451   -3.0882 C.ar    1  UNL1        0.2570
     21 O           2.8151    2.9622   -3.6494 O.2     1  UNL1       -0.2672
     22 N           2.6498    1.4756   -1.9224 N.ar    1  UNL1       -0.3179
     23 H           4.0319   -0.5007    1.1049 H       1  UNL1        0.1731
     24 H           1.3251   -0.9928    2.1988 H       1  UNL1        0.1700
     25 H           4.4190    0.3751    3.3670 H       1  UNL1        0.0636
     26 H           5.7067   -0.3545    5.3413 H       1  UNL1        0.0619
     27 H           5.1204   -2.4542    6.5164 H       1  UNL1        0.0632
     28 H           1.8675   -3.0705    3.7706 H       1  UNL1        0.0651
     29 H           4.3717   -1.3281   -1.2465 H       1  UNL1        0.0646
     30 H           6.1312   -1.6719   -2.9988 H       1  UNL1        0.0624
     31 H           7.2524   -0.9630   -5.0784 H       1  UNL1        0.0618
     32 H           6.5347    1.0966   -6.2574 H       1  UNL1        0.0618
     33 H           4.6735    2.4608   -5.3459 H       1  UNL1        0.0625
     34 H           1.8450    1.9905   -1.5784 H       1  UNL1        0.1691
@<TRIPOS>BOND
     1     1     2    2
     2     2     3   am
     3     3     4    1
     4     4     5    1
     5     5     6   ar
     6     6     7   ar
     7     7     8   ar
     8     8     9   ar
     9     9    10    1
    10     9    11   ar
    11     5    11   ar
    12     2    12    1
    13    12    13   ar
    14    13    14   ar
    15    14    15   ar
    16    15    16   ar
    17    16    17   ar
    18    17    18   ar
    19    18    19   ar
    20    14    19   ar
    21    19    20   ar
    22    20    21    2
    23    20    22   ar
    24    12    22   ar
    25     3    23    1
    26     4    24    1
    27     6    25    1
    28     7    26    1
    29     8    27    1
    30    11    28    1
    31    13    29    1
    32    15    30    1
    33    16    31    1
    34    17    32    1
    35    18    33    1
    36    22    34    1
