@<TRIPOS>MOLECULE
*****
 60 62 0 0 0
SMALL
GASTEIGER

@<TRIPOS>ATOM
      1 C           1.2051    0.4877    0.1843 C.3     1  UNL1        0.0790
      2 O           2.5632    0.0737    0.0202 O.3     1  UNL1       -0.4915
      3 C           3.1171   -0.9873    0.6949 C.ar    1  UNL1        0.1615
      4 C           4.3366   -0.6948    1.3443 C.ar    1  UNL1       -0.0160
      5 C           5.2366   -1.6944    1.8292 C.ar    1  UNL1       -0.0534
      6 C           4.9383   -3.0536    1.7570 C.ar    1  UNL1       -0.0266
      7 C           5.8874   -4.1260    2.3896 C.3     1  UNL1        0.0384
      8 N           5.4198   -5.5306    2.2977 N.am    1  UNL1       -0.2948
      9 C           5.9554   -6.7138    2.8484 C.2     1  UNL1        0.3084
     10 O           7.0042   -6.6468    3.4530 O.2     1  UNL1       -0.2522
     11 N           5.2290   -7.9377    2.6100 N.am    1  UNL1       -0.2292
     12 C           3.9602   -8.1165    1.7971 C.3     1  UNL1        0.0631
     13 C           3.2864   -6.8781    1.2441 C.3     1  UNL1       -0.0157
     14 N           1.9789   -6.9838    0.5454 N.4     1  UNL1        0.2320
     15 C           0.9229   -7.5128    1.4555 C.3     1  UNL1       -0.0433
     16 C           1.5528   -5.6238    0.0545 C.3     1  UNL1       -0.0433
     17 C           5.7109   -9.2329    3.0921 C.ar    1  UNL1        0.1695
     18 N           5.2587  -10.3374    2.5260 N.ar    1  UNL1       -0.2243
     19 C           5.7902  -11.4913    3.0909 C.ar    1  UNL1        0.0805
     20 C           5.6715  -12.7817    2.5409 C.ar    1  UNL1       -0.0317
     21 C           6.1016  -13.9106    3.2427 C.ar    1  UNL1       -0.0175
     22 C           6.6750  -13.7945    4.5076 C.ar    1  UNL1        0.1312
     23 O           7.0484  -15.0179    5.0049 O.3     1  UNL1       -0.4057
     24 C           7.7285  -15.1307    6.2424 C.3     1  UNL1        0.5752
     25 F           8.8204  -14.3423    6.2765 F       1  UNL1       -0.1328
     26 F           6.9019  -14.8125    7.2578 F       1  UNL1       -0.1328
     27 F           8.1308  -16.4130    6.4114 F       1  UNL1       -0.1328
     28 C           6.8461  -12.5045    5.0746 C.ar    1  UNL1       -0.0037
     29 C           6.4662  -11.3378    4.3011 C.ar    1  UNL1        0.0442
     30 S           6.7297   -9.5736    4.4527 S.2     1  UNL1       -0.0517
     31 C           3.7313   -3.3098    1.0967 C.ar    1  UNL1       -0.0116
     32 C           2.8158   -2.3382    0.5726 C.ar    1  UNL1        0.1618
     33 O           1.7733   -2.9744   -0.0508 O.3     1  UNL1       -0.4914
     34 C           0.6964   -2.2020   -0.5089 C.3     1  UNL1        0.0790
     35 H           1.1082    1.5320   -0.1225 H       1  UNL1        0.0660
     36 H           0.8250    0.3439    1.1985 H       1  UNL1        0.0660
     37 H           0.5306    0.0332   -0.5424 H       1  UNL1        0.0660
     38 H           4.6260    0.3493    1.4630 H       1  UNL1        0.0655
     39 H           6.1949   -1.3769    2.2373 H       1  UNL1        0.0622
     40 H           5.9711   -3.9012    3.4554 H       1  UNL1        0.0512
     41 H           6.8635   -4.0837    1.9034 H       1  UNL1        0.0512
     42 H           4.5435   -5.4724    1.8985 H       1  UNL1        0.1506
     43 H           3.2577   -8.6126    2.4777 H       1  UNL1        0.0523
     44 H           4.1614   -8.7968    0.9607 H       1  UNL1        0.0523
     45 H           3.9595   -6.4434    0.4952 H       1  UNL1        0.0830
     46 H           3.0540   -6.2297    2.0977 H       1  UNL1        0.0830
     47 H           2.0913   -7.5756   -0.2879 H       1  UNL1        0.2028
     48 H           0.8540   -6.8425    2.3212 H       1  UNL1        0.0777
     49 H           1.2205   -8.5133    1.7595 H       1  UNL1        0.0777
     50 H          -0.0115   -7.5309    0.8978 H       1  UNL1        0.0777
     51 H           1.4164   -5.0007    0.9471 H       1  UNL1        0.0777
     52 H           0.6128   -5.6959   -0.4891 H       1  UNL1        0.0777
     53 H           2.3350   -5.2483   -0.6141 H       1  UNL1        0.0777
     54 H           5.2764  -12.8843    1.5372 H       1  UNL1        0.0640
     55 H           5.9832  -14.8922    2.7807 H       1  UNL1        0.0655
     56 H           7.2705  -12.3977    6.0708 H       1  UNL1        0.0666
     57 H           3.4686   -4.3242    0.9031 H       1  UNL1        0.0658
     58 H          -0.1110   -2.8032   -0.9345 H       1  UNL1        0.0660
     59 H           1.0694   -1.5854   -1.3290 H       1  UNL1        0.0660
     60 H           0.2459   -1.7021    0.3534 H       1  UNL1        0.0660
@<TRIPOS>UNITY_ATOM_ATTR
14 1
charge 1
@<TRIPOS>BOND
     1     1     2    1
     2     2     3    1
     3     3     4   ar
     4     4     5   ar
     5     5     6   ar
     6     6     7    1
     7     7     8    1
     8     8     9   am
     9     9    10    2
    10     9    11   am
    11    11    12    1
    12    12    13    1
    13    13    14    1
    14    14    15    1
    15    14    16    1
    16    11    17    1
    17    17    18   ar
    18    18    19   ar
    19    19    20   ar
    20    20    21   ar
    21    21    22   ar
    22    22    23    1
    23    23    24    1
    24    24    25    1
    25    24    26    1
    26    24    27    1
    27    22    28   ar
    28    28    29   ar
    29    19    29   ar
    30    29    30   ar
    31    17    30   ar
    32     6    31   ar
    33    31    32   ar
    34     3    32   ar
    35    32    33    1
    36    33    34    1
    37     1    35    1
    38     1    36    1
    39     1    37    1
    40     4    38    1
    41     5    39    1
    42     7    40    1
    43     7    41    1
    44     8    42    1
    45    12    43    1
    46    12    44    1
    47    13    45    1
    48    13    46    1
    49    14    47    1
    50    15    48    1
    51    15    49    1
    52    15    50    1
    53    16    51    1
    54    16    52    1
    55    16    53    1
    56    20    54    1
    57    21    55    1
    58    28    56    1
    59    31    57    1
    60    34    58    1
    61    34    59    1
    62    34    60    1
