REMARK  9 active torsions:
REMARK  status: ('A' for Active; 'I' for Inactive)
REMARK    1  A    between atoms: C_2  and  O_3 
REMARK    2  A    between atoms: O_3  and  C_4 
REMARK    3  A    between atoms: C_4  and  C_6 
REMARK    4  A    between atoms: C_7  and  N_8 
REMARK    5  A    between atoms: N_8  and  C_9 
REMARK    6  A    between atoms: C_9  and  N_11 
REMARK       I    between atoms: N_11  and  C_12 
REMARK    7  A    between atoms: C_12  and  C_14 
REMARK    8  A    between atoms: C_21  and  C_22 
REMARK       I    between atoms: C_22  and  N_24 
REMARK    9  A    between atoms: N_24  and  C_25 
ROOT
ATOM      1  C   UNL d   1       5.129  -0.646  -1.058  0.00  0.00     0.080 C 
ATOM      2  C   UNL d   1       4.586  -1.820  -0.541  0.00  0.00     0.094 C 
ATOM      3  S   UNL d   1       5.910  -2.822   0.050  0.00  0.00    -0.065 SA
ATOM      4  C   UNL d   1       7.161  -1.880  -0.711  0.00  0.00     0.082 C 
ATOM      5  C   UNL d   1       6.590  -0.734  -1.265  0.00  0.00    -0.020 C 
ATOM      6  C   UNL d   1       7.344   0.360  -2.010  0.00  0.00     0.051 C 
ENDROOT
BRANCH   2   7
ATOM      7  N   UNL d   1       3.214  -2.269  -0.304  0.00  0.00    -0.326 N 
ATOM      8  H   UNL d   1       3.126  -2.967   0.426  0.00  0.00     0.169 HD
BRANCH   7   9
ATOM      9  C   UNL d   1       2.061  -1.890  -1.100  0.00  0.00     0.179 C 
ATOM     10  S   UNL d   1       2.183  -1.439  -2.722  0.00  0.00    -0.040 SA
BRANCH   9  11
ATOM     11  N   UNL d   1       0.773  -1.853  -0.392  0.00  0.00    -0.299 N 
ATOM     12  C   UNL d   1      -0.384  -1.035  -0.748  0.00  0.00     0.259 C 
ATOM     13  O   UNL d   1      -0.367  -0.135  -1.596  0.00  0.00    -0.267 OA
ATOM     14  H   UNL d   1       0.682  -2.367   0.471  0.00  0.00     0.171 HD
BRANCH  12  15
ATOM     15  C   UNL d   1      -1.691  -1.052  -0.053  0.00  0.00     0.050 C 
ATOM     16  C   UNL d   1      -1.962  -1.271   1.293  0.00  0.00     0.020 C 
ATOM     17  C   UNL d   1      -3.307  -1.352   1.688  0.00  0.00     0.020 C 
ATOM     18  C   UNL d   1      -4.310  -1.135   0.746  0.00  0.00     0.116 C 
ATOM     19  N   UNL d   1      -4.073  -0.763  -0.521  0.00  0.00    -0.272 NA
ATOM     20  C   UNL d   1      -2.774  -0.707  -0.880  0.00  0.00     0.133 C 
ENDBRANCH  12  15
ENDBRANCH   9  11
ENDBRANCH   7   9
ENDBRANCH   2   7
BRANCH   1  21
ATOM     21  C   UNL d   1       4.436   0.595  -1.449  0.00  0.00     0.296 C 
ATOM     22  O   UNL d   1       4.819   1.272  -2.380  0.00  0.00    -0.259 OA
BRANCH  21  23
ATOM     23  O   UNL d   1       3.436   1.093  -0.673  0.00  0.00    -0.318 OA
BRANCH  23  24
ATOM     24  C   UNL d   1       2.909   0.674   0.594  0.00  0.00     0.174 C 
ATOM     25  C   UNL d   1       1.429   0.753   0.421  0.00  0.00     0.034 C 
ENDBRANCH  23  24
ENDBRANCH  21  23
ENDBRANCH   1  21
BRANCH   4  26
ATOM     26  C   UNL d   1       8.621  -2.196  -0.817  0.00  0.00     0.263 C 
ATOM     27  O   UNL d   1       9.320  -1.592  -1.633  0.00  0.00    -0.267 OA
ATOM     28  N   UNL d   1       9.229  -3.195  -0.052  0.00  0.00    -0.322 N 
ATOM     29  H   UNL d   1       8.646  -3.970   0.221  0.00  0.00     0.169 HD
BRANCH  28  30
ATOM     30  C   UNL d   1      10.653  -3.412  -0.138  0.00  0.00     0.041 A 
ATOM     31  C   UNL d   1      11.136  -4.702  -0.418  0.00  0.00     0.030 A 
ATOM     32  C   UNL d   1      12.516  -4.956  -0.508  0.00  0.00     0.002 A 
ATOM     33  C   UNL d   1      13.436  -3.934  -0.295  0.00  0.00     0.001 A 
ATOM     34  C   UNL d   1      12.977  -2.655   0.002  0.00  0.00     0.009 A 
ATOM     35  C   UNL d   1      11.595  -2.376   0.085  0.00  0.00    -0.035 A 
ATOM     36  C   UNL d   1      11.201  -0.984   0.504  0.00  0.00     0.050 C 
ENDBRANCH  28  30
ENDBRANCH   4  26
TORSDOF 9
