@<TRIPOS>MOLECULE
*****
 35 37 0 0 0
SMALL
GASTEIGER

@<TRIPOS>ATOM
      1 C          -3.6969    2.8455   -4.9095 C.3     1  UNL1       -0.0334
      2 C          -3.4460    2.6362   -3.4568 C.ar    1  UNL1       -0.0130
      3 C          -3.1205    3.5807   -2.5082 C.ar    1  UNL1       -0.0515
      4 C          -2.9761    3.0125   -1.2140 C.ar    1  UNL1       -0.0495
      5 C          -3.1836    1.6449   -1.2053 C.ar    1  UNL1        0.0100
      6 C          -3.0581    0.7334   -0.0039 C.3     1  UNL1        0.0520
      7 C          -1.6417    0.1468    0.0243 C.3     1  UNL1       -0.0420
      8 N          -4.0894   -0.3038    0.0291 N.am    1  UNL1       -0.3043
      9 C          -5.4379    0.0013    0.0860 C.2     1  UNL1        0.2452
     10 O          -5.8782    1.1473    0.1275 O.2     1  UNL1       -0.2702
     11 C          -6.3927   -1.1367    0.0740 C.ar    1  UNL1        0.0473
     12 C          -6.2253   -2.2468    0.9211 C.ar    1  UNL1       -0.0489
     13 C          -7.1687   -3.2822    0.9442 C.ar    1  UNL1       -0.0590
     14 C          -8.3019   -3.2557    0.1248 C.ar    1  UNL1       -0.0363
     15 C          -8.4537   -2.1434   -0.7065 C.ar    1  UNL1        0.0665
     16 N          -9.4339   -1.8171   -1.6077 N.ar    1  UNL1       -0.2769
     17 N          -9.2394   -0.6417   -2.2263 N.ar    1  UNL1       -0.1812
     18 C          -8.0975   -0.1950   -1.6924 C.ar    1  UNL1        0.0576
     19 C          -7.5431   -1.0880   -0.7447 C.ar    1  UNL1        0.0316
     20 S          -3.5459    1.0677   -2.7802 S.2     1  UNL1       -0.0966
     21 H          -3.5650    3.8999   -5.1759 H       1  UNL1        0.0283
     22 H          -4.7205    2.5608   -5.1731 H       1  UNL1        0.0283
     23 H          -2.9991    2.2592   -5.5155 H       1  UNL1        0.0283
     24 H          -2.9975    4.6338   -2.7284 H       1  UNL1        0.0626
     25 H          -2.7254    3.5784   -0.3250 H       1  UNL1        0.0626
     26 H          -3.1961    1.3356    0.9043 H       1  UNL1        0.0551
     27 H          -1.4483   -0.4782   -0.8556 H       1  UNL1        0.0251
     28 H          -1.4794   -0.4685    0.9140 H       1  UNL1        0.0251
     29 H          -0.8878    0.9454    0.0252 H       1  UNL1        0.0251
     30 H          -3.7965   -1.2686   -0.0337 H       1  UNL1        0.1496
     31 H          -5.3789   -2.2913    1.6008 H       1  UNL1        0.0625
     32 H          -7.0304   -4.1228    1.6220 H       1  UNL1        0.0618
     33 H          -9.0337   -4.0583    0.1457 H       1  UNL1        0.0639
     34 H         -10.2581   -2.3569   -1.8481 H       1  UNL1        0.1889
     35 H          -7.7041    0.7612   -2.0146 H       1  UNL1        0.0854
@<TRIPOS>BOND
     1     1     2    1
     2     2     3   ar
     3     3     4   ar
     4     4     5   ar
     5     6     8    1
     6     8     9   am
     7     9    10    2
     8     9    11    1
     9    11    12   ar
    10    12    13   ar
    11    13    14   ar
    12    14    15   ar
    13    15    16   ar
    14    16    17   ar
    15    17    18   ar
    16    18    19   ar
    17    11    19   ar
    18    15    19   ar
    19     5    20   ar
    20     2    20   ar
    21     6     7    1
    22     6     5    1
    23     1    21    1
    24     1    22    1
    25     1    23    1
    26     3    24    1
    27     4    25    1
    28     6    26    1
    29     7    27    1
    30     7    28    1
    31     7    29    1
    32     8    30    1
    33    12    31    1
    34    13    32    1
    35    14    33    1
    36    16    34    1
    37    18    35    1
