@<TRIPOS>MOLECULE
*****
 32 33 0 0 0
SMALL
GASTEIGER

@<TRIPOS>ATOM
      1 C           2.4907    1.1853   -0.0009 C.3     1  UNL1       -0.0396
      2 C           1.2489    0.3409    0.0031 C.ar    1  UNL1       -0.0470
      3 C           1.3026   -1.0548    0.0171 C.ar    1  UNL1       -0.0579
      4 C           0.1236   -1.8208    0.0018 C.ar    1  UNL1       -0.0458
      5 C          -1.1414   -1.2110   -0.0165 C.ar    1  UNL1        0.0795
      6 C          -2.4159   -2.0161   -0.0303 C.2     1  UNL1        0.2636
      7 O          -3.4966   -1.4142   -0.0748 O.2     1  UNL1       -0.2685
      8 N          -2.3288   -3.4087    0.0098 N.am    1  UNL1       -0.2323
      9 N          -3.5067   -4.1587   -0.1026 N.pl3   1  UNL1       -0.2615
     10 C          -3.4560   -5.5629   -0.1285 C.ar    1  UNL1        0.0797
     11 C          -2.5854   -6.2899    0.6972 C.ar    1  UNL1       -0.0339
     12 C          -2.5774   -7.6929    0.6825 C.ar    1  UNL1       -0.0245
     13 C          -3.4089   -8.3835   -0.1917 C.ar    1  UNL1        0.1262
     14 F          -3.3959   -9.7234   -0.1972 F       1  UNL1       -0.2054
     15 C          -4.2493   -7.6998   -1.0546 C.ar    1  UNL1        0.0107
     16 C          -4.2682   -6.3033   -1.0135 C.ar    1  UNL1        0.1483
     17 F          -5.0863   -5.6599   -1.8612 F       1  UNL1       -0.2034
     18 C          -1.1798    0.1980   -0.0121 C.ar    1  UNL1        0.1292
     19 O          -2.3375    0.9338   -0.0031 O.3     1  UNL1       -0.5060
     20 C          -0.0038    0.9595   -0.0085 C.ar    1  UNL1       -0.0165
     21 H           3.4009    0.5767    0.0031 H       1  UNL1        0.0278
     22 H           2.5121    1.8294    0.8846 H       1  UNL1        0.0278
     23 H           2.5132    1.8152   -0.8969 H       1  UNL1        0.0278
     24 H           2.2640   -1.5653    0.0392 H       1  UNL1        0.0620
     25 H           0.2404   -2.8974    0.0063 H       1  UNL1        0.0626
     26 H          -1.4622   -3.9165   -0.1095 H       1  UNL1        0.1730
     27 H          -4.3696   -3.6672   -0.3421 H       1  UNL1        0.1701
     28 H          -1.9523   -5.7719    1.4120 H       1  UNL1        0.0638
     29 H          -1.9377   -8.2518    1.3596 H       1  UNL1        0.0647
     30 H          -4.8835   -8.2452   -1.7451 H       1  UNL1        0.0675
     31 H          -3.0976    0.3127   -0.0035 H       1  UNL1        0.2922
     32 H          -0.0699    2.0464   -0.0131 H       1  UNL1        0.0657
@<TRIPOS>BOND
     1     1     2    1
     2     2     3   ar
     3     3     4   ar
     4     4     5   ar
     5     5     6    1
     6     6     7    2
     7     6     8   am
     8     8     9    1
     9     9    10    1
    10    10    11   ar
    11    11    12   ar
    12    12    13   ar
    13    13    14    1
    14    13    15   ar
    15    15    16   ar
    16    10    16   ar
    17    16    17    1
    18     5    18   ar
    19    18    19    1
    20    18    20   ar
    21     2    20   ar
    22     1    21    1
    23     1    22    1
    24     1    23    1
    25     3    24    1
    26     4    25    1
    27     8    26    1
    28     9    27    1
    29    11    28    1
    30    12    29    1
    31    15    30    1
    32    19    31    1
    33    20    32    1
