REMARK  6 active torsions:
REMARK  status: ('A' for Active; 'I' for Inactive)
REMARK    1  A    between atoms: C_5  and  N_6 
REMARK       I    between atoms: N_6  and  C_7 
REMARK    2  A    between atoms: C_7  and  C_9 
REMARK    3  A    between atoms: C_13  and  N_14 
REMARK       I    between atoms: N_14  and  C_15 
REMARK       I    between atoms: C_15  and  N_17 
REMARK    4  A    between atoms: N_17  and  O_18 
REMARK    5  A    between atoms: O_18  and  C_19 
REMARK    6  A    between atoms: C_19  and  C_20 
ROOT
ATOM      1  C   UNL d   1       2.460  -0.395  -0.004  0.00  0.00     0.050 C 
ATOM      2  C   UNL d   1       1.000  -0.104   0.004  0.00  0.00    -0.035 A 
ATOM      3  C   UNL d   1       0.174  -1.244   0.006  0.00  0.00     0.011 A 
ATOM      4  C   UNL d   1      -1.211  -1.141  -0.004  0.00  0.00     0.030 A 
ATOM      5  C   UNL d   1      -1.801   0.121  -0.018  0.00  0.00     0.036 A 
ATOM      6  C   UNL d   1      -0.961   1.264  -0.003  0.00  0.00     0.059 A 
ATOM      7  C   UNL d   1       0.450   1.191   0.001  0.00  0.00     0.044 A 
ENDROOT
BRANCH   7   8
ATOM      8  N   UNL d   1       1.182   2.443   0.003  0.00  0.00    -0.307 N 
ATOM      9  C   UNL d   1       2.549   2.644  -0.012  0.00  0.00     0.344 C 
ATOM     10  O   UNL d   1       3.429   1.787  -0.052  0.00  0.00    -0.245 OA
ATOM     11  N   UNL d   1       3.001   3.941   0.049  0.00  0.00    -0.216 N 
ATOM     12  H   UNL d   1       2.494   4.805  -0.035  0.00  0.00     0.199 HD
ATOM     13  H   UNL d   1       0.608   3.276   0.004  0.00  0.00     0.170 HD
BRANCH  11  14
ATOM     14  O   UNL d   1       4.434   3.913   0.013  0.00  0.00    -0.272 OA
BRANCH  14  15
ATOM     15  C   UNL d   1       5.026   5.188  -0.003  0.00  0.00     0.240 C 
BRANCH  15  16
ATOM     16  C   UNL d   1       6.540   5.090   0.035  0.00  0.00    -0.032 A 
ATOM     17  C   UNL d   1       7.275   6.285   0.050  0.00  0.00     0.009 A 
ATOM     18  C   UNL d   1       8.671   6.269   0.069  0.00  0.00     0.001 A 
ATOM     19  C   UNL d   1       9.357   5.057   0.074  0.00  0.00     0.000 A 
ATOM     20  C   UNL d   1       8.645   3.859   0.068  0.00  0.00     0.001 A 
ATOM     21  C   UNL d   1       7.245   3.874   0.047  0.00  0.00     0.009 A 
ENDBRANCH  15  16
ENDBRANCH  14  15
ENDBRANCH  11  14
ENDBRANCH   7   8
BRANCH   5  22
ATOM     22  N   UNL d   1      -3.223   0.192  -0.056  0.00  0.00    -0.327 N 
ATOM     23  C   UNL d   1      -3.960   1.363  -0.092  0.00  0.00     0.226 C 
ATOM     24  O   UNL d   1      -3.526   2.504  -0.065  0.00  0.00    -0.273 OA
ATOM     25  H   UNL d   1      -3.731  -0.686  -0.069  0.00  0.00     0.169 HD
BRANCH  23  26
ATOM     26  C   UNL d   1      -5.440   1.205  -0.139  0.00  0.00     0.078 A 
ATOM     27  C   UNL d   1      -6.177   2.047  -1.173  0.00  0.00     0.015 A 
ATOM     28  C   UNL d   1      -6.175   0.552  -1.280  0.00  0.00     0.015 A 
ENDBRANCH  23  26
ENDBRANCH   5  22
TORSDOF 6
