@<TRIPOS>MOLECULE
*****
 70 71 0 0 0
SMALL
GASTEIGER

@<TRIPOS>ATOM
      1 C           0.8987   -0.0587    0.0305 C.3     1  UNL1       -0.0653
      2 C           2.4081   -0.0478   -0.0187 C.3     1  UNL1       -0.0559
      3 C           3.0403   -0.3524    1.3208 C.3     1  UNL1       -0.0533
      4 C           4.5735   -0.3072    1.1079 C.3     1  UNL1       -0.0527
      5 C           5.2557   -0.5999    2.3906 C.3     1  UNL1       -0.0479
      6 C           6.6908   -0.6571    2.6745 C.3     1  UNL1       -0.0124
      7 C           7.0093   -0.8624    4.1794 C.2     1  UNL1        0.0439
      8 C           5.9463   -1.2266    5.3203 C.3     1  UNL1        0.0458
      9 C           4.4279   -1.1921    5.1121 C.2     1  UNL1        0.1393
     10 O           3.8721   -0.9482    4.0367 O.2     1  UNL1       -0.2970
     11 C           3.3566   -1.4329    6.1046 C.3     1  UNL1        0.0144
     12 C           1.9993   -1.2498    5.2856 C.3     1  UNL1        0.0306
     13 C           0.8148   -1.4412    6.1404 C.2     1  UNL1        0.2134
     14 O           0.9228   -1.7123    7.3315 O.2     1  UNL1       -0.2758
     15 N          -0.3886   -1.2885    5.4890 N.am    1  UNL1       -0.3150
     16 C          -1.5798   -1.4654    6.2746 C.3     1  UNL1        0.0156
     17 C          -2.8725   -1.2879    5.4894 C.3     1  UNL1       -0.0121
     18 C          -4.0453   -1.5069    6.4102 C.ar    1  UNL1       -0.0459
     19 C          -4.7189   -0.4212    6.9822 C.ar    1  UNL1       -0.0585
     20 C          -5.6710   -0.6358    7.9789 C.ar    1  UNL1       -0.0615
     21 C          -6.0154   -1.9348    8.3502 C.ar    1  UNL1       -0.0617
     22 C          -5.3761   -3.0218    7.7589 C.ar    1  UNL1       -0.0615
     23 C          -4.3891   -2.8092    6.7991 C.ar    1  UNL1       -0.0585
     24 N           8.2680   -0.7677    4.5464 N.2     1  UNL1       -0.1908
     25 N           9.2028   -0.5371    3.5695 N.pl3   1  UNL1       -0.2315
     26 C          10.5606   -0.8654    3.7698 C.ar    1  UNL1        0.1258
     27 C          11.4792    0.0166    3.1374 C.ar    1  UNL1       -0.0261
     28 C          12.8665   -0.1435    3.2312 C.ar    1  UNL1        0.0178
     29 C          13.3737   -1.1799    4.0093 C.ar    1  UNL1        0.2797
     30 N          14.8220   -1.2655    4.2592 N.pl3   1  UNL1        0.0798
     31 O          15.5470   -0.4042    3.7418 O.2     1  UNL1        0.0414
     32 O          15.2261   -2.1782    4.9917 O.co2   1  UNL1       -0.5760
     33 C          12.5017   -2.0997    4.6059 C.ar    1  UNL1        0.0946
     34 C          11.0936   -1.9533    4.4873 C.ar    1  UNL1        0.3018
     35 N          10.2793   -3.0177    5.1212 N.pl3   1  UNL1        0.0818
     36 O          10.8856   -3.8087    5.8615 O.2     1  UNL1        0.0415
     37 O           9.0819   -3.1501    4.8496 O.co2   1  UNL1       -0.5760
     38 H           0.5067    0.1669   -0.9650 H       1  UNL1        0.0230
     39 H           0.5230    0.6939    0.7300 H       1  UNL1        0.0230
     40 H           0.5229   -1.0392    0.3374 H       1  UNL1        0.0230
     41 H           2.7582    0.9350   -0.3516 H       1  UNL1        0.0263
     42 H           2.7578   -0.7908   -0.7432 H       1  UNL1        0.0263
     43 H           2.7044   -1.3353    1.6877 H       1  UNL1        0.0265
     44 H           2.7065    0.3780    2.0752 H       1  UNL1        0.0265
     45 H           4.8711    0.6891    0.7810 H       1  UNL1        0.0265
     46 H           4.8702   -1.0623    0.3810 H       1  UNL1        0.0265
     47 H           4.9469   -1.6336    2.6106 H       1  UNL1        0.0269
     48 H           4.9485    0.2471    3.0239 H       1  UNL1        0.0269
     49 H           7.1139    0.3062    2.3756 H       1  UNL1        0.0326
     50 H           7.1353   -1.4687    2.0923 H       1  UNL1        0.0326
     51 H           6.1625   -0.5346    6.1460 H       1  UNL1        0.0403
     52 H           6.2028   -2.2344    5.6758 H       1  UNL1        0.0403
     53 H           3.4180   -0.6790    6.8895 H       1  UNL1        0.0346
     54 H           3.4259   -2.4542    6.4799 H       1  UNL1        0.0346
     55 H           1.9325   -1.9660    4.4436 H       1  UNL1        0.0362
     56 H           1.9303   -0.2406    4.8344 H       1  UNL1        0.0362
     57 H          -0.4396   -1.0706    4.4982 H       1  UNL1        0.1487
     58 H          -1.5248   -0.7509    7.1058 H       1  UNL1        0.0465
     59 H          -1.5192   -2.4694    6.7137 H       1  UNL1        0.0465
     60 H          -2.9161   -2.0000    4.6570 H       1  UNL1        0.0328
     61 H          -2.9102   -0.2867    5.0441 H       1  UNL1        0.0328
     62 H          -4.4905    0.5968    6.6753 H       1  UNL1        0.0620
     63 H          -6.1314    0.2110    8.4811 H       1  UNL1        0.0618
     64 H          -6.7805   -2.0994    9.1037 H       1  UNL1        0.0618
     65 H          -5.6256   -4.0345    8.0633 H       1  UNL1        0.0618
     66 H          -3.8682   -3.6639    6.3725 H       1  UNL1        0.0620
     67 H           8.9594   -0.5916    2.5777 H       1  UNL1        0.1746
     68 H          11.1030    0.8930    2.6054 H       1  UNL1        0.0641
     69 H          13.5255    0.5592    2.7226 H       1  UNL1        0.0686
     70 H          12.9191   -2.9325    5.1719 H       1  UNL1        0.0755
@<TRIPOS>UNITY_ATOM_ATTR
30 1
charge 1
32 1
charge -1
35 1
charge 1
37 1
charge -1
@<TRIPOS>BOND
     1     1     2    1
     2     2     3    1
     3     3     4    1
     4     4     5    1
     5     5     6    1
     6     6     7    1
     7     7     8    1
     8     8     9    1
     9     9    10    2
    10     9    11    1
    11    11    12    1
    12    12    13    1
    13    13    14    2
    14    13    15   am
    15    15    16    1
    16    16    17    1
    17    17    18    1
    18    18    19   ar
    19    19    20   ar
    20    20    21   ar
    21    21    22   ar
    22    22    23   ar
    23    18    23   ar
    24     7    24    2
    25    24    25    1
    26    25    26    1
    27    26    27   ar
    28    27    28   ar
    29    28    29   ar
    30    29    30    1
    31    30    31    2
    32    30    32    1
    33    29    33   ar
    34    33    34   ar
    35    26    34   ar
    36    34    35    1
    37    35    36    2
    38    35    37    1
    39     1    38    1
    40     1    39    1
    41     1    40    1
    42     2    41    1
    43     2    42    1
    44     3    43    1
    45     3    44    1
    46     4    45    1
    47     4    46    1
    48     5    47    1
    49     5    48    1
    50     6    49    1
    51     6    50    1
    52     8    51    1
    53     8    52    1
    54    11    53    1
    55    11    54    1
    56    12    55    1
    57    12    56    1
    58    15    57    1
    59    16    58    1
    60    16    59    1
    61    17    60    1
    62    17    61    1
    63    19    62    1
    64    20    63    1
    65    21    64    1
    66    22    65    1
    67    23    66    1
    68    25    67    1
    69    27    68    1
    70    28    69    1
    71    33    70    1
