REMARK  10 active torsions:
REMARK  status: ('A' for Active; 'I' for Inactive)
REMARK    1  A    between atoms: C_2  and  C_3 
REMARK    2  A    between atoms: C_3  and  C_4 
REMARK    3  A    between atoms: C_4  and  O_5 
REMARK    4  A    between atoms: O_5  and  C_6 
REMARK    5  A    between atoms: C_10  and  N_11 
REMARK       I    between atoms: N_11  and  C_12 
REMARK    6  A    between atoms: C_12  and  C_14 
REMARK    7  A    between atoms: C_14  and  N_15 
REMARK    8  A    between atoms: N_15  and  C_16 
REMARK    9  A    between atoms: C_21  and  C_22 
REMARK       I    between atoms: C_22  and  N_24 
REMARK   10  A    between atoms: N_24  and  C_25 
ROOT
ATOM      1  N   UNL d   1       8.905  -4.432   1.303  0.00  0.00    -0.381 N 
ATOM      2  H   UNL d   1       7.955  -4.055   1.413  0.00  0.00     0.160 HD
ENDROOT
BRANCH   1   3
ATOM      3  C   UNL d   1       9.705  -3.703   0.314  0.00  0.00     0.223 C 
BRANCH   3   4
ATOM      4  C   UNL d   1       8.752  -2.791  -0.457  0.00  0.00     0.239 C 
ATOM      5  N   UNL d   1       9.282  -2.105  -1.551  0.00  0.00    -0.326 N 
ATOM      6  H   UNL d   1      10.253  -2.251  -1.803  0.00  0.00     0.169 HD
ATOM      7  O   UNL d   1       7.592  -2.717  -0.043  0.00  0.00    -0.271 OA
BRANCH   5   8
ATOM      8  C   UNL d   1       8.521  -1.246  -2.395  0.00  0.00     0.037 A 
ATOM      9  C   UNL d   1       9.090  -0.637  -3.516  0.00  0.00     0.029 A 
ATOM     10  C   UNL d   1       8.289   0.145  -4.369  0.00  0.00     0.005 A 
ATOM     11  C   UNL d   1       6.937   0.370  -4.077  0.00  0.00     0.037 A 
ATOM     12  C   UNL d   1       6.366  -0.226  -2.966  0.00  0.00     0.070 A 
ATOM     13  C   UNL d   1       7.163  -1.020  -2.155  0.00  0.00     0.066 A 
BRANCH  12  14
ATOM     14  O   UNL d   1       5.016  -0.095  -2.781  0.00  0.00    -0.351 OA
BRANCH  14  15
ATOM     15  C   UNL d   1       4.580  -0.056  -1.414  0.00  0.00     0.175 C 
BRANCH  15  16
ATOM     16  C   UNL d   1       3.058  -0.075  -1.390  0.00  0.00     0.026 C 
BRANCH  16  17
ATOM     17  C   UNL d   1       2.525   0.094   0.031  0.00  0.00    -0.002 C 
ATOM     18  C   UNL d   1       1.007   0.092   0.045  0.00  0.00     0.005 C 
ENDBRANCH  16  17
ENDBRANCH  15  16
ENDBRANCH  14  15
ENDBRANCH  12  14
ENDBRANCH   5   8
ENDBRANCH   3   4
ENDBRANCH   1   3
BRANCH   1  19
ATOM     19  C   UNL d   1       9.388  -5.125   2.383  0.00  0.00     0.029 A 
ATOM     20  C   UNL d   1       8.594  -6.140   2.925  0.00  0.00     0.031 A 
ATOM     21  C   UNL d   1       8.996  -6.847   4.050  0.00  0.00     0.027 A 
ATOM     22  C   UNL d   1      10.241  -6.600   4.616  0.00  0.00     0.049 A 
ATOM     23 CL   UNL d   1      10.632  -7.660   5.936  0.00  0.00    -0.083 Cl
ATOM     24  C   UNL d   1      11.066  -5.585   4.080  0.00  0.00     0.055 A 
ATOM     25  C   UNL d   1      10.633  -4.876   2.951  0.00  0.00     0.048 A 
BRANCH  24  26
ATOM     26  C   UNL d   1      12.340  -5.226   4.733  0.00  0.00     0.253 C 
ATOM     27  O   UNL d   1      12.634  -5.873   5.736  0.00  0.00    -0.268 OA
ATOM     28  N   UNL d   1      13.140  -4.199   4.244  0.00  0.00    -0.352 N 
ATOM     29  H   UNL d   1      12.871  -3.670   3.429  0.00  0.00     0.163 HD
BRANCH  28  30
ATOM     30  C   UNL d   1      14.396  -3.776   4.887  0.00  0.00     0.084 C 
ATOM     31  C   UNL d   1      14.282  -2.342   5.428  0.00  0.00     0.025 C 
ATOM     32  C   UNL d   1      15.534  -1.921   6.205  0.00  0.00     0.002 C 
ATOM     33  C   UNL d   1      15.886  -2.913   7.309  0.00  0.00     0.000 C 
ATOM     34  C   UNL d   1      16.095  -4.303   6.732  0.00  0.00     0.002 C 
ATOM     35  C   UNL d   1      14.855  -4.729   5.995  0.00  0.00     0.025 C 
ENDBRANCH  28  30
ENDBRANCH  24  26
ENDBRANCH   1  19
TORSDOF 10
