@<TRIPOS>MOLECULE
*****
 60 62 0 0 0
SMALL
GASTEIGER

@<TRIPOS>ATOM
      1 C           1.0345    0.0786   -0.0940 C.3     1  UNL1       -0.0306
      2 C           2.5571    0.0778   -0.1030 C.3     1  UNL1        0.0900
      3 O           3.0547    1.3654   -0.5124 O.3     1  UNL1       -0.4614
      4 C           4.4251    1.4237   -0.6127 C.2     1  UNL1        0.3392
      5 O           5.2007    0.5411   -0.3795 O.2     1  UNL1       -0.2450
      6 C           4.8525    2.7990   -1.0131 C.ar    1  UNL1        0.0591
      7 C           5.9431    3.0419   -1.8666 C.ar    1  UNL1       -0.0460
      8 C           6.4182    4.3617   -2.1136 C.ar    1  UNL1       -0.0397
      9 C           5.7629    5.4726   -1.5786 C.ar    1  UNL1        0.0326
     10 N           6.2157    6.8289   -1.9548 N.am    1  UNL1       -0.2958
     11 C           6.0878    7.9699   -1.1801 C.2     1  UNL1        0.1510
     12 S           5.8168    7.7999    0.4567 S.2     1  UNL1       -0.0171
     13 N           6.2643    9.2444   -1.7944 N.am    1  UNL1       -0.2456
     14 N           5.9730   10.4628   -0.9953 N.am    1  UNL1       -0.2349
     15 C           6.0018   11.7853   -1.4823 C.2     1  UNL1        0.2325
     16 O           6.7087   12.0820   -2.4427 O.2     1  UNL1       -0.2740
     17 C           4.9951   12.9175   -0.8508 C.3     1  UNL1        0.0466
     18 C           4.9421   13.1596    0.6662 C.3     1  UNL1       -0.0012
     19 C           4.8107   11.8460    1.3711 C.3     1  UNL1       -0.0309
     20 N           3.5233   11.1429    0.8224 N.4     1  UNL1        0.2386
     21 C           3.4686    9.7248    1.3437 C.3     1  UNL1       -0.0045
     22 C           2.4488    8.7303    0.8025 C.ar    1  UNL1        0.0155
     23 C           1.7991    7.9595    1.7991 C.ar    1  UNL1       -0.0494
     24 C           0.8421    6.9903    1.4712 C.ar    1  UNL1       -0.0259
     25 C           0.4298    6.8393    0.1619 C.ar    1  UNL1        0.1248
     26 F          -0.5335    5.9743   -0.1615 F       1  UNL1       -0.2054
     27 C           1.0494    7.5337   -0.8397 C.ar    1  UNL1       -0.0077
     28 C           2.1104    8.3859   -0.5431 C.ar    1  UNL1        0.0519
     29 CL          2.9220    8.7259   -2.0353 Cl      1  UNL1       -0.0830
     30 C           3.1841   11.3047   -0.6660 C.3     1  UNL1       -0.0309
     31 C           3.5467   12.6341   -1.2464 C.3     1  UNL1       -0.0012
     32 C           4.6732    5.1776   -0.7134 C.ar    1  UNL1       -0.0397
     33 C           4.2380    3.8775   -0.4128 C.ar    1  UNL1       -0.0460
     34 H           0.6493   -0.9053    0.1971 H       1  UNL1        0.0262
     35 H           0.6358    0.3263   -1.0829 H       1  UNL1        0.0262
     36 H           0.6421    0.8223    0.6073 H       1  UNL1        0.0262
     37 H           2.9086   -0.6859   -0.8043 H       1  UNL1        0.0695
     38 H           2.9205   -0.1520    0.9050 H       1  UNL1        0.0695
     39 H           6.4368    2.2043   -2.3552 H       1  UNL1        0.0626
     40 H           7.3280    4.4894   -2.6968 H       1  UNL1        0.0636
     41 H           6.9750    6.8612   -2.6287 H       1  UNL1        0.1539
     42 H           6.8794    9.4091   -2.5912 H       1  UNL1        0.1718
     43 H           5.3131   10.1902   -0.2937 H       1  UNL1        0.1728
     44 H           5.2672   13.8804   -1.3048 H       1  UNL1        0.0398
     45 H           4.0557   13.7577    0.9432 H       1  UNL1        0.0324
     46 H           5.8033   13.7365    1.0120 H       1  UNL1        0.0324
     47 H           4.7186   11.9301    2.4579 H       1  UNL1        0.0815
     48 H           5.7172   11.2526    1.2009 H       1  UNL1        0.0815
     49 H           2.7379   11.5858    1.3073 H       1  UNL1        0.2037
     50 H           3.4086    9.7968    2.4434 H       1  UNL1        0.0868
     51 H           4.4865    9.4227    1.2919 H       1  UNL1        0.0868
     52 H           2.0509    8.0637    2.8575 H       1  UNL1        0.0623
     53 H           0.4148    6.3374    2.2252 H       1  UNL1        0.0646
     54 H           0.7624    7.3368   -1.8710 H       1  UNL1        0.0661
     55 H           2.1323   11.0638   -0.8200 H       1  UNL1        0.0815
     56 H           3.7901   10.6341   -1.2449 H       1  UNL1        0.0815
     57 H           2.8153   13.3660   -0.8846 H       1  UNL1        0.0324
     58 H           3.4602   12.6141   -2.3409 H       1  UNL1        0.0324
     59 H           4.0960    5.9197   -0.1797 H       1  UNL1        0.0636
     60 H           3.4292    3.7301    0.3032 H       1  UNL1        0.0626
@<TRIPOS>UNITY_ATOM_ATTR
20 1
charge 1
@<TRIPOS>BOND
     1     1     2    1
     2     2     3    1
     3     3     4    1
     4     4     5    2
     5     4     6    1
     6     6     7   ar
     7     7     8   ar
     8     8     9   ar
     9     9    10    1
    10    10    11    1
    11    11    12    2
    12    11    13    1
    13    13    14    1
    14    14    15   am
    15    15    16    2
    16    15    17    1
    17    17    18    1
    18    18    19    1
    19    19    20    1
    20    20    21    1
    21    21    22    1
    22    22    23   ar
    23    23    24   ar
    24    24    25   ar
    25    25    26    1
    26    25    27   ar
    27    27    28   ar
    28    22    28   ar
    29    28    29    1
    30    20    30    1
    31    30    31    1
    32    17    31    1
    33     9    32   ar
    34    32    33   ar
    35     6    33   ar
    36     1    34    1
    37     1    35    1
    38     1    36    1
    39     2    37    1
    40     2    38    1
    41     7    39    1
    42     8    40    1
    43    10    41    1
    44    13    42    1
    45    14    43    1
    46    17    44    1
    47    18    45    1
    48    18    46    1
    49    19    47    1
    50    19    48    1
    51    20    49    1
    52    21    50    1
    53    21    51    1
    54    23    52    1
    55    24    53    1
    56    27    54    1
    57    30    55    1
    58    30    56    1
    59    31    57    1
    60    31    58    1
    61    32    59    1
    62    33    60    1
