REMARK  9 active torsions:
REMARK  status: ('A' for Active; 'I' for Inactive)
REMARK    1  A    between atoms: O_2  and  C_3 
REMARK    2  A    between atoms: C_8  and  O_9 
REMARK    3  A    between atoms: O_9  and  C_10 
REMARK    4  A    between atoms: C_10  and  C_11 
REMARK    5  A    between atoms: C_11  and  N_12 
REMARK       I    between atoms: N_12  and  C_13 
REMARK       I    between atoms: C_13  and  N_15 
REMARK    6  A    between atoms: N_15  and  N_16 
REMARK       I    between atoms: N_16  and  C_17 
REMARK    7  A    between atoms: C_17  and  C_19 
REMARK    8  A    between atoms: C_19  and  C_20 
REMARK    9  A    between atoms: C_20  and  C_21 
ROOT
ATOM      1  N   UNL d   1      -1.188   2.278  -1.520  0.00  0.00    -0.340 N 
ATOM      2  C   UNL d   1      -2.290   3.035  -1.858  0.00  0.00     0.334 C 
ATOM      3  O   UNL d   1      -2.662   3.153  -3.034  0.00  0.00    -0.246 OA
ATOM      4  N   UNL d   1      -2.967   3.652  -0.822  0.00  0.00    -0.249 N 
ATOM      5  H   UNL d   1      -0.899   2.234  -0.550  0.00  0.00     0.164 HD
ATOM      6  H   UNL d   1      -2.716   3.606   0.162  0.00  0.00     0.192 HD
ENDROOT
BRANCH   1   7
ATOM      7  C   UNL d   1      -0.388   1.612  -2.592  0.00  0.00     0.151 C 
BRANCH   7   8
ATOM      8  C   UNL d   1       0.785   0.766  -2.095  0.00  0.00     0.195 C 
BRANCH   8   9
ATOM      9  O   UNL d   1       1.703   0.163  -2.985  0.00  0.00    -0.347 OA
BRANCH   9  10
ATOM     10  C   UNL d   1       2.641  -0.644  -2.339  0.00  0.00     0.102 A 
ATOM     11  C   UNL d   1       3.418  -1.359  -3.278  0.00  0.00     0.039 A 
ATOM     12  C   UNL d   1       4.502  -2.154  -2.894  0.00  0.00     0.003 A 
ATOM     13  C   UNL d   1       4.840  -2.245  -1.553  0.00  0.00     0.003 A 
ATOM     14  C   UNL d   1       4.049  -1.598  -0.596  0.00  0.00     0.039 A 
ATOM     15  C   UNL d   1       2.945  -0.791  -0.958  0.00  0.00     0.101 A 
BRANCH  15  16
ATOM     16  O   UNL d   1       2.465  -0.066   0.115  0.00  0.00    -0.353 OA
ATOM     17  C   UNL d   1       1.099  -0.182   0.512  0.00  0.00     0.210 C 
ENDBRANCH  15  16
ENDBRANCH   9  10
ENDBRANCH   8   9
ENDBRANCH   7   8
ENDBRANCH   1   7
BRANCH   4  18
ATOM     18  N   UNL d   1      -4.113   4.466  -1.132  0.00  0.00    -0.266 N 
ATOM     19  C   UNL d   1      -4.806   5.110  -0.117  0.00  0.00     0.236 C 
ATOM     20  O   UNL d   1      -4.468   5.010   1.065  0.00  0.00    -0.272 OA
ATOM     21  H   UNL d   1      -4.367   4.515  -2.119  0.00  0.00     0.190 HD
BRANCH  19  22
ATOM     22  C   UNL d   1      -6.023   5.936  -0.563  0.00  0.00     0.105 C 
BRANCH  22  23
ATOM     23  C   UNL d   1      -6.754   6.607   0.622  0.00  0.00     0.013 C 
BRANCH  23  24
ATOM     24  C   UNL d   1      -7.995   7.439   0.226  0.00  0.00    -0.022 C 
ATOM     25  C   UNL d   1      -9.049   6.581  -0.473  0.00  0.00     0.009 C 
ATOM     26  C   UNL d   1      -8.624   8.091   1.465  0.00  0.00     0.009 C 
ENDBRANCH  23  24
ENDBRANCH  22  23
ENDBRANCH  19  22
ENDBRANCH   4  18
TORSDOF 9
