REMARK  4 active torsions:
REMARK  status: ('A' for Active; 'I' for Inactive)
REMARK    1  A    between atoms: C_5  and  C_6 
REMARK       I    between atoms: C_6  and  N_8 
REMARK    2  A    between atoms: N_8  and  N_9 
REMARK       I    between atoms: N_9  and  C_10 
REMARK    3  A    between atoms: C_10  and  C_12 
REMARK    4  A    between atoms: C_18  and  O_19 
ROOT
ATOM      1  C   UNL d   1      -2.426  -2.027  -0.060  0.00  0.00     0.272 C 
ATOM      2  O   UNL d   1      -3.508  -1.435  -0.077  0.00  0.00    -0.266 OA
ATOM      3  N   UNL d   1      -2.348  -3.418  -0.082  0.00  0.00    -0.263 N 
ATOM      4  H   UNL d   1      -1.483  -3.953  -0.069  0.00  0.00     0.190 HD
ENDROOT
BRANCH   3   5
ATOM      5  N   UNL d   1      -3.535  -4.203  -0.160  0.00  0.00    -0.263 N 
ATOM      6  C   UNL d   1      -3.444  -5.594  -0.108  0.00  0.00     0.277 C 
ATOM      7  O   UNL d   1      -2.339  -6.144  -0.010  0.00  0.00    -0.265 OA
ATOM      8  H   UNL d   1      -4.420  -3.701  -0.135  0.00  0.00     0.190 HD
BRANCH   6   9
ATOM      9  C   UNL d   1      -4.705  -6.325  -0.202  0.00  0.00     0.075 A 
ATOM     10  C   UNL d   1      -5.796  -6.087  -1.025  0.00  0.00     0.027 A 
ATOM     11  C   UNL d   1      -6.822  -7.075  -0.889  0.00  0.00     0.033 A 
ATOM     12  C   UNL d   1      -6.495  -7.998   0.069  0.00  0.00     0.075 A 
ATOM     13 CL   UNL d   1      -7.472  -9.319   0.578  0.00  0.00    -0.076 Cl
ATOM     14  S   UNL d   1      -4.963  -7.742   0.748  0.00  0.00    -0.072 SA
ENDBRANCH   6   9
ENDBRANCH   3   5
BRANCH   1  15
ATOM     15  C   UNL d   1      -1.148  -1.221  -0.020  0.00  0.00     0.066 A 
ATOM     16  C   UNL d   1       0.118  -1.828   0.001  0.00  0.00     0.020 A 
ATOM     17  C   UNL d   1       1.298  -1.059   0.018  0.00  0.00     0.008 A 
ATOM     18  C   UNL d   1       1.245   0.337   0.004  0.00  0.00    -0.059 A 
ATOM     19  C   UNL d   1       2.487   1.182  -0.001  0.00  0.00     0.048 C 
ATOM     20  C   UNL d   1      -0.008   0.954  -0.007  0.00  0.00     0.044 A 
ATOM     21  C   UNL d   1      -1.185   0.189  -0.012  0.00  0.00     0.082 A 
BRANCH  21  22
ATOM     22  O   UNL d   1      -2.342   0.926  -0.006  0.00  0.00    -0.360 OA
ATOM     23  H   UNL d   1      -3.102   0.307  -0.001  0.00  0.00     0.217 HD
ENDBRANCH  21  22
ENDBRANCH   1  15
TORSDOF 4
