@<TRIPOS>MOLECULE
*****
 55 57 0 0 0
SMALL
GASTEIGER

@<TRIPOS>ATOM
      1 C           1.0583    0.0131   -0.1290 C.3     1  UNL1        0.0788
      2 O           2.4799   -0.0821   -0.1177 O.3     1  UNL1       -0.4951
      3 C           3.1039    0.1278   -1.3175 C.ar    1  UNL1        0.1202
      4 C           4.2450   -0.6315   -1.5640 C.ar    1  UNL1       -0.0182
      5 C           5.0274   -0.3906   -2.7034 C.ar    1  UNL1       -0.0372
      6 C           4.6585    0.5558   -3.6656 C.ar    1  UNL1        0.0300
      7 N           5.3819    0.6794   -4.8302 N.pl3   1  UNL1       -0.3274
      8 C           5.5179   -0.4535   -5.7614 C.3     1  UNL1        0.0250
      9 C           5.0057   -0.0556   -7.1760 C.3     1  UNL1        0.0147
     10 N           5.6236    1.1885   -7.7172 N.3     1  UNL1       -0.2979
     11 C           7.0715    0.9810   -7.9613 C.3     1  UNL1        0.0146
     12 C           7.7753    2.2338   -8.5075 C.3     1  UNL1        0.0248
     13 N           9.1979    2.0765   -8.7118 N.am    1  UNL1       -0.3064
     14 C           9.9755    3.1409   -9.1431 C.2     1  UNL1        0.2993
     15 O           9.5637    4.2536   -9.4379 O.2     1  UNL1       -0.2652
     16 C          11.4831    2.8346   -9.2062 C.2     1  UNL1        0.3032
     17 O          11.8669    1.7651   -8.7441 O.2     1  UNL1       -0.2648
     18 N          12.3044    3.8358   -9.7271 N.am    1  UNL1       -0.2766
     19 C          13.6898    3.6344   -9.9894 C.ar    1  UNL1        0.0526
     20 C          14.6085    4.6560   -9.6818 C.ar    1  UNL1       -0.0209
     21 C          15.9628    4.5138  -10.0227 C.ar    1  UNL1        0.0428
     22 CL         17.0608    5.8256   -9.8105 Cl      1  UNL1       -0.0835
     23 C          16.4314    3.3382  -10.6019 C.ar    1  UNL1       -0.0421
     24 C          15.5290    2.3249  -10.9176 C.ar    1  UNL1       -0.0412
     25 C          14.1638    2.4614  -10.6199 C.ar    1  UNL1        0.0730
     26 C          13.2859    1.4125  -11.0486 C.1     1  UNL1        0.1010
     27 N          12.5491    0.5714  -11.3886 N.1     1  UNL1       -0.1908
     28 C           5.3746    2.2679   -6.7197 C.3     1  UNL1        0.0147
     29 C           5.9168    1.9540   -5.3064 C.3     1  UNL1        0.0250
     30 C           3.5231    1.3268   -3.3904 C.ar    1  UNL1       -0.0372
     31 C           2.7487    1.1137   -2.2332 C.ar    1  UNL1       -0.0182
     32 H           0.7044   -0.0929    0.9028 H       1  UNL1        0.0660
     33 H           0.6373   -0.8085   -0.7156 H       1  UNL1        0.0660
     34 H           0.6890    0.9772   -0.4900 H       1  UNL1        0.0660
     35 H           4.5334   -1.4206   -0.8747 H       1  UNL1        0.0655
     36 H           5.9680   -0.9231   -2.8195 H       1  UNL1        0.0637
     37 H           4.9932   -1.3526   -5.4218 H       1  UNL1        0.0476
     38 H           6.5791   -0.7177   -5.8269 H       1  UNL1        0.0476
     39 H           3.9169    0.0949   -7.1341 H       1  UNL1        0.0442
     40 H           5.1612   -0.8806   -7.8825 H       1  UNL1        0.0442
     41 H           7.2022    0.1576   -8.6759 H       1  UNL1        0.0442
     42 H           7.5988    0.6662   -7.0547 H       1  UNL1        0.0442
     43 H           7.6773    3.0653   -7.8037 H       1  UNL1        0.0475
     44 H           7.3198    2.5376   -9.4547 H       1  UNL1        0.0475
     45 H           9.6715    1.2059   -8.4749 H       1  UNL1        0.1492
     46 H          11.9014    4.7647   -9.8383 H       1  UNL1        0.1553
     47 H          14.3041    5.5409   -9.1261 H       1  UNL1        0.0651
     48 H          17.4887    3.2077  -10.8238 H       1  UNL1        0.0632
     49 H          15.8876    1.4330  -11.4286 H       1  UNL1        0.0631
     50 H           4.2923    2.4413   -6.6609 H       1  UNL1        0.0442
     51 H           5.7849    3.2181   -7.0737 H       1  UNL1        0.0442
     52 H           5.7222    2.7853   -4.6231 H       1  UNL1        0.0476
     53 H           7.0093    1.8540   -5.3520 H       1  UNL1        0.0476
     54 H           3.2058    2.0988   -4.0857 H       1  UNL1        0.0637
     55 H           1.8836    1.7452   -2.0675 H       1  UNL1        0.0655
@<TRIPOS>BOND
     1     1     2    1
     2     2     3    1
     3     3     4   ar
     4     4     5   ar
     5     5     6   ar
     6     6     7    1
     7     7     8    1
     8     8     9    1
     9     9    10    1
    10    10    11    1
    11    11    12    1
    12    12    13    1
    13    13    14   am
    14    14    15    2
    15    14    16    1
    16    16    17    2
    17    16    18   am
    18    18    19    1
    19    19    20   ar
    20    20    21   ar
    21    21    22    1
    22    21    23   ar
    23    23    24   ar
    24    24    25   ar
    25    19    25   ar
    26    25    26    1
    27    26    27    3
    28    10    28    1
    29    28    29    1
    30     7    29    1
    31     6    30   ar
    32    30    31   ar
    33     3    31   ar
    34     1    32    1
    35     1    33    1
    36     1    34    1
    37     4    35    1
    38     5    36    1
    39     8    37    1
    40     8    38    1
    41     9    39    1
    42     9    40    1
    43    11    41    1
    44    11    42    1
    45    12    43    1
    46    12    44    1
    47    13    45    1
    48    18    46    1
    49    20    47    1
    50    23    48    1
    51    24    49    1
    52    28    50    1
    53    28    51    1
    54    29    52    1
    55    29    53    1
    56    30    54    1
    57    31    55    1
