@<TRIPOS>MOLECULE
*****
 49 51 0 0 0
SMALL
GASTEIGER

@<TRIPOS>ATOM
      1 O           1.0017    0.0447   -0.0189 O.2     1  UNL1       -0.2704
      2 C           2.2284    0.0299   -0.0735 C.2     1  UNL1        0.2432
      3 N           2.9601   -1.1259    0.0332 N.am    1  UNL1       -0.3072
      4 C           2.3131   -2.4221    0.2382 C.3     1  UNL1        0.0427
      5 C           3.2731   -3.5868    0.3814 C.ar    1  UNL1        0.0333
      6 C           2.8632   -4.9287    0.2854 C.ar    1  UNL1       -0.0438
      7 C           3.7866   -5.9906    0.4374 C.ar    1  UNL1        0.0267
      8 C           5.1246   -5.7011    0.6951 C.ar    1  UNL1        0.2718
      9 N           6.1344   -6.5760    0.9998 N.pl3   1  UNL1       -0.2780
     10 C           6.6310   -6.5063    2.3775 C.3     1  UNL1        0.0173
     11 C           7.9213   -5.6866    2.3953 C.3     1  UNL1       -0.0371
     12 C           9.1454   -6.4269    1.8767 C.3     1  UNL1       -0.0516
     13 C           8.9787   -7.0586    0.4910 C.3     1  UNL1       -0.0516
     14 C           7.9602   -8.2043    0.4621 C.3     1  UNL1       -0.0371
     15 C           6.5034   -7.7507    0.1959 C.3     1  UNL1        0.0173
     16 N           5.4502   -4.4055    0.7678 N.ar    1  UNL1       -0.1978
     17 C           4.6086   -3.3829    0.6595 C.ar    1  UNL1        0.1757
     18 C           3.0301    1.2762   -0.2537 C.2     1  UNL1        0.0485
     19 C           2.6162    2.3605    0.4210 C.2     1  UNL1        0.0926
     20 O           3.1456    3.6231    0.3021 O.2     1  UNL1       -0.4990
     21 C           3.9097    3.8185   -0.8958 C.3     1  UNL1        0.0891
     22 C           4.9271    2.7030   -1.0804 C.3     1  UNL1       -0.0144
     23 C           4.2015    1.3554   -1.1903 C.3     1  UNL1       -0.0168
     24 H           3.9574   -1.0185   -0.0128 H       1  UNL1        0.1493
     25 H           1.6569   -2.5932   -0.6229 H       1  UNL1        0.0514
     26 H           1.6857   -2.3534    1.1358 H       1  UNL1        0.0514
     27 H           1.8111   -5.1666    0.1115 H       1  UNL1        0.0625
     28 H           3.4376   -7.0203    0.4120 H       1  UNL1        0.0698
     29 H           6.7874   -7.5059    2.8004 H       1  UNL1        0.0465
     30 H           5.8841   -6.0293    3.0256 H       1  UNL1        0.0465
     31 H           8.1056   -5.3376    3.4155 H       1  UNL1        0.0280
     32 H           7.8385   -4.7835    1.7901 H       1  UNL1        0.0280
     33 H           9.4396   -7.1891    2.6062 H       1  UNL1        0.0266
     34 H           9.9696   -5.7040    1.8270 H       1  UNL1        0.0266
     35 H           9.9593   -7.4544    0.1983 H       1  UNL1        0.0266
     36 H           8.7157   -6.2964   -0.2521 H       1  UNL1        0.0266
     37 H           8.0219   -8.7734    1.3994 H       1  UNL1        0.0280
     38 H           8.2531   -8.9108   -0.3251 H       1  UNL1        0.0280
     39 H           5.8321   -8.5945    0.3957 H       1  UNL1        0.0465
     40 H           6.4222   -7.5091   -0.8711 H       1  UNL1        0.0465
     41 H           6.4269   -4.1975    0.9018 H       1  UNL1        0.4542
     42 H           5.0704   -2.4173    0.8066 H       1  UNL1        0.1379
     43 H           1.8089    2.3613    1.1451 H       1  UNL1        0.1027
     44 H           4.4134    4.7882   -0.8207 H       1  UNL1        0.0696
     45 H           3.2232    3.8737   -1.7506 H       1  UNL1        0.0696
     46 H           5.5990    2.6830   -0.2122 H       1  UNL1        0.0301
     47 H           5.5429    2.8813   -1.9689 H       1  UNL1        0.0301
     48 H           4.9285    0.5600   -0.9976 H       1  UNL1        0.0317
     49 H           3.8390    1.2281   -2.2170 H       1  UNL1        0.0317
@<TRIPOS>UNITY_ATOM_ATTR
16 1
charge 1
@<TRIPOS>BOND
     1     1     2    2
     2     2     3   am
     3     3     4    1
     4     4     5    1
     5     5     6   ar
     6     6     7   ar
     7     7     8   ar
     8     8     9    1
     9     9    10    1
    10    10    11    1
    11    11    12    1
    12    12    13    1
    13    13    14    1
    14    14    15    1
    15     9    15    1
    16     8    16   ar
    17    16    17   ar
    18     5    17   ar
    19     2    18    1
    20    18    19    2
    21    19    20    1
    22    20    21    1
    23    21    22    1
    24    22    23    1
    25    18    23    1
    26     3    24    1
    27     4    25    1
    28     4    26    1
    29     6    27    1
    30     7    28    1
    31    10    29    1
    32    10    30    1
    33    11    31    1
    34    11    32    1
    35    12    33    1
    36    12    34    1
    37    13    35    1
    38    13    36    1
    39    14    37    1
    40    14    38    1
    41    15    39    1
    42    15    40    1
    43    16    41    1
    44    17    42    1
    45    19    43    1
    46    21    44    1
    47    21    45    1
    48    22    46    1
    49    22    47    1
    50    23    48    1
    51    23    49    1
