@<TRIPOS>MOLECULE
*****
 39 40 0 0 0
SMALL
GASTEIGER

@<TRIPOS>ATOM
      1 C           3.2011    0.9037   -1.2229 C.3     1  UNL1       -0.0189
      2 C           2.5456    0.1298   -0.0907 C.3     1  UNL1        0.1762
      3 O           1.1054    0.0059   -0.2435 O.3     1  UNL1       -0.4476
      4 C           0.3412   -0.2051   -1.3517 C.2     1  UNL1        0.3599
      5 O          -0.8831   -0.1283   -1.2761 O.2     1  UNL1       -0.2432
      6 C           0.9553   -0.4346   -2.7018 C.ar    1  UNL1        0.1674
      7 N           0.5118    0.4430   -3.6569 N.ar    1  UNL1       -0.2272
      8 C           1.1206    0.4140   -4.8589 C.ar    1  UNL1        0.1302
      9 CL          0.4411    1.4320   -6.0571 Cl      1  UNL1       -0.0620
     10 C           2.2162   -0.3738   -5.1521 C.ar    1  UNL1       -0.0234
     11 C           2.6640   -1.2517   -4.1718 C.ar    1  UNL1       -0.0382
     12 C           1.9767   -1.3570   -2.9566 C.ar    1  UNL1        0.0734
     13 CL          2.5731   -2.5302   -1.8486 Cl      1  UNL1       -0.0811
     14 C           2.9269    0.8761    1.2080 C.2     1  UNL1        0.2578
     15 O           2.0766    1.3196    1.9746 O.2     1  UNL1       -0.2714
     16 N           4.3113    1.0193    1.3912 N.am    1  UNL1       -0.2825
     17 C           4.8915    1.6132    2.5266 C.ar    1  UNL1        0.0336
     18 C           6.0968    2.3229    2.4284 C.ar    1  UNL1       -0.0386
     19 C           6.7117    2.8186    3.5888 C.ar    1  UNL1       -0.0336
     20 C           6.0947    2.6279    4.8318 C.ar    1  UNL1        0.1051
     21 S           6.7480    3.3941    6.2933 S.O2    1  UNL1        0.0559
     22 N           8.2471    2.6846    6.4064 N.3     1  UNL1       -0.2035
     23 O           6.9560    4.7959    5.9912 O.2     1  UNL1       -0.1533
     24 O           5.9911    2.9398    7.4297 O.2     1  UNL1       -0.1533
     25 C           4.9035    1.9135    4.9277 C.ar    1  UNL1       -0.0336
     26 C           4.3046    1.4213    3.7750 C.ar    1  UNL1       -0.0386
     27 H           4.2877    0.9017   -1.1534 H       1  UNL1        0.0270
     28 H           2.8087    1.9219   -1.2526 H       1  UNL1        0.0270
     29 H           3.0281    0.5190   -2.2095 H       1  UNL1        0.0270
     30 H           2.9321   -0.8792    0.0763 H       1  UNL1        0.0830
     31 H           2.7045   -0.3278   -6.1196 H       1  UNL1        0.0648
     32 H           3.5685   -1.8302   -4.3456 H       1  UNL1        0.0634
     33 H           4.9554    0.7317    0.6658 H       1  UNL1        0.1549
     34 H           6.5288    2.5705    1.4599 H       1  UNL1        0.0637
     35 H           7.6471    3.3696    3.5164 H       1  UNL1        0.0638
     36 H           8.9769    3.0542    5.8093 H       1  UNL1        0.1442
     37 H           8.2736    1.7359    6.7653 H       1  UNL1        0.1442
     38 H           4.4161    1.7399    5.8827 H       1  UNL1        0.0638
     39 H           3.3796    0.8603    3.8710 H       1  UNL1        0.0637
@<TRIPOS>BOND
     1     3     4    1
     2     4     5    2
     3     4     6    1
     4     6     7   ar
     5     7     8   ar
     6     8     9    1
     7     8    10   ar
     8    10    11   ar
     9    11    12   ar
    10     6    12   ar
    11    12    13    1
    12     2    14    1
    13    14    15    2
    14    14    16   am
    15    16    17    1
    16    17    18   ar
    17    18    19   ar
    18    19    20   ar
    19    20    21    1
    20    21    22    1
    21    21    23    2
    22    21    24    2
    23    20    25   ar
    24    25    26   ar
    25    17    26   ar
    26     2     3    1
    27     2     1    1
    28     1    27    1
    29     1    28    1
    30     1    29    1
    31     2    30    1
    32    10    31    1
    33    11    32    1
    34    16    33    1
    35    18    34    1
    36    19    35    1
    37    22    36    1
    38    22    37    1
    39    25    38    1
    40    26    39    1
