REMARK  6 active torsions:
REMARK  status: ('A' for Active; 'I' for Inactive)
REMARK    1  A    between atoms: C_3  and  C_22 
REMARK    2  A    between atoms: C_4  and  C_5 
REMARK    3  A    between atoms: N_7  and  C_8 
REMARK    4  A    between atoms: C_8  and  C_9 
REMARK       I    between atoms: C_22  and  N_24 
REMARK    5  A    between atoms: N_24  and  C_25 
REMARK    6  A    between atoms: C_28  and  N_29 
ROOT
ATOM      1  N   UNL d   1       0.945   0.061  -0.057  0.00  0.00    -0.096 N 
ATOM      2  C   UNL d   1       2.206   0.061  -0.057  0.00  0.00     0.025 C 
ATOM      3  C   UNL d   1       3.726   0.061  -0.057  0.00  0.00     0.099 C 
ATOM      4  C   UNL d   1       4.364   0.060  -1.245  0.00  0.00     0.041 C 
ENDROOT
BRANCH   3   5
ATOM      5  C   UNL d   1       4.449   0.019   1.273  0.00  0.00     0.265 C 
ATOM      6  O   UNL d   1       3.763   0.031   2.304  0.00  0.00    -0.267 OA
ATOM      7  N   UNL d   1       5.852   0.048   1.302  0.00  0.00    -0.322 N 
ATOM      8  H   UNL d   1       6.371   0.301   0.472  0.00  0.00     0.169 HD
BRANCH   7   9
ATOM      9  C   UNL d   1       6.596   0.055   2.523  0.00  0.00     0.035 C 
ATOM     10  C   UNL d   1       6.183  -0.710   3.619  0.00  0.00     0.032 C 
ATOM     11  C   UNL d   1       6.778  -0.558   4.878  0.00  0.00     0.038 C 
ATOM     12  C   UNL d   1       7.866   0.304   5.028  0.00  0.00     0.103 C 
ATOM     13  C   UNL d   1       8.398   0.957   3.908  0.00  0.00     0.038 C 
ATOM     14  C   UNL d   1       7.748   0.847   2.660  0.00  0.00     0.032 C 
BRANCH  12  15
ATOM     15  N   UNL d   1       8.412   0.554   6.372  0.00  0.00    -0.116 N 
ATOM     16  O   UNL d   1       7.868  -0.008   7.331  0.00  0.00    -0.532 OA
ATOM     17  O   UNL d   1       9.377   1.330   6.467  0.00  0.00    -0.532 OA
ENDBRANCH  12  15
ENDBRANCH   7   9
ENDBRANCH   3   5
BRANCH   4  18
ATOM     18  C   UNL d   1       3.702   0.103  -2.510  0.00  0.00    -0.006 A 
ATOM     19  C   UNL d   1       4.035  -0.701  -3.565  0.00  0.00     0.104 A 
ATOM     20  N   UNL d   1       3.120  -0.500  -4.577  0.00  0.00    -0.351 N 
ATOM     21  C   UNL d   1       2.226   0.492  -4.193  0.00  0.00     0.045 A 
ATOM     22  C   UNL d   1       1.118   1.069  -4.838  0.00  0.00     0.030 A 
ATOM     23  C   UNL d   1       2.609   0.913  -2.915  0.00  0.00     0.002 A 
ATOM     24  C   UNL d   1       0.387   2.055  -4.155  0.00  0.00     0.002 A 
ATOM     25  C   UNL d   1       0.754   2.479  -2.888  0.00  0.00     0.001 A 
ATOM     26  C   UNL d   1       1.885   1.948  -2.287  0.00  0.00     0.014 A 
BRANCH  20  27
ATOM     27  C   UNL d   1       3.079  -1.206  -5.870  0.00  0.00     0.167 C 
BRANCH  27  28
ATOM     28  C   UNL d   1       4.171  -2.246  -6.018  0.00  0.00    -0.038 A 
ATOM     29  C   UNL d   1       4.207  -3.359  -5.157  0.00  0.00     0.009 A 
ATOM     30  C   UNL d   1       5.322  -4.196  -5.121  0.00  0.00     0.002 A 
ATOM     31  C   UNL d   1       6.425  -3.910  -5.922  0.00  0.00     0.024 A 
ATOM     32  C   UNL d   1       6.369  -2.850  -6.825  0.00  0.00     0.034 A 
ATOM     33 CL   UNL d   1       7.746  -2.481  -7.789  0.00  0.00    -0.084 Cl
ATOM     34  C   UNL d   1       5.229  -2.050  -6.915  0.00  0.00     0.032 A 
ENDBRANCH  27  28
ENDBRANCH  20  27
ENDBRANCH   4  18
TORSDOF 6
