@<TRIPOS>MOLECULE
*****
 68 71 0 0 0
SMALL
GASTEIGER

@<TRIPOS>ATOM
      1 C           1.1664    0.3163    0.2102 C.3     1  UNL1       -0.0108
      2 C           2.6474    0.0480   -0.0226 C.3     1  UNL1        0.0878
      3 N           3.0257   -1.3698   -0.4788 N.pl3   1  UNL1       -0.3883
      4 C           2.1762   -2.2738   -1.3615 C.3     1  UNL1        0.0878
      5 C           0.6670   -2.1286   -1.2196 C.3     1  UNL1       -0.0108
      6 C           4.5452   -1.5095   -0.7309 C.ar    1  UNL1        0.1446
      7 C           5.1775   -1.9618   -1.9028 C.ar    1  UNL1        0.0057
      8 C           6.5845   -2.3190   -1.8865 C.ar    1  UNL1       -0.0285
      9 C           7.3633   -2.2277   -0.6921 C.ar    1  UNL1        0.0866
     10 N           8.8112   -2.3560   -0.5949 N.ar    1  UNL1       -0.1492
     11 N           9.5294   -1.4252   -1.2516 N.ar    1  UNL1       -0.1471
     12 C          10.7351   -1.9797   -1.1102 C.ar    1  UNL1        0.1135
     13 C          11.6200   -2.3743   -2.0997 C.ar    1  UNL1       -0.0277
     14 C          12.7623   -3.1034   -1.6474 C.ar    1  UNL1       -0.0271
     15 C          13.3140   -4.0915   -2.6350 C.3     1  UNL1       -0.0379
     16 C          13.2325   -3.0644   -0.2991 C.ar    1  UNL1        0.0377
     17 N          14.7006   -3.2855   -0.0682 N.am    1  UNL1       -0.2963
     18 C          15.5241   -2.8974    1.0318 C.2     1  UNL1        0.1411
     19 S          14.9729   -1.9085    2.2711 S.2     1  UNL1       -0.0182
     20 N          16.9069   -3.3254    0.9599 N.am    1  UNL1       -0.2635
     21 C          17.9925   -2.8920    1.7536 C.2     1  UNL1        0.2531
     22 O          17.8293   -2.3225    2.8926 O.2     1  UNL1       -0.2697
     23 C          19.4426   -3.0515    1.4204 C.ar    1  UNL1        0.0788
     24 C          20.2673   -3.4878    2.4949 C.ar    1  UNL1       -0.0426
     25 C          21.6701   -3.4707    2.4347 C.ar    1  UNL1       -0.0190
     26 C          22.3104   -3.0559    1.2753 C.ar    1  UNL1        0.1236
     27 O          23.6756   -3.1417    1.2914 O.3     1  UNL1       -0.4950
     28 C          24.3533   -2.8918    0.0626 C.3     1  UNL1        0.0788
     29 C          21.5241   -2.5812    0.2248 C.ar    1  UNL1        0.0225
     30 C          20.1014   -2.5464    0.2832 C.ar    1  UNL1        0.1357
     31 O          19.6014   -1.9331   -0.8321 O.3     1  UNL1       -0.4942
     32 C          18.2341   -1.5917   -0.8971 C.3     1  UNL1        0.0788
     33 C          12.2069   -2.8491    0.6840 C.ar    1  UNL1       -0.0109
     34 C          10.8568   -2.5506    0.1927 C.ar    1  UNL1        0.1149
     35 N           9.5553   -2.9507    0.4623 N.ar    1  UNL1       -0.1470
     36 C           6.7295   -1.6887    0.4149 C.ar    1  UNL1       -0.0285
     37 C           5.3656   -1.3350    0.3902 C.ar    1  UNL1        0.0057
     38 H           1.0082    1.2450    0.7694 H       1  UNL1        0.0289
     39 H           0.6980   -0.4637    0.8165 H       1  UNL1        0.0289
     40 H           0.6343    0.4571   -0.7322 H       1  UNL1        0.0289
     41 H           3.1031    0.1522    0.9706 H       1  UNL1        0.0965
     42 H           3.0933    0.7898   -0.6896 H       1  UNL1        0.0965
     43 H           2.9524   -1.8815    0.4092 H       1  UNL1        0.3743
     44 H           2.4251   -3.2902   -1.0299 H       1  UNL1        0.0965
     45 H           2.4600   -2.1583   -2.4087 H       1  UNL1        0.0965
     46 H           0.3410   -2.1623   -0.1769 H       1  UNL1        0.0289
     47 H           0.1370   -2.9459   -1.7186 H       1  UNL1        0.0289
     48 H           0.3113   -1.2206   -1.7121 H       1  UNL1        0.0289
     49 H           4.6335   -2.0582   -2.8458 H       1  UNL1        0.0682
     50 H           7.0163   -2.6994   -2.8194 H       1  UNL1        0.0641
     51 H          11.1587   -2.4863   -3.0698 H       1  UNL1        0.0643
     52 H          12.5378   -4.3574   -3.3666 H       1  UNL1        0.0278
     53 H          13.5638   -5.0251   -2.1203 H       1  UNL1        0.0278
     54 H          14.1789   -3.6837   -3.1513 H       1  UNL1        0.0278
     55 H          15.2137   -3.4575   -0.9305 H       1  UNL1        0.1538
     56 H          17.1761   -3.9740    0.2161 H       1  UNL1        0.1568
     57 H          19.8112   -3.7922    3.4401 H       1  UNL1        0.0627
     58 H          22.2616   -3.7575    3.3047 H       1  UNL1        0.0654
     59 H          25.4103   -3.1487    0.1927 H       1  UNL1        0.0660
     60 H          24.2977   -1.8299   -0.1960 H       1  UNL1        0.0660
     61 H          23.9631   -3.5167   -0.7484 H       1  UNL1        0.0660
     62 H          22.0022   -2.1679   -0.6613 H       1  UNL1        0.0691
     63 H          18.0672   -0.9465   -1.7614 H       1  UNL1        0.0660
     64 H          17.9000   -1.0438   -0.0113 H       1  UNL1        0.0660
     65 H          17.6582   -2.4941   -1.0989 H       1  UNL1        0.0660
     66 H          12.4444   -2.6266    1.7141 H       1  UNL1        0.0659
     67 H           7.3157   -1.4783    1.3050 H       1  UNL1        0.0641
     68 H           4.9653   -0.9187    1.3064 H       1  UNL1        0.0682
@<TRIPOS>UNITY_ATOM_ATTR
3 1
charge 1
@<TRIPOS>BOND
     1     1     2    1
     2     2     3    1
     3     3     4    1
     4     4     5    1
     5     3     6    1
     6     6     7   ar
     7     7     8   ar
     8     8     9   ar
     9     9    10    1
    10    10    11   ar
    11    11    12   ar
    12    12    13   ar
    13    13    14   ar
    14    14    15    1
    15    14    16   ar
    16    16    17    1
    17    17    18    1
    18    18    19    2
    19    18    20    1
    20    20    21   am
    21    21    22    2
    22    21    23    1
    23    23    24   ar
    24    24    25   ar
    25    25    26   ar
    26    26    27    1
    27    27    28    1
    28    26    29   ar
    29    29    30   ar
    30    23    30   ar
    31    30    31    1
    32    31    32    1
    33    16    33   ar
    34    33    34   ar
    35    12    34   ar
    36    34    35   ar
    37    10    35   ar
    38     9    36   ar
    39    36    37   ar
    40     6    37   ar
    41     1    38    1
    42     1    39    1
    43     1    40    1
    44     2    41    1
    45     2    42    1
    46     3    43    1
    47     4    44    1
    48     4    45    1
    49     5    46    1
    50     5    47    1
    51     5    48    1
    52     7    49    1
    53     8    50    1
    54    13    51    1
    55    15    52    1
    56    15    53    1
    57    15    54    1
    58    17    55    1
    59    20    56    1
    60    24    57    1
    61    25    58    1
    62    28    59    1
    63    28    60    1
    64    28    61    1
    65    29    62    1
    66    32    63    1
    67    32    64    1
    68    32    65    1
    69    33    66    1
    70    36    67    1
    71    37    68    1
