@<TRIPOS>MOLECULE
*****
 76 77 0 0 0
SMALL
GASTEIGER

@<TRIPOS>ATOM
      1 C           0.9033   -0.4333    0.0812 C.3     1  UNL1        0.0790
      2 O           2.3241   -0.5391    0.2129 O.3     1  UNL1       -0.4914
      3 C           2.9934    0.6138   -0.0806 C.ar    1  UNL1        0.1616
      4 C           4.3819    0.6383    0.1310 C.ar    1  UNL1       -0.0109
      5 C           5.1419    1.7758   -0.2099 C.ar    1  UNL1       -0.0145
      6 C           6.6157    2.0276   -0.0102 C.3     1  UNL1        0.1283
      7 C           7.1030    1.3402   -1.2826 C.2     1  UNL1        0.2385
      8 O           7.4945    2.0404   -2.2468 O.2     1  UNL1       -0.2734
      9 N           6.8925   -0.0199   -1.4268 N.am    1  UNL1       -0.3085
     10 C           7.2562   -0.6708   -2.6794 C.3     1  UNL1        0.0295
     11 C           6.6707    0.1279   -3.8676 C.3     1  UNL1       -0.0440
     12 C           8.7868   -0.6480   -2.6288 C.3     1  UNL1       -0.0440
     13 C           6.6870   -2.1372   -2.7160 C.3     1  UNL1       -0.0272
     14 C           7.0640   -3.0335   -3.9489 C.3     1  UNL1       -0.0358
     15 C           6.5439   -2.4795   -5.2843 C.3     1  UNL1       -0.0600
     16 C           8.5750   -3.2792   -4.0485 C.3     1  UNL1       -0.0600
     17 C           6.4223   -4.4214   -3.8044 C.3     1  UNL1       -0.0600
     18 N           7.1199    3.5708    0.0998 N.am    1  UNL1       -0.2767
     19 C           6.3087    4.8246    0.2172 C.2     1  UNL1        0.2550
     20 O           6.8004    5.9540    0.0990 O.2     1  UNL1       -0.2697
     21 C           4.8219    4.9672    0.4914 C.ar    1  UNL1        0.1195
     22 C           4.1567    4.2307    1.4813 C.ar    1  UNL1        0.1325
     23 O           4.8002    3.3235    2.2876 O.3     1  UNL1       -0.5059
     24 C           2.7429    4.1855    1.5046 C.ar    1  UNL1       -0.0192
     25 C           1.9625    4.9365    0.5903 C.ar    1  UNL1       -0.0548
     26 C           2.5965    5.7004   -0.3987 C.ar    1  UNL1       -0.0192
     27 C           4.0108    5.7212   -0.4392 C.ar    1  UNL1        0.1325
     28 O           4.5924    6.1964   -1.5994 O.3     1  UNL1       -0.5059
     29 C           8.6961    3.7521    0.0126 C.3     1  UNL1        0.0304
     30 C           9.3306    3.0813    1.2433 C.3     1  UNL1       -0.0440
     31 C           9.4360    3.1372   -1.2094 C.3     1  UNL1       -0.0440
     32 C           9.1781    5.2149   -0.0361 C.3     1  UNL1       -0.0440
     33 C           4.5527    2.6561   -1.0709 C.ar    1  UNL1       -0.0527
     34 C           3.1864    2.7193   -1.0707 C.ar    1  UNL1       -0.0162
     35 C           2.3856    1.7713   -0.5029 C.ar    1  UNL1        0.1585
     36 O           1.0584    1.9936   -0.2882 O.3     1  UNL1       -0.5033
     37 H           0.4745   -1.4281    0.0948 H       1  UNL1        0.0660
     38 H           0.5843    0.0031   -0.8798 H       1  UNL1        0.0660
     39 H           0.5067    0.1305    0.9377 H       1  UNL1        0.0660
     40 H           4.8358   -0.2547    0.5463 H       1  UNL1        0.0659
     41 H           7.0194    1.5122    0.8685 H       1  UNL1        0.0648
     42 H           6.3176   -0.5340   -0.7720 H       1  UNL1        0.1493
     43 H           6.8480    1.1961   -3.8937 H       1  UNL1        0.0250
     44 H           5.5819    0.0172   -3.9280 H       1  UNL1        0.0250
     45 H           7.1586   -0.1238   -4.7934 H       1  UNL1        0.0250
     46 H           9.1859    0.3382   -2.4000 H       1  UNL1        0.0250
     47 H           9.2532   -0.8616   -3.5760 H       1  UNL1        0.0250
     48 H           9.1521   -1.3186   -1.8388 H       1  UNL1        0.0250
     49 H           5.5858   -2.0893   -2.6398 H       1  UNL1        0.0291
     50 H           6.9826   -2.6609   -1.7914 H       1  UNL1        0.0291
     51 H           7.1175   -1.6330   -5.6430 H       1  UNL1        0.0235
     52 H           5.4840   -2.2062   -5.2156 H       1  UNL1        0.0235
     53 H           6.6710   -3.1958   -6.0977 H       1  UNL1        0.0235
     54 H           9.1169   -2.4121   -4.4068 H       1  UNL1        0.0235
     55 H           8.8135   -4.0331   -4.8006 H       1  UNL1        0.0235
     56 H           8.9881   -3.5965   -3.0838 H       1  UNL1        0.0235
     57 H           5.3305   -4.3596   -3.7820 H       1  UNL1        0.0235
     58 H           6.7717   -4.9343   -2.9043 H       1  UNL1        0.0235
     59 H           6.7005   -5.0406   -4.6676 H       1  UNL1        0.0235
     60 H           5.7211    3.2403    1.9817 H       1  UNL1        0.2922
     61 H           2.2841    3.3370    2.0283 H       1  UNL1        0.0654
     62 H           0.9053    4.7008    0.4383 H       1  UNL1        0.0620
     63 H           2.0164    5.9333   -1.3046 H       1  UNL1        0.0654
     64 H           3.9441    6.5976   -2.2020 H       1  UNL1        0.2922
     65 H           9.1469    2.0013    1.2505 H       1  UNL1        0.0250
     66 H           8.9312    3.5040    2.1668 H       1  UNL1        0.0250
     67 H          10.4209    3.2091    1.2429 H       1  UNL1        0.0250
     68 H           9.4344    2.0463   -1.1730 H       1  UNL1        0.0250
     69 H          10.5070    3.3737   -1.2311 H       1  UNL1        0.0250
     70 H           9.0409    3.5213   -2.1575 H       1  UNL1        0.0250
     71 H           8.8669    5.7609    0.8563 H       1  UNL1        0.0250
     72 H           8.8073    5.7034   -0.9478 H       1  UNL1        0.0250
     73 H          10.2700    5.2951   -0.0771 H       1  UNL1        0.0250
     74 H           5.1395    3.4832   -1.4679 H       1  UNL1        0.0622
     75 H           2.8117    3.6914   -1.2475 H       1  UNL1        0.0655
     76 H           0.7910    2.8988   -0.1006 H       1  UNL1        0.2923
@<TRIPOS>BOND
     1     1     2    1
     2     2     3    1
     3     3     4   ar
     4     4     5   ar
     5     5     6    1
     6     6     7    1
     7     7     8    2
     8     7     9   am
     9     9    10    1
    10    10    11    1
    11    10    12    1
    12    10    13    1
    13    13    14    1
    14    14    15    1
    15    14    16    1
    16    14    17    1
    17     6    18    1
    18    18    19   am
    19    19    20    2
    20    19    21    1
    21    21    22   ar
    22    22    23    1
    23    22    24   ar
    24    24    25   ar
    25    25    26   ar
    26    26    27   ar
    27    21    27   ar
    28    27    28    1
    29    18    29    1
    30    29    30    1
    31    29    31    1
    32    29    32    1
    33     5    33   ar
    34    33    34   ar
    35    34    35   ar
    36     3    35   ar
    37    35    36    1
    38     1    37    1
    39     1    38    1
    40     1    39    1
    41     4    40    1
    42     6    41    1
    43     9    42    1
    44    11    43    1
    45    11    44    1
    46    11    45    1
    47    12    46    1
    48    12    47    1
    49    12    48    1
    50    13    49    1
    51    13    50    1
    52    15    51    1
    53    15    52    1
    54    15    53    1
    55    16    54    1
    56    16    55    1
    57    16    56    1
    58    17    57    1
    59    17    58    1
    60    17    59    1
    61    23    60    1
    62    24    61    1
    63    25    62    1
    64    26    63    1
    65    28    64    1
    66    30    65    1
    67    30    66    1
    68    30    67    1
    69    31    68    1
    70    31    69    1
    71    31    70    1
    72    32    71    1
    73    32    72    1
    74    32    73    1
    75    33    74    1
    76    34    75    1
    77    36    76    1
