@<TRIPOS>MOLECULE
*****
 38 39 0 0 0
SMALL
GASTEIGER

@<TRIPOS>ATOM
      1 C           5.8535   -4.1018    5.2844 C.3     1  UNL1       -0.0396
      2 C           5.3282   -5.3689    4.6953 C.ar    1  UNL1       -0.0458
      3 C           5.6352   -6.6378    5.1526 C.ar    1  UNL1       -0.0405
      4 C           5.0931   -7.7202    4.4706 C.ar    1  UNL1        0.0299
      5 N           4.2856   -7.6167    3.3798 N.ar    1  UNL1       -0.2401
      6 C           3.9915   -6.3674    2.9562 C.ar    1  UNL1        0.1251
      7 N           3.1652   -6.2347    1.8348 N.am    1  UNL1       -0.2689
      8 C           2.7376   -5.0501    1.2651 C.2     1  UNL1        0.2383
      9 O           3.1252   -3.9317    1.6150 O.2     1  UNL1       -0.2734
     10 C           1.8138   -5.1283    0.0236 C.3     1  UNL1        0.0972
     11 C           1.0525   -3.7902   -0.0419 C.3     1  UNL1       -0.0381
     12 N           0.8812   -6.2533    0.0272 N.am    1  UNL1       -0.3003
     13 C           1.3310   -7.5459   -0.0739 C.2     1  UNL1        0.2447
     14 O           2.5271   -7.8363   -0.1408 O.2     1  UNL1       -0.2702
     15 C           0.3463   -8.6291    0.0015 C.ar    1  UNL1        0.0367
     16 C           0.6234   -9.7494    0.7977 C.ar    1  UNL1       -0.0496
     17 C          -0.1884  -10.8769    0.6997 C.ar    1  UNL1       -0.0610
     18 C          -1.3049  -10.8539   -0.1368 C.ar    1  UNL1       -0.0617
     19 C          -1.5939   -9.7195   -0.8999 C.ar    1  UNL1       -0.0610
     20 C          -0.7654   -8.6027   -0.8372 C.ar    1  UNL1       -0.0496
     21 C           4.4854   -5.2509    3.6021 C.ar    1  UNL1       -0.0186
     22 H           6.5016   -4.2937    6.1392 H       1  UNL1        0.0278
     23 H           5.0175   -3.4705    5.6067 H       1  UNL1        0.0278
     24 H           6.4258   -3.5556    4.5246 H       1  UNL1        0.0278
     25 H           6.2781   -6.7814    6.0126 H       1  UNL1        0.0635
     26 H           5.3090   -8.7336    4.8016 H       1  UNL1        0.0830
     27 H           2.9700   -7.1182    1.3716 H       1  UNL1        0.1563
     28 H           2.4587   -5.2151   -0.8603 H       1  UNL1        0.0592
     29 H           0.4348   -3.6554    0.8560 H       1  UNL1        0.0252
     30 H           0.4000   -3.7243   -0.9156 H       1  UNL1        0.0252
     31 H           1.7414   -2.9354   -0.0808 H       1  UNL1        0.0252
     32 H          -0.1113   -6.0621    0.0920 H       1  UNL1        0.1498
     33 H           1.4820   -9.7567    1.4684 H       1  UNL1        0.0625
     34 H           0.0646  -11.7814    1.2483 H       1  UNL1        0.0618
     35 H          -1.9459  -11.7291   -0.2050 H       1  UNL1        0.0618
     36 H          -2.4431   -9.7213   -1.5770 H       1  UNL1        0.0618
     37 H          -0.9519   -7.7477   -1.4789 H       1  UNL1        0.0625
     38 H           4.2561   -4.2491    3.2779 H       1  UNL1        0.0655
@<TRIPOS>BOND
     1     1     2    1
     2     2     3   ar
     3     3     4   ar
     4     4     5   ar
     5     5     6   ar
     6     6     7    1
     7     7     8   am
     8     8     9    2
     9    10    12    1
    10    12    13   am
    11    13    14    2
    12    13    15    1
    13    15    16   ar
    14    16    17   ar
    15    17    18   ar
    16    18    19   ar
    17    19    20   ar
    18    15    20   ar
    19     6    21   ar
    20     2    21   ar
    21    10    11    1
    22    10     8    1
    23     1    22    1
    24     1    23    1
    25     1    24    1
    26     3    25    1
    27     4    26    1
    28     7    27    1
    29    10    28    1
    30    11    29    1
    31    11    30    1
    32    11    31    1
    33    12    32    1
    34    16    33    1
    35    17    34    1
    36    18    35    1
    37    19    36    1
    38    20    37    1
    39    21    38    1
