REMARK  3 active torsions:
REMARK  status: ('A' for Active; 'I' for Inactive)
REMARK    1  A    between atoms: C_5  and  C_6 
REMARK    2  A    between atoms: N_7  and  N_8 
REMARK       I    between atoms: N_8  and  C_9 
REMARK    3  A    between atoms: C_9  and  C_11 
ROOT
ATOM      1  N   UNL d   1      -4.773   2.207   0.027  0.00  0.00    -0.243 N 
ATOM      2  C   UNL d   1      -6.094   1.744   0.093  0.00  0.00     0.274 C 
ATOM      3  O   UNL d   1      -6.396   0.547   0.167  0.00  0.00    -0.266 OA
ATOM      4  H   UNL d   1      -4.576   3.200   0.066  0.00  0.00     0.192 HD
ENDROOT
BRANCH   2   5
ATOM      5  C   UNL d   1      -7.144   2.773   0.102  0.00  0.00     0.061 A 
ATOM      6  C   UNL d   1      -8.300   2.720   0.869  0.00  0.00     0.106 A 
ATOM      7  N   UNL d   1      -9.072   3.819   0.595  0.00  0.00    -0.364 N 
ATOM      8  C   UNL d   1      -8.489   4.562  -0.405  0.00  0.00     0.043 A 
ATOM      9  H   UNL d   1      -9.967   4.027   1.020  0.00  0.00     0.165 HD
ATOM     10  C   UNL d   1      -8.949   5.715  -1.060  0.00  0.00     0.030 A 
ATOM     11  C   UNL d   1      -7.282   3.934  -0.730  0.00  0.00     0.008 A 
ATOM     12  C   UNL d   1      -8.163   6.225  -2.097  0.00  0.00     0.002 A 
ATOM     13  C   UNL d   1      -6.965   5.613  -2.455  0.00  0.00     0.001 A 
ATOM     14  C   UNL d   1      -6.515   4.473  -1.781  0.00  0.00     0.015 A 
ENDBRANCH   2   5
BRANCH   1  15
ATOM     15  N   UNL d   1      -3.741   1.288   0.020  0.00  0.00    -0.181 NA
ATOM     16  C   UNL d   1      -2.503   1.685   0.020  0.00  0.00     0.175 C 
BRANCH  16  17
ATOM     17  C   UNL d   1      -1.443   0.692   0.010  0.00  0.00     0.094 A 
ATOM     18  C   UNL d   1      -1.524  -0.688   0.000  0.00  0.00     0.041 A 
ATOM     19  C   UNL d   1      -0.206  -1.192  -0.004  0.00  0.00     0.035 A 
ATOM     20  C   UNL d   1       0.630  -0.098   0.001  0.00  0.00     0.050 A 
ATOM     21  C   UNL d   1       2.111   0.002   0.000  0.00  0.00     0.076 C 
ATOM     22  O   UNL d   1      -0.113   1.061   0.009  0.00  0.00    -0.314 OA
ENDBRANCH  16  17
ENDBRANCH   1  15
TORSDOF 3
