@<TRIPOS>MOLECULE
*****
 34 35 0 0 0
SMALL
GASTEIGER

@<TRIPOS>ATOM
      1 C           2.4903    1.1851   -0.0009 C.3     1  UNL1       -0.0396
      2 C           1.2488    0.3394    0.0045 C.ar    1  UNL1       -0.0470
      3 C           1.3005   -1.0564    0.0192 C.ar    1  UNL1       -0.0579
      4 C           0.1200   -1.8230    0.0007 C.ar    1  UNL1       -0.0458
      5 C          -1.1460   -1.2162   -0.0213 C.ar    1  UNL1        0.0795
      6 C          -2.4216   -2.0296   -0.0644 C.2     1  UNL1        0.2637
      7 O          -3.5042   -1.4385   -0.0762 O.2     1  UNL1       -0.2685
      8 N          -2.3306   -3.4232   -0.0947 N.am    1  UNL1       -0.2303
      9 N          -3.5026   -4.2253   -0.1698 N.am    1  UNL1       -0.2339
     10 C          -3.4016   -5.6141   -0.1894 C.2     1  UNL1        0.2324
     11 O          -2.3328   -6.2248   -0.1845 O.2     1  UNL1       -0.2740
     12 C          -4.7195   -6.3304   -0.1818 C.3     1  UNL1        0.0398
     13 C          -5.0410   -7.7246   -0.7020 C.3     1  UNL1       -0.0383
     14 C          -5.4370   -6.5289   -1.5131 C.3     1  UNL1       -0.0320
     15 C          -4.7512   -6.2585   -2.8130 C.3     1  UNL1       -0.0617
     16 C          -1.1818    0.1946   -0.0116 C.ar    1  UNL1        0.1292
     17 O          -2.3367    0.9350   -0.0038 O.3     1  UNL1       -0.5060
     18 C          -0.0041    0.9570   -0.0067 C.ar    1  UNL1       -0.0165
     19 H           3.4018    0.5786    0.0028 H       1  UNL1        0.0278
     20 H           2.5112    1.8302    0.8841 H       1  UNL1        0.0278
     21 H           2.5118    1.8156   -0.8968 H       1  UNL1        0.0278
     22 H           2.2615   -1.5683    0.0418 H       1  UNL1        0.0620
     23 H           0.2367   -2.9002    0.0031 H       1  UNL1        0.0626
     24 H          -1.4608   -3.9468   -0.0805 H       1  UNL1        0.1731
     25 H          -4.3956   -3.7366   -0.1544 H       1  UNL1        0.1728
     26 H          -5.2813   -6.1178    0.7230 H       1  UNL1        0.0397
     27 H          -5.8627   -8.2687   -0.2326 H       1  UNL1        0.0275
     28 H          -4.2740   -8.3940   -1.0713 H       1  UNL1        0.0275
     29 H          -6.4899   -6.2771   -1.5662 H       1  UNL1        0.0306
     30 H          -3.6964   -6.5534   -2.8010 H       1  UNL1        0.0233
     31 H          -4.8055   -5.1889   -3.0354 H       1  UNL1        0.0233
     32 H          -5.2406   -6.7999   -3.6290 H       1  UNL1        0.0233
     33 H          -3.0988    0.3184    0.0002 H       1  UNL1        0.2922
     34 H          -0.0679    2.0444   -0.0124 H       1  UNL1        0.0657
@<TRIPOS>BOND
     1     1     2    1
     2     2     3   ar
     3     3     4   ar
     4     4     5   ar
     5     5     6    1
     6     6     7    2
     7     6     8   am
     8     8     9    1
     9     9    10   am
    10    10    11    2
    11    10    12    1
    12    12    13    1
    13    13    14    1
    14    12    14    1
    15    14    15    1
    16     5    16   ar
    17    16    17    1
    18    16    18   ar
    19     2    18   ar
    20     1    19    1
    21     1    20    1
    22     1    21    1
    23     3    22    1
    24     4    23    1
    25     8    24    1
    26     9    25    1
    27    12    26    1
    28    13    27    1
    29    13    28    1
    30    14    29    1
    31    15    30    1
    32    15    31    1
    33    15    32    1
    34    17    33    1
    35    18    34    1
