REMARK  9 active torsions:
REMARK  status: ('A' for Active; 'I' for Inactive)
REMARK    1  A    between atoms: C_6  and  O_7 
REMARK    2  A    between atoms: C_8  and  O_7 
REMARK    3  A    between atoms: C_8  and  C_10 
REMARK       I    between atoms: C_10  and  N_12 
REMARK    4  A    between atoms: N_12  and  N_13 
REMARK       I    between atoms: N_13  and  C_14 
REMARK    5  A    between atoms: C_14  and  C_16 
REMARK    6  A    between atoms: C_19  and  N_20 
REMARK       I    between atoms: N_20  and  C_21 
REMARK    7  A    between atoms: C_21  and  C_23 
REMARK    8  A    between atoms: C_23  and  S_24 
REMARK    9  A    between atoms: S_24  and  C_25 
ROOT
ATOM      1  N   UNL d   1      -2.380  -7.423   0.386  0.00  0.00    -0.263 N 
ATOM      2  C   UNL d   1      -3.477  -8.258   0.088  0.00  0.00     0.270 C 
ATOM      3  O   UNL d   1      -4.628  -7.876   0.006  0.00  0.00    -0.266 OA
ATOM      4  H   UNL d   1      -1.433  -7.678   0.100  0.00  0.00     0.190 HD
ENDROOT
BRANCH   2   5
ATOM      5  C   UNL d   1      -3.163  -9.724  -0.056  0.00  0.00     0.033 A 
ATOM      6  C   UNL d   1      -3.886 -10.649  -0.839  0.00  0.00     0.019 A 
ATOM      7  C   UNL d   1      -3.660 -12.055  -0.703  0.00  0.00     0.030 A 
ATOM      8  C   UNL d   1      -2.674 -12.543   0.172  0.00  0.00     0.034 A 
ATOM      9  C   UNL d   1      -2.000 -11.588   0.939  0.00  0.00     0.030 A 
ATOM     10  C   UNL d   1      -2.220 -10.219   0.824  0.00  0.00     0.019 A 
BRANCH   8  11
ATOM     11  N   UNL d   1      -2.352 -13.945   0.266  0.00  0.00    -0.327 N 
ATOM     12  C   UNL d   1      -1.306 -14.454   1.056  0.00  0.00     0.231 C 
ATOM     13  O   UNL d   1      -0.596 -13.736   1.764  0.00  0.00    -0.272 OA
ATOM     14  H   UNL d   1      -2.865 -14.578  -0.337  0.00  0.00     0.169 HD
BRANCH  12  15
ATOM     15  C   UNL d   1      -1.022 -15.975   1.010  0.00  0.00     0.185 C 
BRANCH  15  16
ATOM     16  S   UNL d   1       0.393 -16.301   2.155  0.00  0.00    -0.083 SA
BRANCH  16  17
ATOM     17  C   UNL d   1       0.712 -17.990   2.098  0.00  0.00     0.168 A 
ATOM     18  N   UNL d   1      -0.175 -18.951   1.990  0.00  0.00    -0.235 NA
ATOM     19  C   UNL d   1       0.542 -20.117   2.119  0.00  0.00     0.136 A 
ATOM     20  C   UNL d   1       1.882 -19.858   2.290  0.00  0.00     0.112 A 
ATOM     21  N   UNL d   1       1.979 -18.492   2.286  0.00  0.00    -0.339 N 
ATOM     22  C   UNL d   1       3.215 -17.756   2.422  0.00  0.00     0.158 C 
ENDBRANCH  16  17
ENDBRANCH  15  16
ENDBRANCH  12  15
ENDBRANCH   8  11
ENDBRANCH   2   5
BRANCH   1  23
ATOM     23  N   UNL d   1      -2.577  -6.000   0.680  0.00  0.00    -0.265 N 
ATOM     24  C   UNL d   1      -1.497  -5.145   0.352  0.00  0.00     0.265 C 
ATOM     25  O   UNL d   1      -0.354  -5.592   0.209  0.00  0.00    -0.269 OA
ATOM     26  H   UNL d   1      -3.519  -5.682   0.441  0.00  0.00     0.190 HD
BRANCH  24  27
ATOM     27  C   UNL d   1      -1.877  -3.653  -0.030  0.00  0.00     0.218 C 
ATOM     28  C   UNL d   1      -0.585  -2.802  -0.006  0.00  0.00     0.050 C 
BRANCH  27  29
ATOM     29  O   UNL d   1      -2.531  -3.268  -1.259  0.00  0.00    -0.336 OA
BRANCH  29  30
ATOM     30  C   UNL d   1      -3.135  -4.163  -2.092  0.00  0.00     0.076 C 
ATOM     31  C   UNL d   1      -2.945  -5.525  -2.014  0.00  0.00     0.037 C 
ATOM     32  C   UNL d   1      -3.739  -6.475  -2.623  0.00  0.00     0.003 C 
ATOM     33  C   UNL d   1      -4.541  -6.075  -3.642  0.00  0.00     0.007 C 
ATOM     34  C   UNL d   1      -4.555  -4.722  -3.986  0.00  0.00    -0.053 C 
ATOM     35  C   UNL d   1      -5.220  -4.391  -5.282  0.00  0.00     0.049 C 
ATOM     36  C   UNL d   1      -3.909  -3.739  -3.172  0.00  0.00    -0.023 C 
ATOM     37  C   UNL d   1      -3.956  -2.287  -3.563  0.00  0.00     0.052 C 
ENDBRANCH  29  30
ENDBRANCH  27  29
ENDBRANCH  24  27
ENDBRANCH   1  23
TORSDOF 9
