@<TRIPOS>MOLECULE
*****
 60 63 0 0 0
SMALL
GASTEIGER

@<TRIPOS>ATOM
      1 C           1.8804    1.4777   -0.0196 C.3     1  UNL1       -0.0395
      2 C           0.6071    0.6787    0.0112 C.ar    1  UNL1       -0.0474
      3 C          -0.5941    1.3667    0.0744 C.ar    1  UNL1       -0.0568
      4 C          -1.7981    0.6725    0.1545 C.ar    1  UNL1       -0.0402
      5 C          -1.8880   -0.7268    0.1040 C.ar    1  UNL1        0.0350
      6 N          -3.1639   -1.4130    0.0696 N.am    1  UNL1       -0.2692
      7 C          -4.3946   -0.7671    0.2448 C.2     1  UNL1        0.3082
      8 O          -4.4930    0.3923    0.6484 O.2     1  UNL1       -0.2522
      9 N          -5.5294   -1.5014   -0.0926 N.am    1  UNL1       -0.2675
     10 C          -6.8038   -0.8228   -0.2156 C.ar    1  UNL1        0.0576
     11 C          -7.9515   -1.3107    0.4920 C.ar    1  UNL1       -0.0174
     12 C          -9.2220   -0.6993    0.3400 C.ar    1  UNL1        0.0355
     13 N         -10.4247   -1.2721    0.8767 N.am    1  UNL1       -0.2814
     14 C         -11.7171   -0.8408    0.5512 C.2     1  UNL1        0.2483
     15 O         -12.0239    0.1107   -0.1774 O.2     1  UNL1       -0.2699
     16 C         -12.8852   -1.5619    1.1077 C.ar    1  UNL1        0.0372
     17 C         -14.0595   -1.6496    0.3283 C.ar    1  UNL1       -0.0469
     18 C         -15.2528   -2.0994    0.8954 C.ar    1  UNL1       -0.0257
     19 C         -15.2528   -2.5197    2.2184 C.ar    1  UNL1        0.1234
     20 F         -16.3805   -3.0012    2.7567 F       1  UNL1       -0.2055
     21 C         -14.0977   -2.4483    2.9954 C.ar    1  UNL1       -0.0257
     22 C         -12.9097   -1.9576    2.4453 C.ar    1  UNL1       -0.0469
     23 C          -9.2830    0.4687   -0.4106 C.ar    1  UNL1       -0.0386
     24 C          -8.1785    0.9503   -1.1005 C.ar    1  UNL1       -0.0371
     25 C          -6.9312    0.3217   -1.0541 C.ar    1  UNL1        0.0514
     26 N          -5.9705    0.8543   -1.8928 N.pl3   1  UNL1       -0.3285
     27 C          -5.1083    0.0891   -2.7689 C.3     1  UNL1        0.0123
     28 C          -3.7464    0.7285   -2.5912 C.3     1  UNL1       -0.0358
     29 C          -4.0411    2.1848   -2.2741 C.3     1  UNL1       -0.0358
     30 C          -5.4238    2.1844   -1.6120 C.3     1  UNL1        0.0123
     31 C          -0.6747   -1.4234    0.0171 C.ar    1  UNL1       -0.0373
     32 C           0.5732   -0.7317    0.0043 C.ar    1  UNL1       -0.0458
     33 C           1.8685   -1.4991    0.0150 C.3     1  UNL1       -0.0394
     34 H           1.6751    2.5557   -0.0320 H       1  UNL1        0.0278
     35 H           2.4582    1.2501   -0.9198 H       1  UNL1        0.0278
     36 H           2.4778    1.2726    0.8731 H       1  UNL1        0.0278
     37 H          -0.6254    2.4541    0.0671 H       1  UNL1        0.0621
     38 H          -2.6738    1.3066    0.1926 H       1  UNL1        0.0636
     39 H          -3.1478   -2.4080   -0.1021 H       1  UNL1        0.1564
     40 H          -5.5402   -2.4921    0.0893 H       1  UNL1        0.1564
     41 H          -7.8338   -2.1281    1.1996 H       1  UNL1        0.0655
     42 H         -10.3307   -2.1383    1.3929 H       1  UNL1        0.1551
     43 H         -14.0542   -1.3286   -0.7139 H       1  UNL1        0.0626
     44 H         -16.1791   -2.0992    0.3274 H       1  UNL1        0.0646
     45 H         -14.1414   -2.7408    4.0394 H       1  UNL1        0.0646
     46 H         -12.0377   -1.8283    3.0772 H       1  UNL1        0.0626
     47 H         -10.1907    1.0467   -0.5239 H       1  UNL1        0.0637
     48 H          -8.3298    1.8020   -1.7591 H       1  UNL1        0.0637
     49 H          -5.4409    0.2453   -3.7984 H       1  UNL1        0.0464
     50 H          -5.0983   -0.9872   -2.5786 H       1  UNL1        0.0464
     51 H          -3.0724    0.5826   -3.4366 H       1  UNL1        0.0281
     52 H          -3.2531    0.2657   -1.7565 H       1  UNL1        0.0281
     53 H          -4.0631    2.7573   -3.2049 H       1  UNL1        0.0281
     54 H          -3.2819    2.6418   -1.6295 H       1  UNL1        0.0281
     55 H          -6.0473    2.9599   -2.0705 H       1  UNL1        0.0464
     56 H          -5.3541    2.4071   -0.5402 H       1  UNL1        0.0464
     57 H          -0.6673   -2.5097   -0.0232 H       1  UNL1        0.0639
     58 H           1.6982   -2.5786    0.0217 H       1  UNL1        0.0278
     59 H           2.4408   -1.2474    0.9156 H       1  UNL1        0.0278
     60 H           2.4681   -1.2547   -0.8680 H       1  UNL1        0.0278
@<TRIPOS>BOND
     1     1     2    1
     2     2     3   ar
     3     3     4   ar
     4     4     5   ar
     5     5     6    1
     6     6     7   am
     7     7     8    2
     8     7     9   am
     9     9    10    1
    10    10    11   ar
    11    11    12   ar
    12    12    13    1
    13    13    14   am
    14    14    15    2
    15    14    16    1
    16    16    17   ar
    17    17    18   ar
    18    18    19   ar
    19    19    20    1
    20    19    21   ar
    21    21    22   ar
    22    16    22   ar
    23    12    23   ar
    24    23    24   ar
    25    24    25   ar
    26    10    25   ar
    27    25    26    1
    28    26    27    1
    29    27    28    1
    30    28    29    1
    31    29    30    1
    32    26    30    1
    33     5    31   ar
    34    31    32   ar
    35     2    32   ar
    36    32    33    1
    37     1    34    1
    38     1    35    1
    39     1    36    1
    40     3    37    1
    41     4    38    1
    42     6    39    1
    43     9    40    1
    44    11    41    1
    45    13    42    1
    46    17    43    1
    47    18    44    1
    48    21    45    1
    49    22    46    1
    50    23    47    1
    51    24    48    1
    52    27    49    1
    53    27    50    1
    54    28    51    1
    55    28    52    1
    56    29    53    1
    57    29    54    1
    58    30    55    1
    59    30    56    1
    60    31    57    1
    61    33    58    1
    62    33    59    1
    63    33    60    1
