REMARK  7 active torsions:
REMARK  status: ('A' for Active; 'I' for Inactive)
REMARK       I    between atoms: C_2  and  N_4 
REMARK    1  A    between atoms: N_4  and  C_5 
REMARK    2  A    between atoms: C_8  and  C_9 
REMARK       I    between atoms: C_9  and  N_11 
REMARK    3  A    between atoms: N_11  and  C_12 
REMARK    4  A    between atoms: C_15  and  C_16 
REMARK    5  A    between atoms: C_16  and  C_17 
REMARK    6  A    between atoms: C_17  and  N_18 
REMARK       I    between atoms: N_18  and  C_19 
REMARK    7  A    between atoms: C_19  and  C_21 
ROOT
ATOM      1  C   UNL d   1      11.099   0.882  -0.643  0.00  0.00     0.196 A 
ATOM      2  N   UNL d   1      11.794   1.266  -1.690  0.00  0.00    -0.123 NA
ATOM      3  N   UNL d   1      13.165   1.162  -1.476  0.00  0.00    -0.145 NA
ATOM      4  C   UNL d   1      13.452   0.580  -0.325  0.00  0.00     0.102 A 
ATOM      5  S   UNL d   1      12.046   0.199   0.600  0.00  0.00    -0.033 SA
ENDROOT
BRANCH   1   6
ATOM      6  N   UNL d   1       9.719   0.837  -0.580  0.00  0.00    -0.300 N 
ATOM      7  C   UNL d   1       9.021   1.170   0.573  0.00  0.00     0.257 C 
ATOM      8  O   UNL d   1       9.552   1.498   1.636  0.00  0.00    -0.267 OA
ATOM      9  H   UNL d   1       9.270   0.874  -1.481  0.00  0.00     0.171 HD
BRANCH   7  10
ATOM     10  C   UNL d   1       7.512   1.166   0.522  0.00  0.00     0.032 A 
ATOM     11  C   UNL d   1       6.788   1.456   1.698  0.00  0.00     0.019 A 
ATOM     12  C   UNL d   1       5.382   1.339   1.750  0.00  0.00     0.030 A 
ATOM     13  C   UNL d   1       4.671   0.960   0.611  0.00  0.00     0.034 A 
ATOM     14  C   UNL d   1       5.384   0.724  -0.568  0.00  0.00     0.030 A 
ATOM     15  C   UNL d   1       6.783   0.833  -0.621  0.00  0.00     0.019 A 
BRANCH  13  16
ATOM     16  N   UNL d   1       3.256   0.863   0.627  0.00  0.00    -0.328 N 
ATOM     17  C   UNL d   1       2.566  -0.112  -0.082  0.00  0.00     0.218 C 
ATOM     18  C   UNL d   1       1.061  -0.023  -0.014  0.00  0.00     0.117 C 
ATOM     19  O   UNL d   1       3.096  -1.026  -0.713  0.00  0.00    -0.274 OA
ATOM     20  H   UNL d   1       2.749   1.441   1.287  0.00  0.00     0.169 HD
ENDBRANCH  13  16
ENDBRANCH   7  10
ENDBRANCH   1   6
BRANCH   4  21
ATOM     21  C   UNL d   1      14.857   0.262   0.133  0.00  0.00     0.088 C 
BRANCH  21  22
ATOM     22  C   UNL d   1      14.940  -0.518   1.447  0.00  0.00     0.129 C 
BRANCH  22  23
ATOM     23  N   UNL d   1      16.292  -0.822   1.894  0.00  0.00    -0.356 N 
ATOM     24  C   UNL d   1      16.479  -1.569   3.041  0.00  0.00     0.251 C 
ATOM     25  O   UNL d   1      15.548  -2.009   3.720  0.00  0.00    -0.268 OA
ATOM     26  H   UNL d   1      17.088  -0.562   1.325  0.00  0.00     0.162 HD
BRANCH  24  27
ATOM     27  C   UNL d   1      17.874  -1.841   3.465  0.00  0.00     0.033 A 
ATOM     28  C   UNL d   1      18.184  -3.083   4.040  0.00  0.00     0.017 A 
ATOM     29  C   UNL d   1      19.443  -3.302   4.606  0.00  0.00     0.002 A 
ATOM     30  C   UNL d   1      20.414  -2.302   4.550  0.00  0.00     0.019 A 
ATOM     31  C   UNL d   1      20.106  -1.073   3.966  0.00  0.00     0.011 A 
ATOM     32 BR   UNL d   1      21.396   0.310   3.973  0.00  0.00    -0.051 Br
ATOM     33  C   UNL d   1      18.841  -0.832   3.425  0.00  0.00     0.036 A 
ENDBRANCH  24  27
ENDBRANCH  22  23
ENDBRANCH  21  22
ENDBRANCH   4  21
TORSDOF 7
