REMARK  5 active torsions:
REMARK  status: ('A' for Active; 'I' for Inactive)
REMARK    1  A    between atoms: O_2  and  C_3 
REMARK    2  A    between atoms: C_9  and  N_10 
REMARK    3  A    between atoms: C_11  and  N_10 
REMARK    4  A    between atoms: C_11  and  C_13 
REMARK       I    between atoms: C_13  and  N_15 
REMARK    5  A    between atoms: N_15  and  C_16 
ROOT
ATOM      1  C   UNL d   1       3.877  -1.366   1.517  0.00  0.00     0.170 C 
ATOM      2  C   UNL d   1       4.872  -1.726   0.390  0.00  0.00     0.042 C 
ENDROOT
BRANCH   1   3
ATOM      3  C   UNL d   1       4.518  -2.043   2.771  0.00  0.00     0.245 C 
ATOM      4  O   UNL d   1       5.516  -2.754   2.645  0.00  0.00    -0.271 OA
ATOM      5  N   UNL d   1       3.972  -1.789   4.023  0.00  0.00    -0.310 N 
ATOM      6  H   UNL d   1       2.992  -1.565   4.102  0.00  0.00     0.170 HD
BRANCH   5   7
ATOM      7  C   UNL d   1       4.570  -2.408   5.146  0.00  0.00     0.129 A 
ATOM      8  C   UNL d   1       5.958  -2.356   5.298  0.00  0.00     0.052 A 
ATOM      9  C   UNL d   1       6.583  -3.090   6.302  0.00  0.00     0.029 A 
ATOM     10  C   UNL d   1       5.800  -3.857   7.144  0.00  0.00     0.051 A 
ATOM     11 CL   UNL d   1       6.530  -4.824   8.359  0.00  0.00    -0.083 Cl
ATOM     12  C   UNL d   1       4.420  -3.811   6.972  0.00  0.00     0.142 A 
ATOM     13  N   UNL d   1       3.779  -3.074   6.013  0.00  0.00    -0.242 NA
ENDBRANCH   5   7
ENDBRANCH   1   3
BRANCH   1  14
ATOM     14  N   UNL d   1       2.488  -1.824   1.257  0.00  0.00    -0.375 N 
ATOM     15  H   UNL d   1       1.925  -2.128   2.049  0.00  0.00     0.160 HD
BRANCH  14  16
ATOM     16  C   UNL d   1       1.794  -1.809   0.045  0.00  0.00     0.064 C 
ATOM     17  C   UNL d   1       2.346  -1.324  -1.145  0.00  0.00     0.056 C 
ATOM     18  C   UNL d   1       1.774  -1.516  -2.399  0.00  0.00     0.036 C 
ATOM     19  C   UNL d   1       0.508  -2.046  -2.495  0.00  0.00     0.026 C 
ATOM     20 CL   UNL d   1       2.655  -1.055  -3.804  0.00  0.00    -0.084 Cl
ATOM     21  C   UNL d   1      -0.150  -2.423  -1.323  0.00  0.00     0.041 C 
ATOM     22  C   UNL d   1       0.494  -2.353  -0.069  0.00  0.00     0.094 C 
BRANCH  22  23
ATOM     23  O   UNL d   1      -0.141  -2.696   1.105  0.00  0.00    -0.354 OA
ATOM     24  C   UNL d   1      -0.989  -3.840   1.022  0.00  0.00     0.210 C 
ENDBRANCH  22  23
ENDBRANCH  14  16
ENDBRANCH   1  14
TORSDOF 5
