REMARK  8 active torsions:
REMARK  status: ('A' for Active; 'I' for Inactive)
REMARK    1  A    between atoms: C_2  and  N_3 
REMARK       I    between atoms: N_3  and  C_4 
REMARK    2  A    between atoms: C_4  and  C_6 
REMARK    3  A    between atoms: C_9  and  N_10 
REMARK       I    between atoms: N_10  and  C_11 
REMARK       I    between atoms: C_11  and  N_13 
REMARK    4  A    between atoms: N_13  and  C_14 
REMARK    5  A    between atoms: C_14  and  C_15 
REMARK    6  A    between atoms: C_15  and  N_16 
REMARK    7  A    between atoms: N_16  and  C_17 
REMARK    8  A    between atoms: C_20  and  N_21 
ROOT
ATOM      1  N   UNL d   1       6.330  -7.089   0.637  0.00  0.00    -0.309 N 
ATOM      2  C   UNL d   1       5.711  -8.164   0.012  0.00  0.00     0.320 C 
ATOM      3  O   UNL d   1       4.733  -8.098  -0.729  0.00  0.00    -0.247 OA
ATOM      4  N   UNL d   1       6.254  -9.407   0.261  0.00  0.00    -0.341 N 
ATOM      5  H   UNL d   1       7.104  -7.274   1.260  0.00  0.00     0.170 HD
ATOM      6  H   UNL d   1       7.043  -9.528   0.877  0.00  0.00     0.164 HD
ENDROOT
BRANCH   1   7
ATOM      7  C   UNL d   1       5.873  -5.727   0.548  0.00  0.00     0.036 A 
ATOM      8  C   UNL d   1       6.486  -4.697   1.282  0.00  0.00     0.030 A 
ATOM      9  C   UNL d   1       5.954  -3.380   1.265  0.00  0.00     0.019 A 
ATOM     10  C   UNL d   1       4.840  -3.060   0.473  0.00  0.00     0.032 A 
ATOM     11  C   UNL d   1       4.261  -4.065  -0.288  0.00  0.00     0.019 A 
ATOM     12  C   UNL d   1       4.781  -5.364  -0.250  0.00  0.00     0.030 A 
BRANCH  10  13
ATOM     13  C   UNL d   1       4.372  -1.652   0.319  0.00  0.00     0.251 C 
ATOM     14  N   UNL d   1       3.009  -1.438   0.222  0.00  0.00    -0.357 N 
ATOM     15  H   UNL d   1       2.367  -2.212   0.346  0.00  0.00     0.162 HD
ATOM     16  O   UNL d   1       5.204  -0.743   0.265  0.00  0.00    -0.268 OA
BRANCH  14  17
ATOM     17  C   UNL d   1       2.469  -0.099   0.046  0.00  0.00     0.118 C 
ATOM     18  C   UNL d   1       0.950  -0.075   0.041  0.00  0.00     0.026 C 
ENDBRANCH  14  17
ENDBRANCH  10  13
ENDBRANCH   1   7
BRANCH   4  19
ATOM     19  C   UNL d   1       5.644 -10.572  -0.408  0.00  0.00     0.144 C 
BRANCH  19  20
ATOM     20  C   UNL d   1       6.299 -11.922  -0.084  0.00  0.00     0.139 C 
BRANCH  20  21
ATOM     21  N   UNL d   1       5.747 -13.027  -0.867  0.00  0.00    -0.388 N 
ATOM     22  H   UNL d   1       4.912 -12.868  -1.425  0.00  0.00     0.159 HD
BRANCH  21  23
ATOM     23  C   UNL d   1       6.073 -14.353  -0.619  0.00  0.00     0.028 A 
ATOM     24  C   UNL d   1       6.134 -15.255  -1.693  0.00  0.00     0.031 A 
ATOM     25  C   UNL d   1       6.449 -16.608  -1.500  0.00  0.00     0.038 A 
ATOM     26  C   UNL d   1       6.771 -17.061  -0.218  0.00  0.00     0.103 A 
ATOM     27  C   UNL d   1       6.716 -16.184   0.868  0.00  0.00     0.038 A 
ATOM     28  C   UNL d   1       6.376 -14.841   0.658  0.00  0.00     0.031 A 
BRANCH  26  29
ATOM     29  N   UNL d   1       7.229 -18.443  -0.019  0.00  0.00    -0.116 N 
ATOM     30  O   UNL d   1       7.296 -19.178  -1.014  0.00  0.00    -0.532 OA
ATOM     31  O   UNL d   1       7.546 -18.785   1.130  0.00  0.00    -0.532 OA
ENDBRANCH  26  29
ENDBRANCH  21  23
ENDBRANCH  20  21
ENDBRANCH  19  20
ENDBRANCH   4  19
TORSDOF 8
