@<TRIPOS>MOLECULE
*****
 37 38 0 0 0
SMALL
GASTEIGER

@<TRIPOS>ATOM
      1 C           2.4923    1.1828   -0.0006 C.3     1  UNL1       -0.0396
      2 C           1.2487    0.3408    0.0044 C.ar    1  UNL1       -0.0470
      3 C           1.2940   -1.0563    0.0182 C.ar    1  UNL1       -0.0579
      4 C           0.1080   -1.8155    0.0003 C.ar    1  UNL1       -0.0458
      5 C          -1.1520   -1.1910   -0.0204 C.ar    1  UNL1        0.0795
      6 C          -2.4480   -1.9582   -0.0596 C.2     1  UNL1        0.2637
      7 O          -3.5210   -1.3467   -0.0716 O.2     1  UNL1       -0.2685
      8 N          -2.4000   -3.3342   -0.0865 N.am    1  UNL1       -0.2303
      9 N          -3.5903   -4.1150   -0.1431 N.am    1  UNL1       -0.2339
     10 C          -3.3845   -5.4802   -0.1155 C.2     1  UNL1        0.2334
     11 O          -2.2099   -5.8524   -0.0355 O.2     1  UNL1       -0.2739
     12 C          -4.6177   -6.4112   -0.1852 C.3     1  UNL1        0.0506
     13 C          -4.3554   -7.9253   -0.2073 C.ar    1  UNL1       -0.0372
     14 C          -5.4194   -8.8480   -0.1695 C.ar    1  UNL1       -0.0580
     15 C          -5.1755  -10.2358   -0.1886 C.ar    1  UNL1       -0.0601
     16 C          -3.8712  -10.7304   -0.2287 C.ar    1  UNL1       -0.0434
     17 C          -2.8173   -9.8379   -0.2658 C.ar    1  UNL1        0.0412
     18 CL         -1.1878  -10.3922   -0.2940 Cl      1  UNL1       -0.0835
     19 C          -3.0624   -8.4683   -0.2779 C.ar    1  UNL1       -0.0397
     20 C          -1.1791    0.2157   -0.0114 C.ar    1  UNL1        0.1292
     21 O          -2.3342    0.9554   -0.0043 O.3     1  UNL1       -0.5060
     22 C           0.0003    0.9677   -0.0065 C.ar    1  UNL1       -0.0165
     23 H           3.4019    0.5740    0.0032 H       1  UNL1        0.0278
     24 H           2.5138    1.8279    0.8844 H       1  UNL1        0.0278
     25 H           2.5144    1.8133   -0.8964 H       1  UNL1        0.0278
     26 H           2.2540   -1.5710    0.0400 H       1  UNL1        0.0620
     27 H           0.2155   -2.8951    0.0030 H       1  UNL1        0.0626
     28 H          -1.5454   -3.8923   -0.0696 H       1  UNL1        0.1731
     29 H          -4.4824   -3.6281   -0.1467 H       1  UNL1        0.1728
     30 H          -5.1921   -6.1548   -1.0855 H       1  UNL1        0.0407
     31 H          -5.2487   -6.1889    0.6862 H       1  UNL1        0.0407
     32 H          -6.4548   -8.5111   -0.1276 H       1  UNL1        0.0620
     33 H          -6.0038  -10.9412   -0.1692 H       1  UNL1        0.0618
     34 H          -3.6763  -11.7982   -0.2362 H       1  UNL1        0.0632
     35 H          -2.1791   -7.8518   -0.3456 H       1  UNL1        0.0635
     36 H          -3.0952    0.3348   -0.0010 H       1  UNL1        0.2922
     37 H          -0.0612    2.0543   -0.0118 H       1  UNL1        0.0657
@<TRIPOS>BOND
     1     1     2    1
     2     2     3   ar
     3     3     4   ar
     4     4     5   ar
     5     5     6    1
     6     6     7    2
     7     6     8   am
     8     8     9    1
     9     9    10   am
    10    10    11    2
    11    10    12    1
    12    12    13    1
    13    13    14   ar
    14    14    15   ar
    15    15    16   ar
    16    16    17   ar
    17    17    18    1
    18    17    19   ar
    19    13    19   ar
    20     5    20   ar
    21    20    21    1
    22    20    22   ar
    23     2    22   ar
    24     1    23    1
    25     1    24    1
    26     1    25    1
    27     3    26    1
    28     4    27    1
    29     8    28    1
    30     9    29    1
    31    12    30    1
    32    12    31    1
    33    14    32    1
    34    15    33    1
    35    16    34    1
    36    19    35    1
    37    21    36    1
    38    22    37    1
