@<TRIPOS>MOLECULE
*****
 33 34 0 0 0
SMALL
GASTEIGER

@<TRIPOS>ATOM
      1 C           1.8290    1.9254    0.0048 C.3     1  UNL1       -0.0393
      2 C           0.8387    0.7963    0.0005 C.ar    1  UNL1       -0.0440
      3 C          -0.5139    1.1178   -0.0029 C.ar    1  UNL1       -0.0152
      4 C          -1.4878    0.1265   -0.0104 C.ar    1  UNL1        0.1382
      5 O          -2.7693    0.5646   -0.0147 O.3     1  UNL1       -0.5049
      6 C          -1.1655   -1.2361   -0.0143 C.ar    1  UNL1        0.0759
      7 N          -2.1366   -2.2928   -0.0245 N.am    1  UNL1       -0.2785
      8 C          -3.5260   -2.1719   -0.0089 C.2     1  UNL1        0.2494
      9 O          -4.2382   -1.1703   -0.0216 O.2     1  UNL1       -0.2698
     10 C          -4.3490   -3.3930    0.0018 C.ar    1  UNL1        0.0509
     11 C          -5.4984   -3.3622   -0.8231 C.ar    1  UNL1       -0.0486
     12 C          -6.4305   -4.3935   -0.7927 C.ar    1  UNL1       -0.0610
     13 C          -6.2344   -5.4551    0.0820 C.ar    1  UNL1       -0.0607
     14 C          -5.1193   -5.4764    0.9277 C.ar    1  UNL1       -0.0470
     15 C          -4.1731   -4.4462    0.8961 C.ar    1  UNL1        0.0300
     16 BR         -2.7587   -4.5260    2.1581 Br      1  UNL1       -0.0495
     17 C           0.2123   -1.5644   -0.0053 C.ar    1  UNL1       -0.0337
     18 C           1.2177   -0.5581   -0.0007 C.ar    1  UNL1       -0.0456
     19 C           2.6839   -0.9114   -0.0033 C.3     1  UNL1       -0.0394
     20 H           1.3207    2.8971    0.0032 H       1  UNL1        0.0278
     21 H           2.4561    1.8852   -0.8898 H       1  UNL1        0.0278
     22 H           2.4489    1.8843    0.9044 H       1  UNL1        0.0278
     23 H          -0.8237    2.1582   -0.0021 H       1  UNL1        0.0657
     24 H          -2.8547    1.5231   -0.0014 H       1  UNL1        0.2922
     25 H          -1.7616   -3.2338    0.0016 H       1  UNL1        0.1552
     26 H          -5.6888   -2.4967   -1.4613 H       1  UNL1        0.0625
     27 H          -7.3105   -4.3527   -1.4306 H       1  UNL1        0.0618
     28 H          -6.9619   -6.2613    0.1220 H       1  UNL1        0.0618
     29 H          -5.0094   -6.2968    1.6315 H       1  UNL1        0.0629
     30 H           0.5306   -2.6064   -0.0025 H       1  UNL1        0.0640
     31 H           2.8511   -1.9915   -0.0013 H       1  UNL1        0.0278
     32 H           3.1763   -0.4951    0.8836 H       1  UNL1        0.0278
     33 H           3.1694   -0.4999   -0.8963 H       1  UNL1        0.0278
@<TRIPOS>BOND
     1     1     2    1
     2     2     3   ar
     3     3     4   ar
     4     4     5    1
     5     4     6   ar
     6     6     7    1
     7     7     8   am
     8     8     9    2
     9     8    10    1
    10    10    11   ar
    11    11    12   ar
    12    12    13   ar
    13    13    14   ar
    14    14    15   ar
    15    10    15   ar
    16    15    16    1
    17     6    17   ar
    18    17    18   ar
    19     2    18   ar
    20    18    19    1
    21     1    20    1
    22     1    21    1
    23     1    22    1
    24     3    23    1
    25     5    24    1
    26     7    25    1
    27    11    26    1
    28    12    27    1
    29    13    28    1
    30    14    29    1
    31    17    30    1
    32    19    31    1
    33    19    32    1
    34    19    33    1
