REMARK  6 active torsions:
REMARK  status: ('A' for Active; 'I' for Inactive)
REMARK       I    between atoms: N_1  and  C_2 
REMARK       I    between atoms: C_2  and  N_4 
REMARK    1  A    between atoms: N_4  and  C_5 
REMARK    2  A    between atoms: C_5  and  C_6 
REMARK    3  A    between atoms: C_9  and  N_10 
REMARK       I    between atoms: N_10  and  C_11 
REMARK    4  A    between atoms: C_11  and  C_13 
REMARK    5  A    between atoms: C_18  and  C_19 
REMARK    6  A    between atoms: C_19  and  C_21 
ROOT
ATOM      1  N   UNL d   1       6.710   4.432  -5.029  0.00  0.00    -0.323 N 
ATOM      2  C   UNL d   1       6.061   5.643  -5.303  0.00  0.00     0.257 C 
ATOM      3  O   UNL d   1       5.298   6.258  -4.559  0.00  0.00    -0.267 OA
ATOM      4  H   UNL d   1       7.204   3.983  -5.792  0.00  0.00     0.169 HD
ENDROOT
BRANCH   1   5
ATOM      5  C   UNL d   1       6.410   3.578  -3.908  0.00  0.00     0.035 A 
ATOM      6  C   UNL d   1       6.851   2.238  -3.893  0.00  0.00     0.030 A 
ATOM      7  C   UNL d   1       6.273   1.293  -3.000  0.00  0.00     0.011 A 
ATOM      8  C   UNL d   1       5.312   1.685  -2.054  0.00  0.00    -0.040 A 
ATOM      9  C   UNL d   1       4.949   3.030  -2.026  0.00  0.00     0.011 A 
ATOM     10  C   UNL d   1       5.486   3.952  -2.931  0.00  0.00     0.030 A 
BRANCH   8  11
ATOM     11  C   UNL d   1       4.703   0.749  -1.037  0.00  0.00     0.162 C 
BRANCH  11  12
ATOM     12  N   UNL d   1       3.248   0.729  -1.022  0.00  0.00    -0.339 N 
ATOM     13  C   UNL d   1       2.588   0.051  -0.044  0.00  0.00     0.314 C 
ATOM     14  N   UNL d   1       1.242   0.113  -0.110  0.00  0.00    -0.352 N 
ATOM     15  O   UNL d   1       3.141  -0.588   0.853  0.00  0.00    -0.248 OA
ATOM     16  H   UNL d   1       0.730  -0.392   0.603  0.00  0.00     0.160 HD
ATOM     17  H   UNL d   1       0.718   0.618  -0.806  0.00  0.00     0.160 HD
ATOM     18  H   UNL d   1       2.724   1.249  -1.708  0.00  0.00     0.164 HD
ENDBRANCH  11  12
ENDBRANCH   8  11
ENDBRANCH   1   5
BRANCH   2  19
ATOM     19  C   UNL d   1       6.242   6.277  -6.633  0.00  0.00     0.046 A 
ATOM     20  C   UNL d   1       6.602   7.647  -6.579  0.00  0.00     0.018 A 
ATOM     21  C   UNL d   1       6.750   8.413  -7.737  0.00  0.00     0.001 A 
ATOM     22  C   UNL d   1       6.590   7.809  -8.973  0.00  0.00     0.001 A 
ATOM     23  C   UNL d   1       6.178   6.474  -9.040  0.00  0.00     0.016 A 
ATOM     24  C   UNL d   1       5.952   5.692  -7.878  0.00  0.00     0.031 A 
BRANCH  24  25
ATOM     25  C   UNL d   1       5.425   4.305  -8.128  0.00  0.00     0.200 C 
ATOM     26  O   UNL d   1       5.558   3.864  -9.275  0.00  0.00    -0.286 OA
BRANCH  25  27
ATOM     27  C   UNL d   1       4.804   3.509  -7.090  0.00  0.00     0.055 A 
ATOM     28  C   UNL d   1       3.877   3.858  -6.127  0.00  0.00     0.023 A 
ATOM     29  C   UNL d   1       3.651   2.808  -5.191  0.00  0.00     0.009 A 
ATOM     30  C   UNL d   1       4.353   1.668  -5.513  0.00  0.00     0.050 A 
ATOM     31  S   UNL d   1       5.271   1.859  -6.944  0.00  0.00    -0.098 SA
ENDBRANCH  25  27
ENDBRANCH  24  25
ENDBRANCH   2  19
TORSDOF 6
