REMARK  11 active torsions:
REMARK  status: ('A' for Active; 'I' for Inactive)
REMARK    1  A    between atoms: O_2  and  C_3 
REMARK    2  A    between atoms: C_3  and  C_5 
REMARK    3  A    between atoms: C_10  and  N_11 
REMARK    4  A    between atoms: N_11  and  C_12 
REMARK    5  A    between atoms: C_12  and  N_14 
REMARK    6  A    between atoms: N_14  and  C_15 
REMARK    7  A    between atoms: N_14  and  C_18 
REMARK    8  A    between atoms: C_15  and  C_16 
REMARK    9  A    between atoms: C_16  and  O_17 
REMARK   10  A    between atoms: C_18  and  C_19 
REMARK   11  A    between atoms: C_30  and  O_31 
ROOT
ATOM      1  N   UNL d   1       2.424   2.744  -0.371  0.00  0.00    -0.352 N 
ENDROOT
BRANCH   1   2
ATOM      2  C   UNL d   1       3.051   1.984   0.672  0.00  0.00     0.174 C 
ATOM      3  S   UNL d   1       2.451   1.896   2.241  0.00  0.00    -0.041 SA
BRANCH   2   4
ATOM      4  N   UNL d   1       4.329   1.524   0.307  0.00  0.00    -0.332 N 
ATOM      5  H   UNL d   1       5.014   2.229   0.166  0.00  0.00     0.168 HD
BRANCH   4   6
ATOM      6  C   UNL d   1       5.046   0.402   0.740  0.00  0.00     0.050 A 
ATOM      7  C   UNL d   1       6.459   0.570   0.863  0.00  0.00     0.030 A 
ATOM      8  C   UNL d   1       7.257  -0.474   1.313  0.00  0.00     0.002 A 
ATOM      9  C   UNL d   1       6.643  -1.675   1.645  0.00  0.00     0.001 A 
ATOM     10  C   UNL d   1       5.261  -1.855   1.453  0.00  0.00     0.020 A 
ATOM     11  C   UNL d   1       4.444  -0.823   0.986  0.00  0.00     0.066 A 
BRANCH  11  12
ATOM     12  C   UNL d   1       2.965  -1.050   0.938  0.00  0.00     0.295 C 
ATOM     13  O   UNL d   1       2.385  -1.575   1.858  0.00  0.00    -0.259 OA
BRANCH  12  14
ATOM     14  O   UNL d   1       2.373  -0.556  -0.196  0.00  0.00    -0.322 OA
ATOM     15  C   UNL d   1       0.940  -0.434  -0.118  0.00  0.00     0.213 C 
ENDBRANCH  12  14
ENDBRANCH  11  12
ENDBRANCH   4   6
ENDBRANCH   2   4
ENDBRANCH   1   2
BRANCH   1  16
ATOM     16  C   UNL d   1       3.133   3.959  -0.700  0.00  0.00     0.151 C 
BRANCH  16  17
ATOM     17  C   UNL d   1       4.646   4.087  -0.580  0.00  0.00     0.183 C 
BRANCH  17  18
ATOM     18  O   UNL d   1       5.095   5.375  -0.938  0.00  0.00    -0.399 OA
ATOM     19  H   UNL d   1       5.095   5.406  -1.907  0.00  0.00     0.209 HD
ENDBRANCH  17  18
ENDBRANCH  16  17
ENDBRANCH   1  16
BRANCH   1  20
ATOM     20  C   UNL d   1       0.889   2.775  -0.517  0.00  0.00     0.164 C 
BRANCH  20  21
ATOM     21  C   UNL d   1       0.067   3.969  -1.010  0.00  0.00    -0.004 C 
ATOM     22  C   UNL d   1      -0.940   3.958  -1.959  0.00  0.00     0.047 C 
ATOM     23  C   UNL d   1      -1.399   5.283  -2.373  0.00  0.00     0.040 C 
ATOM     24  C   UNL d   1      -0.590   6.428  -2.792  0.00  0.00    -0.070 C 
ATOM     25  C   UNL d   1      -2.230   5.803  -1.475  0.00  0.00     0.120 C 
ATOM     26  C   UNL d   1       0.903   6.374  -2.818  0.00  0.00     0.044 C 
ATOM     27  C   UNL d   1      -1.058   7.767  -2.688  0.00  0.00     0.010 C 
ATOM     28  C   UNL d   1      -2.397   7.981  -2.557  0.00  0.00    -0.063 C 
ATOM     29  C   UNL d   1      -2.928   9.259  -3.130  0.00  0.00     0.048 C 
ATOM     30  C   UNL d   1      -3.047   6.870  -2.034  0.00  0.00     0.017 C 
ATOM     31  N   UNL d   1      -1.420   5.841  -0.331  0.00  0.00    -0.247 NA
ATOM     32  C   UNL d   1      -0.213   5.067  -0.223  0.00  0.00     0.163 C 
BRANCH  32  33
ATOM     33  O   UNL d   1       0.911   5.809   0.112  0.00  0.00    -0.345 OA
ATOM     34  H   UNL d   1       1.535   5.693  -0.631  0.00  0.00     0.219 HD
ENDBRANCH  32  33
ENDBRANCH  20  21
ENDBRANCH   1  20
TORSDOF 11
