REMARK  7 active torsions:
REMARK  status: ('A' for Active; 'I' for Inactive)
REMARK    1  A    between atoms: C_2  and  C_3 
REMARK       I    between atoms: C_2  and  N_11 
REMARK    2  A    between atoms: C_3  and  C_4 
REMARK    3  A    between atoms: C_4  and  C_5 
REMARK    4  A    between atoms: N_11  and  N_12 
REMARK       I    between atoms: N_12  and  C_13 
REMARK    5  A    between atoms: C_13  and  C_15 
REMARK    6  A    between atoms: C_18  and  N_19 
REMARK       I    between atoms: N_19  and  C_20 
REMARK    7  A    between atoms: C_20  and  C_22 
ROOT
ATOM      1  C   UNL d   1       6.530   1.770   1.785  0.00  0.00     0.033 A 
ATOM      2  C   UNL d   1       7.289   1.861   2.963  0.00  0.00     0.019 A 
ATOM      3  C   UNL d   1       8.697   2.013   2.909  0.00  0.00     0.030 A 
ATOM      4  C   UNL d   1       9.368   2.024   1.677  0.00  0.00     0.035 A 
ATOM      5  C   UNL d   1       8.583   1.957   0.521  0.00  0.00     0.030 A 
ATOM      6  C   UNL d   1       7.191   1.828   0.564  0.00  0.00     0.019 A 
ENDROOT
BRANCH   1   7
ATOM      7  C   UNL d   1       5.038   1.742   1.811  0.00  0.00     0.270 C 
ATOM      8  N   UNL d   1       4.413   0.937   0.866  0.00  0.00    -0.263 N 
ATOM      9  H   UNL d   1       4.938   0.314   0.262  0.00  0.00     0.190 HD
ATOM     10  O   UNL d   1       4.425   2.430   2.630  0.00  0.00    -0.266 OA
BRANCH   8  11
ATOM     11  N   UNL d   1       3.007   0.896   0.838  0.00  0.00    -0.267 N 
ATOM     12  C   UNL d   1       2.239   0.107   0.010  0.00  0.00     0.236 C 
ATOM     13  O   UNL d   1       1.011   0.163   0.067  0.00  0.00    -0.272 OA
ATOM     14  H   UNL d   1       2.520   1.520   1.483  0.00  0.00     0.190 HD
BRANCH  12  15
ATOM     15  C   UNL d   1       2.962  -0.808  -0.958  0.00  0.00     0.109 C 
BRANCH  15  16
ATOM     16  C   UNL d   1       1.986  -1.613  -1.828  0.00  0.00     0.048 C 
BRANCH  16  17
ATOM     17  C   UNL d   1       2.697  -2.555  -2.773  0.00  0.00    -0.058 A 
ATOM     18  C   UNL d   1       2.350  -3.913  -2.800  0.00  0.00     0.007 A 
ATOM     19  C   UNL d   1       3.057  -4.808  -3.605  0.00  0.00     0.001 A 
ATOM     20  C   UNL d   1       4.063  -4.344  -4.450  0.00  0.00     0.000 A 
ATOM     21  C   UNL d   1       4.386  -2.989  -4.466  0.00  0.00     0.001 A 
ATOM     22  C   UNL d   1       3.707  -2.100  -3.632  0.00  0.00     0.007 A 
ENDBRANCH  16  17
ENDBRANCH  15  16
ENDBRANCH  12  15
ENDBRANCH   8  11
ENDBRANCH   1   7
BRANCH   4  23
ATOM     23  N   UNL d   1      10.795   2.076   1.625  0.00  0.00    -0.323 N 
ATOM     24  C   UNL d   1      11.545   2.045   0.452  0.00  0.00     0.256 C 
ATOM     25  O   UNL d   1      11.102   2.016  -0.698  0.00  0.00    -0.267 OA
ATOM     26  H   UNL d   1      11.291   2.115   2.508  0.00  0.00     0.169 HD
BRANCH  24  27
ATOM     27  C   UNL d   1      13.025   2.026   0.542  0.00  0.00     0.032 A 
ATOM     28  C   UNL d   1      13.744   2.747  -0.429  0.00  0.00     0.017 A 
ATOM     29  C   UNL d   1      15.123   2.585  -0.555  0.00  0.00     0.001 A 
ATOM     30  C   UNL d   1      15.800   1.744   0.324  0.00  0.00     0.000 A 
ATOM     31  C   UNL d   1      15.093   1.033   1.297  0.00  0.00     0.001 A 
ATOM     32  C   UNL d   1      13.702   1.161   1.404  0.00  0.00     0.017 A 
ENDBRANCH  24  27
ENDBRANCH   4  23
TORSDOF 7
