REMARK  5 active torsions:
REMARK  status: ('A' for Active; 'I' for Inactive)
REMARK    1  A    between atoms: O_2  and  C_3 
REMARK    2  A    between atoms: C_5  and  O_6 
REMARK    3  A    between atoms: C_8  and  N_9 
REMARK    4  A    between atoms: N_9  and  S_10 
REMARK    5  A    between atoms: S_10  and  C_13 
ROOT
ATOM      1  S   UNL d   1       4.571  -6.556   0.272  0.00  0.00     0.265 S 
ATOM      2  O   UNL d   1       3.245  -6.887   0.745  0.00  0.00    -0.200 OA
ATOM      3  O   UNL d   1       4.861  -6.404  -1.139  0.00  0.00    -0.200 OA
ENDROOT
BRANCH   1   4
ATOM      4  N   UNL d   1       4.955  -5.045   1.027  0.00  0.00    -0.278 N 
ATOM      5  H   UNL d   1       5.856  -5.073   1.476  0.00  0.00     0.179 HD
BRANCH   4   6
ATOM      6  C   UNL d   1       4.394  -3.717   0.731  0.00  0.00     0.077 A 
ATOM      7  C   UNL d   1       4.789  -2.485   1.351  0.00  0.00     0.098 A 
ATOM      8  C   UNL d   1       4.085  -1.275   1.067  0.00  0.00     0.077 A 
ATOM      9  C   UNL d   1       2.971  -1.246   0.214  0.00  0.00     0.092 A 
ATOM     10  C   UNL d   1       2.621  -2.441  -0.418  0.00  0.00     0.069 A 
ATOM     11  C   UNL d   1       3.309  -3.637  -0.140  0.00  0.00     0.059 A 
ATOM     12 CL   UNL d   1       1.407  -2.598  -1.640  0.00  0.00    -0.081 Cl
BRANCH   7  13
ATOM     13  O   UNL d   1       5.789  -2.235   2.276  0.00  0.00    -0.354 OA
ATOM     14  C   UNL d   1       6.643  -3.305   2.586  0.00  0.00     0.210 C 
ENDBRANCH   7  13
BRANCH   9  15
ATOM     15  O   UNL d   1       2.388  -0.018   0.020  0.00  0.00    -0.354 OA
ATOM     16  C   UNL d   1       0.957   0.021   0.044  0.00  0.00     0.210 C 
ENDBRANCH   9  15
ENDBRANCH   4   6
ENDBRANCH   1   4
BRANCH   1  17
ATOM     17  C   UNL d   1       5.763  -7.887   0.960  0.00  0.00     0.104 C 
ATOM     18  C   UNL d   1       5.571  -9.411   1.099  0.00  0.00     0.065 C 
ATOM     19  C   UNL d   1       6.666 -10.247   1.690  0.00  0.00     0.092 C 
ATOM     20  C   UNL d   1       7.788  -9.520   1.753  0.00  0.00     0.050 C 
ATOM     21  O   UNL d   1       7.147 -11.626   2.139  0.00  0.00    -0.341 OA
ATOM     22  C   UNL d   1       7.920  -8.192   1.908  0.00  0.00     0.052 C 
ATOM     23  N   UNL d   1       8.926 -10.207   1.394  0.00  0.00    -0.225 NA
ATOM     24  C   UNL d   1       6.958  -7.366   1.431  0.00  0.00     0.059 C 
ATOM     25 CL   UNL d   1       7.658  -5.833   1.327  0.00  0.00    -0.083 Cl
ATOM     26  C   UNL d   1       9.478 -10.547   2.580  0.00  0.00     0.226 C 
ATOM     27  H   UNL d   1       8.540 -11.080   0.987  0.00  0.00     0.136 HD
ATOM     28  O   UNL d   1      10.277  -9.867   3.244  0.00  0.00    -0.277 OA
ATOM     29  C   UNL d   1       8.764 -11.820   2.842  0.00  0.00     0.272 C 
ENDBRANCH   1  17
TORSDOF 5
