REMARK  9 active torsions:
REMARK  status: ('A' for Active; 'I' for Inactive)
REMARK    1  A    between atoms: C_2  and  O_3 
REMARK    2  A    between atoms: O_3  and  C_4 
REMARK    3  A    between atoms: C_10  and  C_11 
REMARK       I    between atoms: C_11  and  N_13 
REMARK    4  A    between atoms: N_13  and  C_14 
REMARK    5  A    between atoms: C_14  and  N_16 
REMARK    6  A    between atoms: N_16  and  N_17 
REMARK       I    between atoms: N_17  and  C_18 
REMARK    7  A    between atoms: C_18  and  C_20 
REMARK    8  A    between atoms: C_20  and  O_21 
REMARK    9  A    between atoms: O_21  and  C_22 
ROOT
ATOM      1  C   UNL d   1       1.761  -4.141  -2.574  0.00  0.00     0.193 C 
ATOM      2  S   UNL d   1       2.239  -5.414  -3.577  0.00  0.00    -0.039 SA
ENDROOT
BRANCH   1   3
ATOM      3  N   UNL d   1       2.630  -3.394  -1.741  0.00  0.00    -0.298 N 
ATOM      4  C   UNL d   1       4.030  -3.567  -1.590  0.00  0.00     0.260 C 
ATOM      5  O   UNL d   1       4.676  -4.425  -2.197  0.00  0.00    -0.267 OA
ATOM      6  H   UNL d   1       2.227  -2.664  -1.163  0.00  0.00     0.171 HD
BRANCH   4   7
ATOM      7  C   UNL d   1       4.852  -2.693  -0.674  0.00  0.00     0.067 A 
ATOM      8  C   UNL d   1       6.247  -2.959  -0.610  0.00  0.00     0.039 A 
ATOM      9  C   UNL d   1       7.101  -2.200   0.193  0.00  0.00     0.012 A 
ATOM     10  C   UNL d   1       6.591  -1.155   0.949  0.00  0.00     0.022 A 
ATOM     11 BR   UNL d   1       8.951  -2.590   0.270  0.00  0.00    -0.051 Br
ATOM     12  C   UNL d   1       5.220  -0.880   0.903  0.00  0.00     0.039 A 
ATOM     13  C   UNL d   1       4.349  -1.636   0.092  0.00  0.00     0.084 A 
BRANCH  13  14
ATOM     14  O   UNL d   1       2.995  -1.437   0.098  0.00  0.00    -0.350 OA
BRANCH  14  15
ATOM     15  C   UNL d   1       2.588  -0.069   0.007  0.00  0.00     0.171 C 
ATOM     16  C   UNL d   1       1.072  -0.068  -0.007  0.00  0.00     0.034 C 
ENDBRANCH  14  15
ENDBRANCH  13  14
ENDBRANCH   4   7
ENDBRANCH   1   3
BRANCH   1  17
ATOM     17  N   UNL d   1       0.404  -3.765  -2.545  0.00  0.00    -0.273 N 
ATOM     18  H   UNL d   1      -0.002  -3.023  -1.976  0.00  0.00     0.189 HD
BRANCH  17  19
ATOM     19  N   UNL d   1      -0.555  -4.495  -3.376  0.00  0.00    -0.266 N 
ATOM     20  C   UNL d   1      -1.909  -4.169  -3.385  0.00  0.00     0.260 C 
ATOM     21  O   UNL d   1      -2.337  -3.249  -2.686  0.00  0.00    -0.269 OA
ATOM     22  H   UNL d   1      -0.154  -5.245  -3.939  0.00  0.00     0.190 HD
BRANCH  20  23
ATOM     23  C   UNL d   1      -2.820  -5.038  -4.319  0.00  0.00     0.280 C 
BRANCH  23  24
ATOM     24  O   UNL d   1      -4.174  -4.566  -4.270  0.00  0.00    -0.342 OA
BRANCH  24  25
ATOM     25  C   UNL d   1      -5.132  -5.223  -4.998  0.00  0.00     0.070 A 
ATOM     26  C   UNL d   1      -5.255  -6.608  -5.098  0.00  0.00     0.043 A 
ATOM     27  C   UNL d   1      -6.339  -7.184  -5.791  0.00  0.00    -0.059 A 
ATOM     28  C   UNL d   1      -6.475  -8.678  -5.894  0.00  0.00     0.048 C 
ATOM     29  C   UNL d   1      -7.305  -6.356  -6.386  0.00  0.00     0.013 A 
ATOM     30  C   UNL d   1      -7.198  -4.965  -6.290  0.00  0.00    -0.059 A 
ATOM     31  C   UNL d   1      -8.216  -4.057  -6.921  0.00  0.00     0.048 C 
ATOM     32  C   UNL d   1      -6.116  -4.414  -5.582  0.00  0.00     0.043 A 
ENDBRANCH  24  25
ENDBRANCH  23  24
ENDBRANCH  20  23
ENDBRANCH  17  19
ENDBRANCH   1  17
TORSDOF 9
