REMARK  4 active torsions:
REMARK  status: ('A' for Active; 'I' for Inactive)
REMARK    1  A    between atoms: C_2  and  C_3 
REMARK    2  A    between atoms: C_4  and  C_6 
REMARK       I    between atoms: C_6  and  N_8 
REMARK    3  A    between atoms: N_8  and  N_9 
REMARK       I    between atoms: N_9  and  C_10 
REMARK    4  A    between atoms: C_10  and  C_12 
ROOT
ATOM      1  N   UNL d   1       7.718  -0.208  -0.267  0.00  0.00    -0.263 N 
ATOM      2  C   UNL d   1       9.082  -0.059  -0.044  0.00  0.00     0.277 C 
ATOM      3  O   UNL d   1       9.490   0.768   0.779  0.00  0.00    -0.265 OA
ATOM      4  H   UNL d   1       7.330  -0.947  -0.852  0.00  0.00     0.190 HD
ENDROOT
BRANCH   1   5
ATOM      5  N   UNL d   1       6.768   0.554   0.481  0.00  0.00    -0.263 N 
ATOM      6  C   UNL d   1       5.427   0.309   0.258  0.00  0.00     0.265 C 
ATOM      7  O   UNL d   1       5.093  -0.557  -0.553  0.00  0.00    -0.266 OA
ATOM      8  H   UNL d   1       7.143   1.238   1.131  0.00  0.00     0.190 HD
BRANCH   6   9
ATOM      9  C   UNL d   1       4.414   1.136   1.034  0.00  0.00     0.004 C 
ATOM     10  C   UNL d   1       3.084   0.946   0.857  0.00  0.00    -0.015 C 
ATOM     11  C   UNL d   1       4.877   2.183   2.009  0.00  0.00     0.054 C 
BRANCH  10  12
ATOM     12  C   UNL d   1       2.453  -0.053  -0.075  0.00  0.00     0.023 C 
ATOM     13  C   UNL d   1       0.933  -0.036  -0.059  0.00  0.00     0.009 C 
ENDBRANCH  10  12
ENDBRANCH   6   9
ENDBRANCH   1   5
BRANCH   2  14
ATOM     14  C   UNL d   1       9.958  -0.937  -0.827  0.00  0.00     0.080 A 
ATOM     15  S   UNL d   1      11.246  -1.752  -0.025  0.00  0.00    -0.096 SA
ATOM     16  C   UNL d   1      11.744  -2.551  -1.452  0.00  0.00     0.051 A 
ATOM     17  C   UNL d   1      10.992  -2.164  -2.536  0.00  0.00     0.015 A 
ATOM     18  C   UNL d   1       9.968  -1.216  -2.191  0.00  0.00    -0.039 A 
ATOM     19  C   UNL d   1       9.070  -0.597  -3.207  0.00  0.00     0.050 C 
ENDBRANCH   2  14
TORSDOF 4
