@<TRIPOS>MOLECULE
*****
 43 44 0 0 0
SMALL
GASTEIGER

@<TRIPOS>ATOM
      1 O           0.9672   -0.0337   -0.0844 O.2     1  UNL1       -0.2507
      2 C           2.2012   -0.0159   -0.0699 C.2     1  UNL1        0.3227
      3 N           2.9147    1.0751    0.3333 N.am    1  UNL1       -0.2952
      4 C           2.2492    2.3123    0.7350 C.3     1  UNL1        0.0423
      5 C           3.2139    3.4553    1.0969 C.3     1  UNL1        0.1046
      6 O           4.0534    3.7271   -0.0364 O.3     1  UNL1       -0.3869
      7 C           2.4432    4.7281    1.5275 C.3     1  UNL1        0.1169
      8 O           3.3847    5.7762    1.7900 O.3     1  UNL1       -0.4894
      9 C           2.8981    6.9491    2.3001 C.ar    1  UNL1        0.1206
     10 C           3.5959    8.1020    1.9266 C.ar    1  UNL1       -0.0199
     11 C           3.3087    9.3331    2.5219 C.ar    1  UNL1       -0.0583
     12 C           2.2760    9.4307    3.4505 C.ar    1  UNL1       -0.0615
     13 C           1.5557    8.2907    3.8046 C.ar    1  UNL1       -0.0583
     14 C           1.8706    7.0496    3.2375 C.ar    1  UNL1       -0.0199
     15 N           2.8957   -1.1134   -0.4574 N.am    1  UNL1       -0.1781
     16 O           4.2999   -1.1579   -0.4562 O.3     1  UNL1       -0.2740
     17 C           4.7664   -2.4419   -0.9304 C.3     1  UNL1        0.0983
     18 C           6.2786   -2.4661   -0.9155 C.ar    1  UNL1       -0.0197
     19 C           6.9910   -3.6760   -0.8908 C.ar    1  UNL1       -0.0563
     20 C           8.3807   -3.6707   -0.7267 C.ar    1  UNL1       -0.0614
     21 C           9.0774   -2.4636   -0.6799 C.ar    1  UNL1       -0.0617
     22 C           8.3870   -1.2603   -0.7743 C.ar    1  UNL1       -0.0614
     23 C           7.0006   -1.2641   -0.8962 C.ar    1  UNL1       -0.0563
     24 H           3.9240    1.0421    0.2367 H       1  UNL1        0.1504
     25 H           1.5950    2.0784    1.5826 H       1  UNL1        0.0489
     26 H           1.6101    2.6202   -0.1026 H       1  UNL1        0.0489
     27 H           3.8816    3.1451    1.9088 H       1  UNL1        0.0643
     28 H           3.4930    4.1019   -0.7371 H       1  UNL1        0.2100
     29 H           1.8462    4.4899    2.4136 H       1  UNL1        0.0723
     30 H           1.7861    5.0651    0.7174 H       1  UNL1        0.0723
     31 H           4.3792    8.0399    1.1751 H       1  UNL1        0.0654
     32 H           3.9053   10.2084    2.2777 H       1  UNL1        0.0619
     33 H           2.0400   10.3900    3.9045 H       1  UNL1        0.0618
     34 H           0.7683    8.3615    4.5511 H       1  UNL1        0.0619
     35 H           1.3251    6.1793    3.5823 H       1  UNL1        0.0654
     36 H           2.3734   -1.9324   -0.7391 H       1  UNL1        0.1841
     37 H           4.4017   -2.6268   -1.9483 H       1  UNL1        0.0634
     38 H           4.3891   -3.2225   -0.2570 H       1  UNL1        0.0634
     39 H           6.4769   -4.6317   -0.9725 H       1  UNL1        0.0621
     40 H           8.9229   -4.6067   -0.6142 H       1  UNL1        0.0618
     41 H          10.1584   -2.4576   -0.5716 H       1  UNL1        0.0618
     42 H           8.9161   -0.3130   -0.7269 H       1  UNL1        0.0618
     43 H           6.4782   -0.3115   -0.9486 H       1  UNL1        0.0621
@<TRIPOS>BOND
     1     1     2    2
     2     2     3   am
     3     3     4    1
     4     4     5    1
     5     5     6    1
     6     5     7    1
     7     7     8    1
     8     8     9    1
     9     9    10   ar
    10    10    11   ar
    11    11    12   ar
    12    12    13   ar
    13    13    14   ar
    14     9    14   ar
    15     2    15   am
    16    15    16    1
    17    16    17    1
    18    17    18    1
    19    18    19   ar
    20    19    20   ar
    21    20    21   ar
    22    21    22   ar
    23    22    23   ar
    24    18    23   ar
    25     3    24    1
    26     4    25    1
    27     4    26    1
    28     5    27    1
    29     6    28    1
    30     7    29    1
    31     7    30    1
    32    10    31    1
    33    11    32    1
    34    12    33    1
    35    13    34    1
    36    14    35    1
    37    15    36    1
    38    17    37    1
    39    17    38    1
    40    19    39    1
    41    20    40    1
    42    21    41    1
    43    22    42    1
    44    23    43    1
