REMARK  12 active torsions:
REMARK  status: ('A' for Active; 'I' for Inactive)
REMARK    1  A    between atoms: C_2  and  O_3 
REMARK    2  A    between atoms: C_4  and  C_2 
REMARK    3  A    between atoms: C_4  and  C_17 
REMARK    4  A    between atoms: C_4  and  N_5 
REMARK    5  A    between atoms: N_5  and  S_6 
REMARK    6  A    between atoms: S_6  and  C_9 
REMARK    7  A    between atoms: C_17  and  O_19 
REMARK    8  A    between atoms: O_19  and  C_20 
REMARK    9  A    between atoms: C_20  and  C_21 
REMARK       I    between atoms: C_21  and  N_23 
REMARK   10  A    between atoms: N_23  and  C_24 
REMARK   11  A    between atoms: C_24  and  C_25 
REMARK   12  A    between atoms: C_25  and  C_26 
ROOT
ATOM      1  C   UNL d   1       3.204  -0.981   0.948  0.00  0.00     0.199 C 
ENDROOT
BRANCH   1   2
ATOM      2  C   UNL d   1       4.711  -1.238   0.857  0.00  0.00     0.280 C 
ATOM      3  O   UNL d   1       5.371  -1.024  -0.155  0.00  0.00    -0.263 OA
BRANCH   2   4
ATOM      4  O   UNL d   1       5.240  -1.787   1.976  0.00  0.00    -0.311 OA
BRANCH   4   5
ATOM      5  C   UNL d   1       6.671  -1.905   1.900  0.00  0.00     0.281 C 
BRANCH   5   6
ATOM      6  C   UNL d   1       7.169  -2.982   2.854  0.00  0.00     0.241 C 
ATOM      7  O   UNL d   1       6.403  -3.713   3.478  0.00  0.00    -0.271 OA
ATOM      8  N   UNL d   1       8.546  -3.090   2.958  0.00  0.00    -0.359 N 
ATOM      9  H   UNL d   1       9.163  -2.511   2.401  0.00  0.00     0.162 HD
BRANCH   8  10
ATOM     10  C   UNL d   1       9.104  -4.081   3.857  0.00  0.00     0.127 C 
BRANCH  10  11
ATOM     11  C   UNL d   1      10.634  -4.111   3.884  0.00  0.00     0.053 C 
BRANCH  11  12
ATOM     12  C   UNL d   1      11.113  -5.193   4.822  0.00  0.00    -0.082 C 
ATOM     13  C   UNL d   1      10.990  -6.487   4.473  0.00  0.00    -0.024 C 
ATOM     14  C   UNL d   1      11.261  -7.628   5.403  0.00  0.00     0.027 C 
ATOM     15  C   UNL d   1      11.365  -7.183   6.861  0.00  0.00     0.004 C 
ATOM     16  C   UNL d   1      12.228  -5.933   6.988  0.00  0.00     0.005 C 
ATOM     17  C   UNL d   1      11.636  -4.773   6.177  0.00  0.00     0.034 C 
ENDBRANCH  11  12
ENDBRANCH  10  11
ENDBRANCH   8  10
ENDBRANCH   5   6
ENDBRANCH   4   5
ENDBRANCH   2   4
ENDBRANCH   1   2
BRANCH   1  18
ATOM     18  N   UNL d   1       2.822   0.168   0.013  0.00  0.00    -0.199 NA
ATOM     19  H   UNL d   1       2.862  -0.135  -0.964  0.00  0.00     0.141 HD
BRANCH  18  20
ATOM     20  S   UNL d   1       3.675   1.619   0.323  0.00  0.00     0.242 S 
ATOM     21  O   UNL d   1       3.247   2.103   1.609  0.00  0.00    -0.206 OA
ATOM     22  O   UNL d   1       5.083   1.431   0.043  0.00  0.00    -0.206 OA
BRANCH  20  23
ATOM     23  C   UNL d   1       3.136   2.765  -0.910  0.00  0.00     0.076 A 
ATOM     24  C   UNL d   1       1.797   2.858  -1.270  0.00  0.00     0.026 A 
ATOM     25  C   UNL d   1       1.425   3.822  -2.210  0.00  0.00     0.027 A 
ATOM     26  C   UNL d   1       2.383   4.672  -2.788  0.00  0.00     0.055 A 
ATOM     27 CL   UNL d   1       1.832   5.876  -3.896  0.00  0.00    -0.083 Cl
ATOM     28  C   UNL d   1       3.732   4.537  -2.452  0.00  0.00     0.057 A 
ATOM     29 CL   UNL d   1       4.978   5.509  -3.150  0.00  0.00    -0.083 Cl
ATOM     30  C   UNL d   1       4.107   3.582  -1.511  0.00  0.00     0.050 A 
ENDBRANCH  20  23
ENDBRANCH  18  20
ENDBRANCH   1  18
BRANCH   1  31
ATOM     31  C   UNL d   1       2.448  -2.271   0.532  0.00  0.00     0.142 C 
ATOM     32  C   UNL d   1       2.345  -3.282   1.675  0.00  0.00     0.041 C 
BRANCH  31  33
ATOM     33  O   UNL d   1       3.015  -2.882  -0.633  0.00  0.00    -0.394 OA
ATOM     34  H   UNL d   1       3.709  -3.513  -0.365  0.00  0.00     0.210 HD
ENDBRANCH  31  33
ENDBRANCH   1  31
TORSDOF 12
