REMARK  5 active torsions:
REMARK  status: ('A' for Active; 'I' for Inactive)
REMARK    1  A    between atoms: C_8  and  C_9 
REMARK    2  A    between atoms: C_9  and  C_10 
REMARK    3  A    between atoms: C_10  and  N_11 
REMARK       I    between atoms: N_11  and  C_12 
REMARK    4  A    between atoms: C_12  and  C_14 
REMARK    5  A    between atoms: N_17  and  C_18 
ROOT
ATOM      1  N   UNL d   1       5.978  -6.067   0.176  0.00  0.00    -0.360 N 
ATOM      2  C   UNL d   1       7.016  -6.971   0.196  0.00  0.00     0.221 C 
ATOM      3  O   UNL d   1       8.171  -6.521   0.191  0.00  0.00    -0.273 OA
ATOM      4  H   UNL d   1       5.017  -6.370   0.079  0.00  0.00     0.162 HD
ENDROOT
BRANCH   2   5
ATOM      5  C   UNL d   1       6.827  -8.504   0.037  0.00  0.00     0.081 C 
ATOM      6  C   UNL d   1       6.270  -9.562   0.996  0.00  0.00     0.033 C 
ATOM      7  C   UNL d   1       6.844 -11.011   0.494  0.00  0.00     0.120 C 
ATOM      8  N   UNL d   1       6.720 -11.348  -0.955  0.00  0.00    -0.388 N 
ATOM      9  C   UNL d   1       6.882 -10.210  -1.835  0.00  0.00     0.120 C 
ATOM     10  C   UNL d   1       6.301  -8.860  -1.346  0.00  0.00     0.033 C 
BRANCH   8  11
ATOM     11  C   UNL d   1       6.974 -12.741  -1.559  0.00  0.00     0.228 C 
ATOM     12  N   UNL d   1       8.086 -13.491  -2.392  0.00  0.00    -0.260 NA
ATOM     13  C   UNL d   1       7.461 -14.672  -2.997  0.00  0.00     0.046 C 
ATOM     14  H   UNL d   1       8.682 -12.999  -3.054  0.00  0.00     0.130 HD
ATOM     15  C   UNL d   1       8.037 -15.877  -3.442  0.00  0.00     0.028 C 
ATOM     16  C   UNL d   1       6.068 -14.671  -2.965  0.00  0.00     0.117 C 
ATOM     17  C   UNL d   1       7.228 -17.044  -3.412  0.00  0.00     0.021 C 
ATOM     18  C   UNL d   1       5.858 -16.914  -3.223  0.00  0.00     0.118 C 
ATOM     19  N   UNL d   1       5.247 -15.727  -3.101  0.00  0.00    -0.252 NA
ATOM     20  S   UNL d   1       5.419 -13.114  -2.491  0.00  0.00    -0.068 SA
ENDBRANCH   8  11
ENDBRANCH   2   5
BRANCH   1  21
ATOM     21  C   UNL d   1       6.316  -4.641   0.108  0.00  0.00     0.127 C 
BRANCH  21  22
ATOM     22  C   UNL d   1       5.110  -3.703   0.089  0.00  0.00     0.056 C 
BRANCH  22  23
ATOM     23  C   UNL d   1       5.457  -2.240   0.083  0.00  0.00    -0.048 A 
ATOM     24  C   UNL d   1       4.574  -1.232   0.082  0.00  0.00    -0.005 A 
ATOM     25  C   UNL d   1       5.392  -0.002   0.081  0.00  0.00     0.038 A 
ATOM     26  C   UNL d   1       3.154  -1.184   0.083  0.00  0.00     0.020 A 
ATOM     27  C   UNL d   1       4.667   1.292   0.080  0.00  0.00     0.030 A 
ATOM     28  N   UNL d   1       6.625  -0.249   0.081  0.00  0.00    -0.385 N 
ATOM     29  C   UNL d   1       3.321   1.254   0.080  0.00  0.00     0.009 A 
ATOM     30  C   UNL d   1       2.539   0.014   0.082  0.00  0.00    -0.061 A 
ATOM     31  C   UNL d   1       1.039   0.078   0.081  0.00  0.00     0.048 C 
ATOM     32  C   UNL d   1       6.865  -1.710   0.080  0.00  0.00     0.155 A 
ATOM     33  H   UNL d   1       7.360   0.471   0.080  0.00  0.00     0.160 HD
ENDBRANCH  22  23
ENDBRANCH  21  22
ENDBRANCH   1  21
TORSDOF 5
