@<TRIPOS>MOLECULE
*****
 58 62 0 0 0
SMALL
GASTEIGER

@<TRIPOS>ATOM
      1 C           1.1479   -8.4320  -15.0577 C.3     1  UNL1        0.0820
      2 O           0.9767   -7.2708  -14.2289 O.3     1  UNL1       -0.4646
      3 C           0.0972   -6.3680  -14.7123 C.2     1  UNL1        0.3375
      4 O          -0.5193   -6.4865  -15.7893 O.2     1  UNL1       -0.2452
      5 C          -0.0813   -5.2474  -13.7720 C.2     1  UNL1        0.0670
      6 C          -1.2904   -4.6922  -13.5238 C.2     1  UNL1       -0.0441
      7 C          -2.6435   -5.0648  -14.0809 C.3     1  UNL1       -0.0298
      8 C          -3.3352   -3.8303  -14.6774 C.3     1  UNL1       -0.0493
      9 C          -3.3682   -2.6689  -13.6824 C.3     1  UNL1       -0.0515
     10 C          -1.9488   -2.2781  -13.3034 C.3     1  UNL1       -0.0373
     11 C          -1.2771   -3.4731  -12.6412 C.3     1  UNL1        0.0291
     12 S           0.4348   -3.0373  -12.3813 S.3     1  UNL1       -0.1257
     13 C           1.1170   -4.5239  -13.2081 C.3     1  UNL1        0.1034
     14 N           1.8646   -5.2821  -12.2082 N.am    1  UNL1       -0.2831
     15 C           2.9734   -4.7042  -11.6036 C.2     1  UNL1        0.3049
     16 O           3.3407   -3.5653  -11.8797 O.2     1  UNL1       -0.2525
     17 N           3.6607   -5.4938  -10.6858 N.am    1  UNL1       -0.2695
     18 C           4.8247   -4.9792   -9.9787 C.ar    1  UNL1        0.0348
     19 C           5.9895   -5.7041   -9.7773 C.ar    1  UNL1       -0.0400
     20 C           7.1245   -5.1343   -9.0342 C.ar    1  UNL1       -0.0502
     21 C           7.2612   -3.7407   -8.5792 C.ar    1  UNL1        0.0240
     22 C           8.6207   -3.0432   -7.7212 C.3     1  UNL1        0.1985
     23 C          10.1891   -2.2490   -8.0381 C.2     1  UNL1        0.0013
     24 C          11.0086   -2.9399   -8.8662 C.ar    1  UNL1        0.0497
     25 C          12.2306   -3.1806   -9.6381 C.ar    1  UNL1       -0.0300
     26 C          11.9855   -3.8045  -10.8270 C.ar    1  UNL1        0.0419
     27 CL         13.0903   -3.8756  -12.1458 Cl      1  UNL1       -0.0835
     28 C          10.6516   -4.2860  -11.1327 C.ar    1  UNL1       -0.0372
     29 C           9.7262   -4.3863  -10.1774 C.ar    1  UNL1        0.0112
     30 C          10.1357   -4.0902   -8.8028 C.ar    1  UNL1        0.2089
     31 N           9.4747   -4.2428   -7.7044 N.2     1  UNL1       -0.2304
     32 C           6.0050   -3.1162   -8.6910 C.ar    1  UNL1       -0.0502
     33 C           4.8437   -3.7126   -9.3740 C.ar    1  UNL1       -0.0400
     34 H           1.8859   -9.0838  -14.5817 H       1  UNL1        0.0661
     35 H           1.5251   -8.1536  -16.0477 H       1  UNL1        0.0661
     36 H           0.2089   -8.9900  -15.1482 H       1  UNL1        0.0661
     37 H          -3.2634   -5.4767  -13.2749 H       1  UNL1        0.0311
     38 H          -2.5909   -5.8376  -14.8512 H       1  UNL1        0.0311
     39 H          -4.3568   -4.0820  -14.9789 H       1  UNL1        0.0268
     40 H          -2.7992   -3.5160  -15.5833 H       1  UNL1        0.0268
     41 H          -3.9109   -2.9719  -12.7784 H       1  UNL1        0.0266
     42 H          -3.8866   -1.8066  -14.1101 H       1  UNL1        0.0266
     43 H          -1.9614   -1.4157  -12.6254 H       1  UNL1        0.0279
     44 H          -1.4057   -1.9671  -14.2086 H       1  UNL1        0.0279
     45 H          -1.7389   -3.6941  -11.6720 H       1  UNL1        0.0458
     46 H           1.7777   -4.1872  -14.0158 H       1  UNL1        0.0668
     47 H           1.5785   -6.2360  -12.0523 H       1  UNL1        0.1516
     48 H           3.5060   -6.4921  -10.7530 H       1  UNL1        0.1564
     49 H           6.0820   -6.6931  -10.2380 H       1  UNL1        0.0636
     50 H           7.9175   -5.8744   -8.8803 H       1  UNL1        0.0623
     51 H           8.2721   -2.8116   -6.7082 H       1  UNL1        0.1166
     52 H          10.7469   -1.6396   -7.2943 H       1  UNL1        0.0649
     53 H          13.2528   -2.8587   -9.4305 H       1  UNL1        0.0640
     54 H          10.3334   -4.5203  -12.1393 H       1  UNL1        0.0634
     55 H           8.6996   -4.4434  -10.4753 H       1  UNL1        0.0684
     56 H           9.9298   -4.0580   -6.7927 H       1  UNL1        0.4466
     57 H           5.7998   -2.1764   -8.1892 H       1  UNL1        0.0623
     58 H           3.9016   -3.1580   -9.3812 H       1  UNL1        0.0636
@<TRIPOS>UNITY_ATOM_ATTR
31 1
charge 1
@<TRIPOS>BOND
     1     1     2    1
     2     2     3    1
     3     3     4    2
     4     3     5    1
     5     5     6    2
     6     6     7    1
     7     7     8    1
     8     8     9    1
     9     9    10    1
    10    10    11    1
    11     6    11    1
    12    11    12    1
    13    12    13    1
    14     5    13    1
    15    13    14    1
    16    14    15   am
    17    15    16    2
    18    15    17   am
    19    17    18    1
    20    18    19   ar
    21    19    20   ar
    22    20    21   ar
    23    22    23    1
    24    23    24    2
    25    24    25   ar
    26    25    26   ar
    27    26    27    1
    28    26    28   ar
    29    28    29   ar
    30    29    30   ar
    31    24    30   ar
    32    30    31    2
    33    22    31    1
    34    21    32   ar
    35    32    33   ar
    36    18    33   ar
    37    22    21    1
    38     1    34    1
    39     1    35    1
    40     1    36    1
    41     7    37    1
    42     7    38    1
    43     8    39    1
    44     8    40    1
    45     9    41    1
    46     9    42    1
    47    10    43    1
    48    10    44    1
    49    11    45    1
    50    13    46    1
    51    14    47    1
    52    17    48    1
    53    19    49    1
    54    20    50    1
    55    22    51    1
    56    23    52    1
    57    25    53    1
    58    28    54    1
    59    29    55    1
    60    31    56    1
    61    32    57    1
    62    33    58    1
