REMARK  7 active torsions:
REMARK  status: ('A' for Active; 'I' for Inactive)
REMARK    1  A    between atoms: C_2  and  S_6 
REMARK    2  A    between atoms: C_2  and  C_3 
REMARK    3  A    between atoms: S_6  and  C_7 
REMARK    4  A    between atoms: C_12  and  N_13 
REMARK       I    between atoms: N_13  and  C_14 
REMARK       I    between atoms: C_14  and  N_16 
REMARK    5  A    between atoms: N_16  and  C_17 
REMARK    6  A    between atoms: C_17  and  C_18 
REMARK    7  A    between atoms: C_23  and  O_24 
ROOT
ATOM      1  C   UNL d   1       1.045  -0.050   0.074  0.00  0.00     0.123 C 
ATOM      2  C   UNL d   1       0.709   0.330   1.507  0.00  0.00    -0.019 C 
ATOM      3  N   UNL d   1       0.430   0.645   2.696  0.00  0.00    -0.102 N 
ENDROOT
BRANCH   1   4
ATOM      4  C   UNL d   1       2.486  -0.589  -0.314  0.00  0.00     0.060 C 
ATOM      5  C   UNL d   1       3.129   0.583  -0.927  0.00  0.00     0.022 C 
BRANCH   4   6
ATOM      6  S   UNL d   1       3.229  -1.430   1.156  0.00  0.00    -0.122 SA
BRANCH   6   7
ATOM      7  C   UNL d   1       4.926  -0.909   1.431  0.00  0.00     0.027 C 
ATOM      8  C   UNL d   1       5.691  -1.998   1.965  0.00  0.00     0.021 C 
ATOM      9  C   UNL d   1       7.066  -1.915   2.172  0.00  0.00     0.002 C 
ATOM     10  C   UNL d   1       7.726  -0.784   1.728  0.00  0.00     0.002 C 
ATOM     11  C   UNL d   1       6.990   0.314   1.231  0.00  0.00     0.031 C 
ATOM     12  C   UNL d   1       5.571   0.333   1.195  0.00  0.00     0.053 C 
BRANCH  12  13
ATOM     13  N   UNL d   1       4.952   1.635   0.893  0.00  0.00    -0.308 N 
ATOM     14  C   UNL d   1       3.681   2.095   1.396  0.00  0.00     0.321 C 
ATOM     15  O   UNL d   1       3.147   1.581   2.333  0.00  0.00    -0.247 OA
ATOM     16  N   UNL d   1       2.995   2.997   0.438  0.00  0.00    -0.339 N 
ATOM     17  H   UNL d   1       3.567   3.210  -0.363  0.00  0.00     0.164 HD
ATOM     18  H   UNL d   1       5.552   2.284   0.410  0.00  0.00     0.170 HD
BRANCH  16  19
ATOM     19  C   UNL d   1       1.445   2.829  -0.017  0.00  0.00     0.165 C 
BRANCH  19  20
ATOM     20  C   UNL d   1       0.828   3.838  -0.932  0.00  0.00    -0.007 A 
ATOM     21  C   UNL d   1       1.423   5.067  -0.798  0.00  0.00     0.011 A 
ATOM     22  C   UNL d   1       0.853   6.162  -1.379  0.00  0.00     0.001 A 
ATOM     23  C   UNL d   1      -0.262   6.017  -2.203  0.00  0.00     0.003 A 
ATOM     24  C   UNL d   1      -0.841   4.765  -2.437  0.00  0.00     0.037 A 
ATOM     25  C   UNL d   1      -0.299   3.656  -1.792  0.00  0.00     0.073 A 
BRANCH  25  26
ATOM     26  O   UNL d   1      -0.865   2.421  -2.010  0.00  0.00    -0.360 OA
ATOM     27  H   UNL d   1      -1.601   2.493  -2.654  0.00  0.00     0.217 HD
ENDBRANCH  25  26
ENDBRANCH  19  20
ENDBRANCH  16  19
ENDBRANCH  12  13
ENDBRANCH   6   7
ENDBRANCH   4   6
ENDBRANCH   1   4
TORSDOF 7
