@<TRIPOS>MOLECULE
*****
 47 47 0 0 0
SMALL
GASTEIGER

@<TRIPOS>ATOM
      1 C           5.9963   -7.2377   -0.8786 C.3     1  UNL1       -0.0653
      2 C           5.0428   -6.0673   -1.1200 C.3     1  UNL1       -0.0558
      3 C           5.3948   -4.9868   -0.1275 C.3     1  UNL1       -0.0512
      4 C           4.6553   -3.6604   -0.2088 C.3     1  UNL1       -0.0259
      5 C           5.2661   -2.5814    0.7510 C.3     1  UNL1        0.1008
      6 N           4.7095   -1.2594    0.3513 N.am    1  UNL1       -0.2883
      7 C           5.1952   -0.0129    0.1657 C.2     1  UNL1        0.2976
      8 N           6.4886    0.2533    0.3808 N.am    1  UNL1       -0.3133
      9 O           4.4383    0.8862   -0.1827 O.2     1  UNL1       -0.2531
     10 C           6.8248   -2.6884    0.8123 C.2     1  UNL1        0.2335
     11 O           7.5791   -1.8909    0.2411 O.2     1  UNL1       -0.2738
     12 N           7.4185   -3.7555    1.4489 N.am    1  UNL1       -0.3123
     13 C           8.8492   -3.9076    1.2507 C.3     1  UNL1        0.0271
     14 C           9.3603   -5.3003    1.5829 C.3     1  UNL1        0.0247
     15 N          10.8045   -5.2999    1.6676 N.pl3   1  UNL1       -0.3423
     16 C          11.5351   -6.4517    1.8639 C.ar    1  UNL1        0.0276
     17 C          12.7012   -6.3732    2.6342 C.ar    1  UNL1       -0.0344
     18 C          13.5054   -7.4944    2.8455 C.ar    1  UNL1        0.0173
     19 C          13.0999   -8.7316    2.3376 C.ar    1  UNL1        0.2733
     20 N          13.8729   -9.9367    2.6558 N.pl3   1  UNL1        0.0796
     21 O          14.8843   -9.8039    3.3596 O.2     1  UNL1        0.0414
     22 O          13.4561  -11.0202    2.2216 O.co2   1  UNL1       -0.5760
     23 C          11.9300   -8.8367    1.5794 C.ar    1  UNL1        0.0173
     24 C          11.1505   -7.6978    1.3584 C.ar    1  UNL1       -0.0344
     25 H           5.8065   -8.0418   -1.5901 H       1  UNL1        0.0230
     26 H           5.8845   -7.6313    0.1387 H       1  UNL1        0.0230
     27 H           7.0433   -6.9243   -0.9887 H       1  UNL1        0.0230
     28 H           4.0034   -6.3798   -1.0017 H       1  UNL1        0.0263
     29 H           5.1870   -5.6845   -2.1355 H       1  UNL1        0.0263
     30 H           6.4442   -4.7909   -0.3525 H       1  UNL1        0.0266
     31 H           5.2887   -5.3864    0.8883 H       1  UNL1        0.0266
     32 H           3.5930   -3.8193    0.0290 H       1  UNL1        0.0288
     33 H           4.6797   -3.2955   -1.2433 H       1  UNL1        0.0288
     34 H           4.8724   -2.7759    1.7583 H       1  UNL1        0.0595
     35 H           3.7017   -1.2259    0.2589 H       1  UNL1        0.1510
     36 H           7.1747   -0.4925    0.3640 H       1  UNL1        0.1465
     37 H           6.8488    1.1224    0.0136 H       1  UNL1        0.1465
     38 H           6.8868   -4.5771    1.7047 H       1  UNL1        0.1488
     39 H           9.3261   -3.1424    1.8717 H       1  UNL1        0.0477
     40 H           9.1042   -3.6785    0.2044 H       1  UNL1        0.0477
     41 H           8.9878   -5.9991    0.8249 H       1  UNL1        0.0476
     42 H           8.9505   -5.6050    2.5511 H       1  UNL1        0.0476
     43 H          11.3189   -4.4730    1.3752 H       1  UNL1        0.1461
     44 H          12.9680   -5.4315    3.1112 H       1  UNL1        0.0638
     45 H          14.4269   -7.3845    3.4116 H       1  UNL1        0.0686
     46 H          11.6123   -9.7852    1.1524 H       1  UNL1        0.0686
     47 H          10.2534   -7.7987    0.7543 H       1  UNL1        0.0638
@<TRIPOS>UNITY_ATOM_ATTR
20 1
charge 1
22 1
charge -1
@<TRIPOS>BOND
     1     1     2    1
     2     2     3    1
     3     3     4    1
     4     6     7   am
     5     7     8   am
     6     7     9    2
     7     5    10    1
     8    10    11    2
     9    10    12   am
    10    12    13    1
    11    13    14    1
    12    14    15    1
    13    15    16    1
    14    16    17   ar
    15    17    18   ar
    16    18    19   ar
    17    19    20    1
    18    20    21    2
    19    20    22    1
    20    19    23   ar
    21    23    24   ar
    22    16    24   ar
    23     5     6    1
    24     5     4    1
    25     1    25    1
    26     1    26    1
    27     1    27    1
    28     2    28    1
    29     2    29    1
    30     3    30    1
    31     3    31    1
    32     4    32    1
    33     4    33    1
    34     5    34    1
    35     6    35    1
    36     8    36    1
    37     8    37    1
    38    12    38    1
    39    13    39    1
    40    13    40    1
    41    14    41    1
    42    14    42    1
    43    15    43    1
    44    17    44    1
    45    18    45    1
    46    23    46    1
    47    24    47    1
