REMARK  11 active torsions:
REMARK  status: ('A' for Active; 'I' for Inactive)
REMARK    1  A    between atoms: O_2  and  C_3 
REMARK    2  A    between atoms: C_8  and  N_9 
REMARK    3  A    between atoms: N_9  and  C_10 
REMARK    4  A    between atoms: C_10  and  N_12 
REMARK    5  A    between atoms: N_12  and  C_13 
REMARK    6  A    between atoms: N_12  and  C_16 
REMARK    7  A    between atoms: C_13  and  C_14 
REMARK    8  A    between atoms: C_14  and  O_15 
REMARK    9  A    between atoms: C_16  and  C_17 
REMARK   10  A    between atoms: C_21  and  O_22 
REMARK   11  A    between atoms: C_24  and  O_25 
ROOT
ATOM      1  N   UNL d   1      -0.582  -2.227  -0.463  0.00  0.00    -0.352 N 
ENDROOT
BRANCH   1   2
ATOM      2  C   UNL d   1       0.829  -2.023  -0.662  0.00  0.00     0.174 C 
ATOM      3  S   UNL d   1       1.485  -1.455  -2.101  0.00  0.00    -0.041 SA
BRANCH   2   4
ATOM      4  N   UNL d   1       1.578  -2.300   0.505  0.00  0.00    -0.331 N 
ATOM      5  H   UNL d   1       1.446  -3.168   0.964  0.00  0.00     0.168 HD
BRANCH   4   6
ATOM      6  C   UNL d   1       2.755  -1.764   1.044  0.00  0.00     0.068 C 
ATOM      7  C   UNL d   1       3.552  -2.654   1.832  0.00  0.00     0.032 C 
ATOM      8  C   UNL d   1       4.782  -2.251   2.346  0.00  0.00     0.002 C 
ATOM      9  C   UNL d   1       5.211  -0.959   2.085  0.00  0.00     0.003 C 
ATOM     10  C   UNL d   1       4.368  -0.060   1.417  0.00  0.00     0.039 C 
ATOM     11  C   UNL d   1       3.122  -0.437   0.912  0.00  0.00     0.095 C 
BRANCH  11  12
ATOM     12  O   UNL d   1       2.443   0.559   0.278  0.00  0.00    -0.354 OA
ATOM     13  C   UNL d   1       1.042   0.715   0.471  0.00  0.00     0.210 C 
ENDBRANCH  11  12
ENDBRANCH   4   6
ENDBRANCH   2   4
ENDBRANCH   1   2
BRANCH   1  14
ATOM     14  C   UNL d   1      -0.984  -3.546  -0.044  0.00  0.00     0.151 C 
BRANCH  14  15
ATOM     15  C   UNL d   1      -0.074  -4.463   0.739  0.00  0.00     0.183 C 
BRANCH  15  16
ATOM     16  O   UNL d   1      -0.605  -5.741   0.994  0.00  0.00    -0.399 OA
ATOM     17  H   UNL d   1      -1.422  -5.604   1.498  0.00  0.00     0.209 HD
ENDBRANCH  15  16
ENDBRANCH  14  15
ENDBRANCH   1  14
BRANCH   1  18
ATOM     18  C   UNL d   1      -1.661  -1.402  -1.172  0.00  0.00     0.169 C 
BRANCH  18  19
ATOM     19  C   UNL d   1      -3.044  -1.992  -1.513  0.00  0.00     0.023 C 
ATOM     20  C   UNL d   1      -3.898  -1.402  -2.393  0.00  0.00     0.027 C 
ATOM     21  C   UNL d   1      -5.220  -2.013  -2.676  0.00  0.00    -0.011 A 
ATOM     22  C   UNL d   1      -5.887  -1.934  -3.894  0.00  0.00     0.053 A 
ATOM     23  C   UNL d   1      -5.819  -2.722  -1.626  0.00  0.00     0.028 A 
ATOM     24  C   UNL d   1      -7.155  -2.532  -4.042  0.00  0.00     0.102 A 
ATOM     25  C   UNL d   1      -7.694  -3.325  -3.000  0.00  0.00     0.103 A 
ATOM     26  C   UNL d   1      -7.036  -3.386  -1.772  0.00  0.00     0.064 A 
ATOM     27  N   UNL d   1      -5.028  -2.885  -0.469  0.00  0.00    -0.224 NA
ATOM     28  C   UNL d   1      -3.724  -3.140  -0.826  0.00  0.00     0.233 C 
ATOM     29  H   UNL d   1      -5.396  -3.507   0.236  0.00  0.00     0.137 HD
ATOM     30  O   UNL d   1      -3.297  -4.293  -0.692  0.00  0.00    -0.274 OA
BRANCH  24  31
ATOM     31  O   UNL d   1      -7.767  -2.247  -5.244  0.00  0.00    -0.353 OA
ATOM     32  C   UNL d   1      -9.141  -2.614  -5.374  0.00  0.00     0.210 C 
ENDBRANCH  24  31
BRANCH  25  33
ATOM     33  O   UNL d   1      -8.826  -4.036  -3.281  0.00  0.00    -0.353 OA
ATOM     34  C   UNL d   1      -9.393  -4.904  -2.321  0.00  0.00     0.210 C 
ENDBRANCH  25  33
ENDBRANCH  18  19
ENDBRANCH   1  18
TORSDOF 11
