REMARK  7 active torsions:
REMARK  status: ('A' for Active; 'I' for Inactive)
REMARK    1  A    between atoms: C_2  and  C_3 
REMARK       I    between atoms: C_2  and  N_15 
REMARK    2  A    between atoms: C_3  and  N_4 
REMARK    3  A    between atoms: C_6  and  C_7 
REMARK    4  A    between atoms: N_15  and  C_16 
REMARK    5  A    between atoms: C_17  and  C_16 
REMARK    6  A    between atoms: C_17  and  C_27 
REMARK    7  A    between atoms: C_17  and  C_18 
ROOT
ATOM      1  C   UNL d   1       4.478   0.557  -3.612  0.00  0.00     0.136 C 
ENDROOT
BRANCH   1   2
ATOM      2  N   UNL d   1       5.267   1.739  -3.809  0.00  0.00    -0.359 N 
ATOM      3  C   UNL d   1       5.022   2.789  -4.625  0.00  0.00     0.237 C 
ATOM      4  O   UNL d   1       6.027   3.479  -4.786  0.00  0.00    -0.272 OA
ATOM      5  H   UNL d   1       6.266   1.710  -3.611  0.00  0.00     0.162 HD
BRANCH   3   6
ATOM      6  C   UNL d   1       3.635   2.999  -5.275  0.00  0.00     0.251 C 
BRANCH   6   7
ATOM      7  N   UNL d   1       3.408   4.226  -6.047  0.00  0.00    -0.247 N 
ATOM      8  N   UNL d   1       4.100   4.499  -7.251  0.00  0.00    -0.199 NA
ATOM      9  C   UNL d   1       4.282   5.966  -7.163  0.00  0.00     0.265 C 
ATOM     10  H   UNL d   1       3.406   4.369  -7.994  0.00  0.00     0.150 HD
ATOM     11  O   UNL d   1       3.249   6.449  -6.298  0.00  0.00    -0.275 OA
ATOM     12  C   UNL d   1       2.837   5.380  -5.544  0.00  0.00     0.379 C 
ATOM     13  O   UNL d   1       2.086   5.466  -4.588  0.00  0.00    -0.237 OA
BRANCH   9  14
ATOM     14  C   UNL d   1       5.619   6.298  -6.530  0.00  0.00     0.027 C 
ATOM     15  C   UNL d   1       6.001   6.036  -5.230  0.00  0.00     0.019 C 
ATOM     16  C   UNL d   1       7.396   6.142  -5.015  0.00  0.00     0.008 C 
ATOM     17  C   UNL d   1       8.004   6.792  -6.059  0.00  0.00     0.050 C 
ATOM     18  S   UNL d   1       6.918   7.034  -7.375  0.00  0.00    -0.102 SA
ENDBRANCH   9  14
ENDBRANCH   6   7
ENDBRANCH   3   6
ENDBRANCH   1   2
BRANCH   1  19
ATOM     19  C   UNL d   1       5.101  -0.445  -2.587  0.00  0.00     0.069 C 
BRANCH  19  20
ATOM     20  C   UNL d   1       6.639  -0.541  -2.596  0.00  0.00    -0.026 C 
ATOM     21  C   UNL d   1       7.423  -0.010  -1.545  0.00  0.00     0.009 C 
ATOM     22  C   UNL d   1       8.778   0.261  -1.682  0.00  0.00     0.001 C 
ATOM     23  C   UNL d   1       9.445  -0.232  -2.782  0.00  0.00     0.002 C 
ATOM     24  C   UNL d   1       8.743  -0.967  -3.738  0.00  0.00     0.024 C 
ATOM     25  C   UNL d   1       7.346  -1.062  -3.687  0.00  0.00     0.041 C 
ATOM     26 CL   UNL d   1       6.542  -1.816  -5.013  0.00  0.00    -0.084 Cl
ENDBRANCH  19  20
BRANCH  19  27
ATOM     27  C   UNL d   1       4.540  -0.098  -1.232  0.00  0.00    -0.040 A 
ATOM     28  C   UNL d   1       4.719   1.033  -0.535  0.00  0.00    -0.005 A 
ATOM     29  C   UNL d   1       5.484   2.221  -0.753  0.00  0.00     0.014 A 
ATOM     30  C   UNL d   1       4.079   0.773   0.761  0.00  0.00     0.038 A 
ATOM     31  C   UNL d   1       5.625   3.104   0.238  0.00  0.00     0.001 A 
ATOM     32  C   UNL d   1       4.966   2.899   1.510  0.00  0.00     0.002 A 
ATOM     33  C   UNL d   1       4.225   1.810   1.801  0.00  0.00     0.030 A 
ATOM     34  N   UNL d   1       3.504  -0.370   0.795  0.00  0.00    -0.385 N 
ATOM     35  C   UNL d   1       3.707  -1.089  -0.480  0.00  0.00     0.155 A 
ATOM     36  H   UNL d   1       3.002  -0.724   1.607  0.00  0.00     0.160 HD
ENDBRANCH  19  27
ENDBRANCH   1  19
TORSDOF 7
