@<TRIPOS>MOLECULE
*****
 50 52 0 0 0
SMALL
GASTEIGER

@<TRIPOS>ATOM
      1 C           0.9845    0.1040    0.0328 C.2     1  UNL1       -0.1010
      2 C           2.3228    0.1234    0.0752 C.2     1  UNL1       -0.0715
      3 C           3.0747    0.2879    1.3631 C.3     1  UNL1        0.0447
      4 N           4.4994    0.2237    1.1028 N.ar    1  UNL1       -0.3030
      5 C           5.3666    1.2545    0.9529 C.ar    1  UNL1        0.1380
      6 C           4.9205    2.6985    1.0243 C.3     1  UNL1        0.0503
      7 C           6.0440    3.6407    0.7402 C.ar    1  UNL1        0.0578
      8 C           6.7947    3.6801   -0.4223 C.ar    1  UNL1        0.0006
      9 S           8.0386    4.8474   -0.2826 S.2     1  UNL1       -0.0602
     10 C           7.4779    5.2222    1.2862 C.ar    1  UNL1        0.1648
     11 N           8.2035    6.1902    1.9286 N.am    1  UNL1       -0.2607
     12 C           7.8930    6.5760    3.2169 C.2     1  UNL1        0.2497
     13 O           7.0062    6.1226    3.9316 O.2     1  UNL1       -0.2698
     14 C           8.6900    7.6986    3.7804 C.ar    1  UNL1        0.0388
     15 C           8.9691    7.7679    5.1413 C.ar    1  UNL1       -0.0495
     16 C           9.4673    8.9597    5.6788 C.ar    1  UNL1       -0.0593
     17 C           9.7452   10.0650    4.8479 C.ar    1  UNL1       -0.0403
     18 C           9.4860    9.9946    3.4719 C.ar    1  UNL1        0.0372
     19 N           9.6807   11.1170    2.6138 N.am    1  UNL1       -0.2511
     20 C           9.3853   11.1265    1.2586 C.2     1  UNL1        0.4045
     21 O           8.9456   10.1804    0.6058 O.2     1  UNL1       -0.2261
     22 O           9.6360   12.3263    0.6547 O.3     1  UNL1       -0.4504
     23 C           9.3188   12.2627   -0.7565 C.3     1  UNL1        0.0913
     24 C           9.6130   13.5826   -1.4337 C.3     1  UNL1       -0.0305
     25 C           8.9693    8.7951    2.9712 C.ar    1  UNL1       -0.0283
     26 N           6.4313    4.5558    1.7033 N.ar    1  UNL1       -0.2291
     27 N           6.5964    0.8767    0.7220 N.ar    1  UNL1       -0.1582
     28 N           6.5481   -0.4807    0.7191 N.ar    1  UNL1       -0.2543
     29 C           5.2574   -0.9140    0.9610 C.ar    1  UNL1        0.1758
     30 S           4.8214   -2.5100    1.0338 S.2     1  UNL1       -0.0114
     31 H           0.4540   -0.0416   -0.9027 H       1  UNL1        0.0532
     32 H           0.3939    0.2191    0.9370 H       1  UNL1        0.0532
     33 H           2.8803   -0.0179   -0.8494 H       1  UNL1        0.0584
     34 H           2.8098   -0.5121    2.0612 H       1  UNL1        0.0536
     35 H           2.8289    1.2521    1.8167 H       1  UNL1        0.0536
     36 H           4.4878    2.8919    2.0133 H       1  UNL1        0.0408
     37 H           4.1240    2.8573    0.2871 H       1  UNL1        0.0408
     38 H           6.6946    3.0444   -1.2906 H       1  UNL1        0.0712
     39 H           8.9673    6.5959    1.4067 H       1  UNL1        0.1571
     40 H           8.7631    6.9110    5.7797 H       1  UNL1        0.0625
     41 H           9.5968    9.0344    6.7581 H       1  UNL1        0.0618
     42 H          10.1427   10.9645    5.3136 H       1  UNL1        0.0636
     43 H          10.0211   11.9831    3.0139 H       1  UNL1        0.1582
     44 H           8.2542   12.0244   -0.8897 H       1  UNL1        0.0695
     45 H           9.9184   11.4775   -1.2381 H       1  UNL1        0.0695
     46 H           9.0226   14.3840   -0.9822 H       1  UNL1        0.0262
     47 H           9.3749   13.5312   -2.5022 H       1  UNL1        0.0262
     48 H          10.6692   13.8417   -1.3233 H       1  UNL1        0.0262
     49 H           8.6900    8.6941    1.9369 H       1  UNL1        0.0644
     50 H           7.3705   -1.0519    0.5705 H       1  UNL1        0.1910
@<TRIPOS>BOND
     1     1     2    2
     2     2     3    1
     3     3     4    1
     4     4     5   ar
     5     5     6    1
     6     6     7    1
     7     7     8   ar
     8     8     9   ar
     9     9    10   ar
    10    10    11    1
    11    11    12   am
    12    12    13    2
    13    12    14    1
    14    14    15   ar
    15    15    16   ar
    16    16    17   ar
    17    17    18   ar
    18    18    19    1
    19    19    20   am
    20    20    21    2
    21    20    22    1
    22    22    23    1
    23    23    24    1
    24    18    25   ar
    25    14    25   ar
    26    10    26   ar
    27     7    26   ar
    28     5    27   ar
    29    27    28   ar
    30    28    29   ar
    31     4    29   ar
    32    29    30    2
    33     1    31    1
    34     1    32    1
    35     2    33    1
    36     3    34    1
    37     3    35    1
    38     6    36    1
    39     6    37    1
    40     8    38    1
    41    11    39    1
    42    15    40    1
    43    16    41    1
    44    17    42    1
    45    19    43    1
    46    23    44    1
    47    23    45    1
    48    24    46    1
    49    24    47    1
    50    24    48    1
    51    25    49    1
    52    28    50    1
