REMARK  6 active torsions:
REMARK  status: ('A' for Active; 'I' for Inactive)
REMARK    1  A    between atoms: C_3  and  C_19 
REMARK    2  A    between atoms: C_4  and  C_5 
REMARK    3  A    between atoms: C_8  and  C_9 
REMARK    4  A    between atoms: C_12  and  N_13 
REMARK       I    between atoms: C_19  and  N_21 
REMARK    5  A    between atoms: N_21  and  C_22 
REMARK    6  A    between atoms: C_24  and  C_25 
ROOT
ATOM      1  N   UNL d   1       0.956  -0.082   0.035  0.00  0.00    -0.096 N 
ATOM      2  C   UNL d   1       2.217  -0.082   0.035  0.00  0.00     0.025 C 
ATOM      3  C   UNL d   1       3.737  -0.082   0.035  0.00  0.00     0.101 C 
ATOM      4  C   UNL d   1       4.370   0.602   1.021  0.00  0.00     0.064 C 
ENDROOT
BRANCH   3   5
ATOM      5  C   UNL d   1       4.431  -0.841  -1.054  0.00  0.00     0.265 C 
ATOM      6  O   UNL d   1       3.740  -1.520  -1.821  0.00  0.00    -0.267 OA
ATOM      7  N   UNL d   1       5.820  -0.836  -1.093  0.00  0.00    -0.321 N 
ATOM      8  H   UNL d   1       6.356  -0.545  -0.286  0.00  0.00     0.169 HD
BRANCH   7   9
ATOM      9  C   UNL d   1       6.559  -1.482  -2.129  0.00  0.00     0.057 A 
ATOM     10  C   UNL d   1       7.690  -2.242  -1.771  0.00  0.00     0.047 A 
ATOM     11  C   UNL d   1       8.495  -2.855  -2.758  0.00  0.00     0.050 A 
ATOM     12  C   UNL d   1       8.110  -2.769  -4.101  0.00  0.00     0.018 A 
ATOM     13  C   UNL d   1       7.015  -1.993  -4.467  0.00  0.00     0.027 A 
ATOM     14  C   UNL d   1       6.256  -1.332  -3.498  0.00  0.00     0.060 A 
ATOM     15 CL   UNL d   1       5.092  -0.198  -4.097  0.00  0.00    -0.082 Cl
BRANCH  11  16
ATOM     16  C   UNL d   1       9.810  -3.514  -2.405  0.00  0.00     0.417 C 
ATOM     17  F   UNL d   1      10.652  -2.645  -1.778  0.00  0.00    -0.166 F 
ATOM     18  F   UNL d   1       9.676  -4.579  -1.573  0.00  0.00    -0.166 F 
ATOM     19  F   UNL d   1      10.497  -3.965  -3.493  0.00  0.00    -0.166 F 
ENDBRANCH  11  16
ENDBRANCH   7   9
ENDBRANCH   3   5
BRANCH   4  20
ATOM     20  C   UNL d   1       3.677   1.229   2.119  0.00  0.00     0.077 A 
ATOM     21  C   UNL d   1       2.592   0.759   2.855  0.00  0.00     0.040 A 
ATOM     22  C   UNL d   1       2.266   1.707   3.842  0.00  0.00     0.041 A 
ATOM     23  C   UNL d   1       3.173   2.728   3.708  0.00  0.00     0.086 A 
ATOM     24  O   UNL d   1       4.039   2.450   2.680  0.00  0.00    -0.310 OA
BRANCH  23  25
ATOM     25  C   UNL d   1       3.384   3.939   4.488  0.00  0.00    -0.002 A 
ATOM     26  C   UNL d   1       3.354   5.210   3.901  0.00  0.00     0.017 A 
ATOM     27  C   UNL d   1       3.573   6.359   4.675  0.00  0.00     0.037 A 
ATOM     28  C   UNL d   1       3.742   6.242   6.062  0.00  0.00     0.102 A 
ATOM     29  C   UNL d   1       3.743   4.982   6.669  0.00  0.00     0.037 A 
ATOM     30  C   UNL d   1       3.561   3.841   5.880  0.00  0.00     0.017 A 
BRANCH  28  31
ATOM     31  N   UNL d   1       3.857   7.452   6.889  0.00  0.00    -0.116 N 
ATOM     32  O   UNL d   1       3.827   8.548   6.315  0.00  0.00    -0.532 OA
ATOM     33  O   UNL d   1       3.958   7.304   8.117  0.00  0.00    -0.532 OA
ENDBRANCH  28  31
ENDBRANCH  23  25
ENDBRANCH   4  20
TORSDOF 6
