REMARK  7 active torsions:
REMARK  status: ('A' for Active; 'I' for Inactive)
REMARK    1  A    between atoms: O_2  and  C_3 
REMARK       I    between atoms: C_3  and  N_5 
REMARK    2  A    between atoms: N_5  and  C_6 
REMARK    3  A    between atoms: C_9  and  C_10 
REMARK    4  A    between atoms: C_10  and  N_11 
REMARK       I    between atoms: N_11  and  C_12 
REMARK    5  A    between atoms: C_12  and  C_14 
REMARK       I    between atoms: C_14  and  N_16 
REMARK    6  A    between atoms: N_16  and  C_17 
REMARK    7  A    between atoms: C_21  and  C_22 
ROOT
ATOM      1  N   UNL d   1       7.386  -6.353   3.224  0.00  0.00    -0.349 N 
ATOM      2  C   UNL d   1       8.021  -7.434   3.806  0.00  0.00     0.309 C 
ATOM      3  O   UNL d   1       9.073  -7.401   4.425  0.00  0.00    -0.262 OA
ATOM      4  H   UNL d   1       6.496  -6.571   2.791  0.00  0.00     0.163 HD
ENDROOT
BRANCH   2   5
ATOM      5  C   UNL d   1       7.258  -8.776   3.607  0.00  0.00     0.313 C 
ATOM      6  O   UNL d   1       6.213  -8.751   2.964  0.00  0.00    -0.262 OA
ATOM      7  N   UNL d   1       7.819  -9.885   4.233  0.00  0.00    -0.319 N 
ATOM      8  H   UNL d   1       8.599  -9.721   4.863  0.00  0.00     0.169 HD
BRANCH   7   9
ATOM      9  C   UNL d   1       7.303 -11.196   4.107  0.00  0.00     0.035 A 
ATOM     10  C   UNL d   1       7.358 -12.100   5.175  0.00  0.00     0.029 A 
ATOM     11  C   UNL d   1       6.900 -13.418   5.015  0.00  0.00     0.003 A 
ATOM     12  C   UNL d   1       6.370 -13.835   3.794  0.00  0.00     0.016 A 
ATOM     13  C   UNL d   1       6.334 -12.950   2.710  0.00  0.00     0.050 A 
ATOM     14  C   UNL d   1       6.789 -11.634   2.885  0.00  0.00     0.045 A 
BRANCH  13  15
ATOM     15  C   UNL d   1       5.867 -13.414   1.357  0.00  0.00     0.417 C 
ATOM     16  F   UNL d   1       6.601 -14.467   0.897  0.00  0.00    -0.166 F 
ATOM     17  F   UNL d   1       4.572 -13.831   1.359  0.00  0.00    -0.166 F 
ATOM     18  F   UNL d   1       5.955 -12.456   0.392  0.00  0.00    -0.166 F 
ENDBRANCH  13  15
ENDBRANCH   7   9
ENDBRANCH   2   5
BRANCH   1  19
ATOM     19  C   UNL d   1       7.887  -4.986   3.262  0.00  0.00     0.161 C 
BRANCH  19  20
ATOM     20  C   UNL d   1       7.008  -3.938   2.590  0.00  0.00    -0.040 A 
ATOM     21  C   UNL d   1       7.380  -2.578   2.608  0.00  0.00     0.011 A 
ATOM     22  C   UNL d   1       6.529  -1.574   2.088  0.00  0.00     0.030 A 
ATOM     23  C   UNL d   1       5.307  -1.915   1.504  0.00  0.00     0.036 A 
ATOM     24  C   UNL d   1       4.947  -3.259   1.466  0.00  0.00     0.030 A 
ATOM     25  C   UNL d   1       5.788  -4.251   1.980  0.00  0.00     0.011 A 
BRANCH  23  26
ATOM     26  N   UNL d   1       4.486  -0.938   0.896  0.00  0.00    -0.303 N 
ATOM     27  C   UNL d   1       3.111  -1.003   0.847  0.00  0.00     0.364 C 
ATOM     28  O   UNL d   1       2.411  -1.838   1.422  0.00  0.00    -0.238 OA
ATOM     29  H   UNL d   1       4.921  -0.113   0.505  0.00  0.00     0.171 HD
BRANCH  27  30
ATOM     30  O   UNL d   1       2.584   0.020   0.115  0.00  0.00    -0.309 OA
ATOM     31  C   UNL d   1       1.146   0.026   0.100  0.00  0.00     0.215 C 
ENDBRANCH  27  30
ENDBRANCH  23  26
ENDBRANCH  19  20
ENDBRANCH   1  19
TORSDOF 7
