REMARK  7 active torsions:
REMARK  status: ('A' for Active; 'I' for Inactive)
REMARK    1  A    between atoms: C_2  and  C_3 
REMARK    2  A    between atoms: C_3  and  N_6 
REMARK    3  A    between atoms: C_10  and  C_11 
REMARK    4  A    between atoms: C_11  and  C_12 
REMARK    5  A    between atoms: C_11  and  N_26 
REMARK    6  A    between atoms: N_29  and  C_30 
REMARK    7  A    between atoms: C_34  and  O_35 
ROOT
ATOM      1  C   UNL d   1       4.977  -3.569   1.053  0.00  0.00     0.299 C 
ENDROOT
BRANCH   1   2
ATOM      2  C   UNL d   1       5.590  -2.080   1.065  0.00  0.00     0.184 A 
ATOM      3  N   UNL d   1       6.889  -1.848   0.934  0.00  0.00    -0.111 NA
ATOM      4  N   UNL d   1       7.073  -0.486   0.935  0.00  0.00    -0.023 NA
ATOM      5  N   UNL d   1       5.928   0.155   1.042  0.00  0.00    -0.043 NA
ATOM      6  N   UNL d   1       5.009  -0.792   1.173  0.00  0.00    -0.223 N 
BRANCH   6   7
ATOM      7  C   UNL d   1       3.603  -0.352   1.132  0.00  0.00     0.051 C 
ATOM      8  C   UNL d   1       3.133  -0.314   2.649  0.00  0.00     0.040 C 
ATOM      9  C   UNL d   1       3.122  -1.486   0.432  0.00  0.00     0.040 C 
BRANCH   7  10
ATOM     10  C   UNL d   1       3.058   0.540  -0.171  0.00  0.00     0.028 C 
ATOM     11  C   UNL d   1       1.593   0.464  -0.850  0.00  0.00     0.007 C 
ENDBRANCH   7  10
ENDBRANCH   6   7
ENDBRANCH   1   2
BRANCH   1  12
ATOM     12  C   UNL d   1       5.568  -4.399   2.192  0.00  0.00     0.049 C 
ATOM     13  C   UNL d   1       6.164  -5.618   2.087  0.00  0.00     0.029 C 
ATOM     14  C   UNL d   1       6.479  -6.393   3.309  0.00  0.00    -0.006 C 
ATOM     15  C   UNL d   1       6.930  -7.731   3.406  0.00  0.00     0.053 C 
ATOM     16  C   UNL d   1       6.200  -5.745   4.521  0.00  0.00     0.048 C 
ATOM     17  C   UNL d   1       7.140  -8.212   4.705  0.00  0.00     0.105 C 
ATOM     18  C   UNL d   1       7.385  -7.313   5.699  0.00  0.00     0.107 C 
ATOM     19  O   UNL d   1       6.862  -9.409   5.363  0.00  0.00    -0.323 OA
ATOM     20  C   UNL d   1       6.675  -6.175   5.717  0.00  0.00     0.070 C 
ATOM     21  O   UNL d   1       7.757  -7.851   6.881  0.00  0.00    -0.323 OA
ATOM     22  C   UNL d   1       6.831  -8.918   6.768  0.00  0.00     0.352 C 
ATOM     23  N   UNL d   1       5.512  -4.555   4.596  0.00  0.00    -0.322 N 
ATOM     24  C   UNL d   1       5.416  -3.788   3.535  0.00  0.00     0.254 C 
ATOM     25  H   UNL d   1       5.366  -4.139   5.512  0.00  0.00     0.169 HD
ATOM     26  O   UNL d   1       5.069  -2.577   3.720  0.00  0.00    -0.268 OA
ENDBRANCH   1  12
BRANCH   1  27
ATOM     27  N   UNL d   1       3.248  -3.982   0.957  0.00  0.00    -0.052 N 
ATOM     28  C   UNL d   1       2.548  -3.464   2.418  0.00  0.00     0.256 C 
ATOM     29  C   UNL d   1       1.041  -2.856   2.373  0.00  0.00     0.150 C 
ATOM     30  N   UNL d   1       0.617  -2.027   1.149  0.00  0.00    -0.378 N 
ATOM     31  C   UNL d   1       0.795  -2.995  -0.206  0.00  0.00     0.150 C 
ATOM     32  C   UNL d   1       2.361  -3.606  -0.520  0.00  0.00     0.256 C 
ATOM     33  H   UNL d   1       3.230  -5.010   1.000  0.00  0.00     0.281 HD
BRANCH  30  34
ATOM     34  C   UNL d   1       0.007  -0.682   1.285  0.00  0.00     0.032 A 
ATOM     35  C   UNL d   1       0.580   0.574   1.823  0.00  0.00     0.029 A 
ATOM     36  C   UNL d   1       0.180   1.958   1.683  0.00  0.00     0.005 A 
ATOM     37  C   UNL d   1      -0.993   2.208   1.057  0.00  0.00     0.037 A 
ATOM     38  C   UNL d   1      -1.650   1.086   0.539  0.00  0.00     0.070 A 
ATOM     39  C   UNL d   1      -1.125  -0.292   0.582  0.00  0.00     0.066 A 
BRANCH  38  40
ATOM     40  O   UNL d   1      -2.812   1.436  -0.101  0.00  0.00    -0.356 OA
ATOM     41  C   UNL d   1      -3.565   0.324  -0.537  0.00  0.00     0.210 C 
ENDBRANCH  38  40
ENDBRANCH  30  34
ENDBRANCH   1  27
TORSDOF 7
