REMARK  6 active torsions:
REMARK  status: ('A' for Active; 'I' for Inactive)
REMARK    1  A    between atoms: C_3  and  C_2 
REMARK    2  A    between atoms: C_3  and  N_5 
REMARK       I    between atoms: N_5  and  C_6 
REMARK    3  A    between atoms: C_6  and  C_8 
REMARK    4  A    between atoms: C_10  and  N_11 
REMARK       I    between atoms: N_11  and  C_12 
REMARK       I    between atoms: C_12  and  N_14 
REMARK    5  A    between atoms: N_14  and  C_15 
REMARK    6  A    between atoms: C_24  and  N_25 
ROOT
ATOM      1  C   UNL d   1       6.633   2.504   0.820  0.00  0.00     0.060 A 
ATOM      2  C   UNL d   1       7.415   3.259   1.777  0.00  0.00     0.049 A 
ATOM      3  C   UNL d   1       8.782   3.429   1.603  0.00  0.00     0.037 A 
ATOM      4  C   UNL d   1       9.312   2.700   0.532  0.00  0.00     0.032 A 
ATOM      5  C   UNL d   1       8.523   1.942  -0.416  0.00  0.00     0.032 A 
ATOM      6  C   UNL d   1       7.119   1.779  -0.318  0.00  0.00     0.046 A 
ENDROOT
BRANCH   3   7
ATOM      7  N   UNL d   1       9.571   4.331   2.428  0.00  0.00    -0.309 N 
ATOM      8  C   UNL d   1      10.921   4.601   2.187  0.00  0.00     0.325 C 
ATOM      9  O   UNL d   1      11.566   4.040   1.303  0.00  0.00    -0.247 OA
ATOM     10  N   UNL d   1      11.558   5.505   3.028  0.00  0.00    -0.309 N 
ATOM     11  H   UNL d   1      11.107   5.894   3.842  0.00  0.00     0.170 HD
ATOM     12  H   UNL d   1       9.072   4.880   3.117  0.00  0.00     0.170 HD
BRANCH  10  13
ATOM     13  C   UNL d   1      12.951   5.811   2.837  0.00  0.00     0.036 A 
ATOM     14  C   UNL d   1      13.823   5.976   3.917  0.00  0.00     0.029 A 
ATOM     15  C   UNL d   1      15.156   6.375   3.702  0.00  0.00     0.003 A 
ATOM     16  C   UNL d   1      15.657   6.524   2.410  0.00  0.00     0.007 A 
ATOM     17  C   UNL d   1      14.805   6.359   1.322  0.00  0.00    -0.060 A 
ATOM     18  C   UNL d   1      15.273   6.628  -0.074  0.00  0.00     0.048 C 
ATOM     19  C   UNL d   1      13.468   5.997   1.546  0.00  0.00     0.036 A 
ENDBRANCH  10  13
ENDBRANCH   3   7
BRANCH   1  20
ATOM     20  C   UNL d   1       5.184   2.656   0.964  0.00  0.00     0.254 C 
ATOM     21  N   UNL d   1       4.454   1.490   1.150  0.00  0.00    -0.353 N 
ATOM     22  H   UNL d   1       4.962   0.611   1.110  0.00  0.00     0.163 HD
ATOM     23  O   UNL d   1       4.721   3.778   0.787  0.00  0.00    -0.268 OA
BRANCH  21  24
ATOM     24  C   UNL d   1       3.014   1.440   0.840  0.00  0.00     0.080 C 
ATOM     25  C   UNL d   1       2.489   0.035   0.599  0.00  0.00     0.032 C 
BRANCH  24  26
ATOM     26  C   UNL d   1       2.320   1.798   2.090  0.00  0.00     0.020 C 
ATOM     27  C   UNL d   1       2.581   3.209   2.507  0.00  0.00     0.007 C 
ENDBRANCH  24  26
ENDBRANCH  21  24
ENDBRANCH   1  20
BRANCH   6  28
ATOM     28  N   UNL d   1       6.332   1.108  -1.219  0.00  0.00    -0.378 N 
ATOM     29  C   UNL d   1       5.012   1.491  -1.581  0.00  0.00     0.127 C 
ATOM     30  C   UNL d   1       4.681   0.735  -3.142  0.00  0.00     0.055 C 
ATOM     31  C   UNL d   1       3.438   0.445  -2.451  0.00  0.00    -0.063 C 
ATOM     32  C   UNL d   1       2.302   1.523  -2.433  0.00  0.00     0.004 C 
ATOM     33  C   UNL d   1       4.121  -0.807  -1.994  0.00  0.00     0.034 C 
ATOM     34  C   UNL d   1       1.028   1.169  -1.986  0.00  0.00     0.000 C 
ATOM     35  C   UNL d   1       1.045  -0.160  -1.991  0.00  0.00    -0.003 C 
ATOM     36  C   UNL d   1       2.458  -1.036  -2.021  0.00  0.00    -0.009 C 
ATOM     37  C   UNL d   1       5.855  -0.242  -1.845  0.00  0.00     0.142 C 
ENDBRANCH   6  28
TORSDOF 6
