@<TRIPOS>MOLECULE
*****
 46 49 0 0 0
SMALL
GASTEIGER

@<TRIPOS>ATOM
      1 N           2.9446    0.0529   -0.0031 N.1     1  UNL1       -0.1907
      2 C           1.7894    0.0851   -0.0023 C.1     1  UNL1        0.1044
      3 C           0.3665    0.2246    0.0013 C.ar    1  UNL1        0.1134
      4 C          -0.4242    1.4063    0.0141 C.ar    1  UNL1        0.0821
      5 C           0.0352    2.8417    0.0411 C.3     1  UNL1       -0.0059
      6 C           1.5627    2.9498    0.0643 C.3     1  UNL1       -0.0319
      7 C           2.1052    4.3566    0.0960 C.3     1  UNL1        0.0123
      8 N           3.5608    4.3740    0.1321 N.am    1  UNL1       -0.3109
      9 C           4.2537    5.5763    0.2053 C.2     1  UNL1        0.2508
     10 O           3.6529    6.6466    0.2560 O.2     1  UNL1       -0.2696
     11 C           5.7153    5.4859    0.2197 C.ar    1  UNL1        0.0769
     12 C           6.6406    6.2359    0.9467 C.ar    1  UNL1       -0.0265
     13 C           7.9910    5.8593    0.5965 C.ar    1  UNL1        0.0488
     14 S           9.6736    6.2311    1.0062 S.2     1  UNL1       -0.0515
     15 C          10.2069    5.0577   -0.1934 C.ar    1  UNL1        0.1640
     16 N          11.5146    4.7508   -0.4319 N.pl3   1  UNL1       -0.2937
     17 C          11.9278    3.7807   -1.3815 C.ar    1  UNL1        0.0328
     18 C          12.6567    2.6488   -0.9864 C.ar    1  UNL1       -0.0405
     19 C          13.0716    1.6876   -1.9240 C.ar    1  UNL1       -0.0600
     20 C          12.6972    1.8018   -3.2600 C.ar    1  UNL1       -0.0616
     21 C          11.9891    2.9254   -3.6742 C.ar    1  UNL1       -0.0600
     22 C          11.6173    3.9080   -2.7443 C.ar    1  UNL1       -0.0405
     23 N           9.2160    4.4722   -0.8205 N.ar    1  UNL1       -0.2174
     24 C           8.0164    4.9068   -0.3763 C.ar    1  UNL1        0.1182
     25 S           6.4506    4.4001   -0.8854 S.2     1  UNL1       -0.0635
     26 N          -1.7352    1.1079    0.0034 N.ar    1  UNL1       -0.1759
     27 N          -1.7616   -0.2442   -0.0101 N.ar    1  UNL1       -0.2630
     28 C          -0.5192   -0.8183   -0.0016 C.ar    1  UNL1        0.1294
     29 N          -0.3130   -2.1468    0.0027 N.pl3   1  UNL1       -0.3425
     30 H          -0.3791    3.3392    0.9275 H       1  UNL1        0.0330
     31 H          -0.3560    3.3665   -0.8396 H       1  UNL1        0.0330
     32 H           1.9635    2.4599   -0.8323 H       1  UNL1        0.0284
     33 H           1.9395    2.4273    0.9532 H       1  UNL1        0.0284
     34 H           1.7377    4.8724    0.9866 H       1  UNL1        0.0462
     35 H           1.7762    4.8984   -0.7949 H       1  UNL1        0.0462
     36 H           4.0825    3.5020    0.0945 H       1  UNL1        0.1490
     37 H           6.3511    6.9890    1.6752 H       1  UNL1        0.0642
     38 H          12.2660    5.1606    0.1075 H       1  UNL1        0.1541
     39 H          12.8657    2.4703    0.0645 H       1  UNL1        0.0636
     40 H          13.6772    0.8399   -1.6122 H       1  UNL1        0.0618
     41 H          12.9450    1.0153   -3.9701 H       1  UNL1        0.0618
     42 H          11.7218    3.0382   -4.7219 H       1  UNL1        0.0618
     43 H          11.0673    4.7774   -3.0937 H       1  UNL1        0.0636
     44 H          -2.6578   -0.7176   -0.0200 H       1  UNL1        0.1903
     45 H          -1.0454   -2.8486   -0.0028 H       1  UNL1        0.1437
     46 H           0.6321   -2.5313    0.0325 H       1  UNL1        0.1437
@<TRIPOS>BOND
     1     1     2    3
     2     2     3    1
     3     3     4   ar
     4     4     5    1
     5     5     6    1
     6     6     7    1
     7     7     8    1
     8     8     9   am
     9     9    10    2
    10     9    11    1
    11    11    12   ar
    12    12    13   ar
    13    13    14   ar
    14    14    15   ar
    15    15    16    1
    16    16    17    1
    17    17    18   ar
    18    18    19   ar
    19    19    20   ar
    20    20    21   ar
    21    21    22   ar
    22    17    22   ar
    23    15    23   ar
    24    23    24   ar
    25    13    24   ar
    26    24    25   ar
    27    11    25   ar
    28     4    26   ar
    29    26    27   ar
    30    27    28   ar
    31     3    28   ar
    32    28    29    1
    33     5    30    1
    34     5    31    1
    35     6    32    1
    36     6    33    1
    37     7    34    1
    38     7    35    1
    39     8    36    1
    40    12    37    1
    41    16    38    1
    42    18    39    1
    43    19    40    1
    44    20    41    1
    45    21    42    1
    46    22    43    1
    47    27    44    1
    48    29    45    1
    49    29    46    1
