@<TRIPOS>MOLECULE
*****
 29 29 0 0 0
SMALL
GASTEIGER

@<TRIPOS>ATOM
      1 C           3.0928   -1.3560    0.2207 C.3     1  UNL1       -0.0526
      2 C           2.5740    0.0713    0.0153 C.3     1  UNL1        0.0493
      3 C           1.0249    0.0741    0.0789 C.3     1  UNL1        0.0200
      4 N           0.5413    0.6256    1.3496 N.pl3   1  UNL1       -0.3431
      5 C          -0.8218    0.7889    1.5783 C.ar    1  UNL1        0.0272
      6 C          -1.7400   -0.2299    1.3015 C.ar    1  UNL1       -0.0398
      7 C          -3.0935   -0.0998    1.6337 C.ar    1  UNL1       -0.0460
      8 C          -3.5551    1.0821    2.2024 C.ar    1  UNL1        0.0180
      9 BR         -5.3740    1.2423    2.6915 Br      1  UNL1       -0.0503
     10 C          -2.6786    2.1409    2.4165 C.ar    1  UNL1       -0.0460
     11 C          -1.3202    1.9927    2.0994 C.ar    1  UNL1       -0.0398
     12 C           3.0701    0.6267   -1.3235 C.2     1  UNL1        0.2306
     13 O           2.3182    1.0180   -2.2232 O.2     1  UNL1       -0.2742
     14 N           4.4526    0.6788   -1.4751 N.am    1  UNL1       -0.2533
     15 N           4.9933    1.2737   -2.6421 N.3     1  UNL1       -0.2544
     16 H           4.1863   -1.3952    0.2416 H       1  UNL1        0.0237
     17 H           2.7581   -2.0094   -0.5934 H       1  UNL1        0.0237
     18 H           2.7280   -1.7735    1.1654 H       1  UNL1        0.0237
     19 H           2.9909    0.7114    0.8047 H       1  UNL1        0.0407
     20 H           0.5772    0.6310   -0.7504 H       1  UNL1        0.0468
     21 H           0.6638   -0.9576   -0.0077 H       1  UNL1        0.0468
     22 H           1.1583    1.2307    1.8785 H       1  UNL1        0.1461
     23 H          -1.4003   -1.1714    0.8816 H       1  UNL1        0.0636
     24 H          -3.7670   -0.9347    1.4623 H       1  UNL1        0.0629
     25 H          -3.0363    3.0770    2.8379 H       1  UNL1        0.0629
     26 H          -0.6552    2.8373    2.2617 H       1  UNL1        0.0636
     27 H           5.0823    0.4620   -0.7047 H       1  UNL1        0.1687
     28 H           4.1928    1.5361   -3.2393 H       1  UNL1        0.1405
     29 H           5.4821    0.5553   -3.1813 H       1  UNL1        0.1405
@<TRIPOS>BOND
     1     3     4    1
     2     4     5    1
     3     5     6   ar
     4     6     7   ar
     5     7     8   ar
     6     8     9    1
     7     8    10   ar
     8    10    11   ar
     9     5    11   ar
    10     2    12    1
    11    12    13    2
    12    12    14   am
    13    14    15    1
    14     2     3    1
    15     2     1    1
    16     1    16    1
    17     1    17    1
    18     1    18    1
    19     2    19    1
    20     3    20    1
    21     3    21    1
    22     4    22    1
    23     6    23    1
    24     7    24    1
    25    10    25    1
    26    11    26    1
    27    14    27    1
    28    15    28    1
    29    15    29    1
