@<TRIPOS>MOLECULE
*****
 32 33 0 0 0
SMALL
GASTEIGER

@<TRIPOS>ATOM
      1 C           2.4589   -0.3424   -0.0047 C.3     1  UNL1       -0.0380
      2 C           0.9918   -0.0833    0.0067 C.ar    1  UNL1       -0.0292
      3 C           0.2238   -1.2563    0.0082 C.ar    1  UNL1       -0.0564
      4 C          -1.1542   -1.2167    0.0016 C.ar    1  UNL1       -0.0493
      5 C          -1.8081    0.0114   -0.0080 C.ar    1  UNL1        0.0383
      6 C          -3.3070    0.0485   -0.0381 C.2     1  UNL1        0.2416
      7 N          -3.9959   -1.1429   -0.0556 N.am    1  UNL1       -0.3253
      8 O          -3.9181    1.1098   -0.0518 O.2     1  UNL1       -0.2704
      9 C          -1.0378    1.2126    0.0017 C.ar    1  UNL1       -0.0281
     10 C           0.3858    1.1915    0.0087 C.ar    1  UNL1        0.0373
     11 N           1.1075    2.4516   -0.0012 N.am    1  UNL1       -0.2812
     12 C           2.4867    2.6539   -0.0224 C.2     1  UNL1        0.2498
     13 O           3.4157    1.8509    0.0422 O.2     1  UNL1       -0.2698
     14 C           3.0780    3.9794   -0.1132 C.ar    1  UNL1        0.0566
     15 C           2.7887    4.9588    0.8116 C.ar    1  UNL1        0.0414
     16 N           3.5369    6.0788    0.9434 N.ar    1  UNL1       -0.2413
     17 C           4.6240    6.2014    0.1287 C.ar    1  UNL1        0.1474
     18 CL          5.4918    7.6620    0.3868 Cl      1  UNL1       -0.0605
     19 C           5.0070    5.2604   -0.8180 C.ar    1  UNL1        0.0784
     20 CL          6.3643    5.4323   -1.8632 Cl      1  UNL1       -0.0804
     21 C           4.2292    4.1190   -0.9169 C.ar    1  UNL1       -0.0269
     22 H           2.7421   -1.3945   -0.0105 H       1  UNL1        0.0278
     23 H           2.8725    0.0530    0.9282 H       1  UNL1        0.0278
     24 H           2.8621    0.0658   -0.9376 H       1  UNL1        0.0278
     25 H           0.7225   -2.2238    0.0089 H       1  UNL1        0.0621
     26 H          -1.6658   -2.1695    0.0004 H       1  UNL1        0.0625
     27 H          -3.5880   -2.0648   -0.0523 H       1  UNL1        0.1453
     28 H          -5.0070   -1.1042   -0.0806 H       1  UNL1        0.1453
     29 H          -1.5825    2.1574   -0.0015 H       1  UNL1        0.0644
     30 H           0.5190    3.2783   -0.0342 H       1  UNL1        0.1551
     31 H           1.9846    4.8414    1.5312 H       1  UNL1        0.0838
     32 H           4.5524    3.2949   -1.5565 H       1  UNL1        0.0641
@<TRIPOS>BOND
     1     1     2    1
     2     2     3   ar
     3     3     4   ar
     4     4     5   ar
     5     5     6    1
     6     6     7   am
     7     6     8    2
     8     5     9   ar
     9     9    10   ar
    10     2    10   ar
    11    10    11    1
    12    11    12   am
    13    12    13    2
    14    12    14    1
    15    14    15   ar
    16    15    16   ar
    17    16    17   ar
    18    17    18    1
    19    17    19   ar
    20    19    20    1
    21    19    21   ar
    22    14    21   ar
    23     1    22    1
    24     1    23    1
    25     1    24    1
    26     3    25    1
    27     4    26    1
    28     7    27    1
    29     7    28    1
    30     9    29    1
    31    11    30    1
    32    15    31    1
    33    21    32    1
