REMARK  8 active torsions:
REMARK  status: ('A' for Active; 'I' for Inactive)
REMARK       I    between atoms: C_2  and  N_4 
REMARK    1  A    between atoms: N_4  and  C_5 
REMARK    2  A    between atoms: C_5  and  C_6 
REMARK    3  A    between atoms: C_6  and  C_7 
REMARK    4  A    between atoms: C_7  and  C_8 
REMARK    5  A    between atoms: C_8  and  C_9 
REMARK    6  A    between atoms: C_9  and  C_10 
REMARK       I    between atoms: C_10  and  N_12 
REMARK    7  A    between atoms: N_12  and  N_13 
REMARK    8  A    between atoms: N_13  and  C_14 
ROOT
ATOM      1  C   UNL d   1       9.387  -3.876  -4.223  0.00  0.00     0.235 C 
ATOM      2  O   UNL d   1       8.615  -4.533  -4.925  0.00  0.00    -0.272 OA
ATOM      3  N   UNL d   1      10.766  -3.954  -4.366  0.00  0.00    -0.270 N 
ATOM      4  H   UNL d   1      11.418  -3.494  -3.739  0.00  0.00     0.190 HD
ENDROOT
BRANCH   3   5
ATOM      5  N   UNL d   1      11.264  -4.901  -5.273  0.00  0.00    -0.295 N 
ATOM      6  H   UNL d   1      10.604  -5.250  -5.973  0.00  0.00     0.187 HD
BRANCH   5   7
ATOM      7  C   UNL d   1      12.651  -5.071  -5.457  0.00  0.00     0.091 A 
ATOM      8  C   UNL d   1      13.559  -5.183  -4.383  0.00  0.00     0.065 A 
ATOM      9 CL   UNL d   1      13.038  -5.155  -2.729  0.00  0.00    -0.082 Cl
ATOM     10  C   UNL d   1      14.928  -5.402  -4.594  0.00  0.00     0.050 A 
ATOM     11  C   UNL d   1      15.432  -5.476  -5.886  0.00  0.00     0.037 A 
ATOM     12 CL   UNL d   1      17.114  -5.748  -6.131  0.00  0.00    -0.084 Cl
ATOM     13  C   UNL d   1      14.583  -5.333  -6.974  0.00  0.00     0.050 A 
ATOM     14  C   UNL d   1      13.209  -5.141  -6.759  0.00  0.00     0.065 A 
ATOM     15 CL   UNL d   1      12.213  -4.981  -8.168  0.00  0.00    -0.082 Cl
ENDBRANCH   5   7
ENDBRANCH   3   5
BRANCH   1  16
ATOM     16  C   UNL d   1       8.904  -2.899  -3.152  0.00  0.00     0.104 C 
BRANCH  16  17
ATOM     17  C   UNL d   1       7.369  -2.849  -3.096  0.00  0.00     0.009 C 
BRANCH  17  18
ATOM     18  C   UNL d   1       6.832  -1.875  -2.042  0.00  0.00     0.002 C 
BRANCH  18  19
ATOM     19  C   UNL d   1       5.295  -1.862  -2.028  0.00  0.00     0.020 C 
BRANCH  19  20
ATOM     20  C   UNL d   1       4.754  -0.893  -0.979  0.00  0.00     0.122 C 
BRANCH  20  21
ATOM     21  N   UNL d   1       3.302  -0.851  -0.934  0.00  0.00    -0.361 N 
ATOM     22  C   UNL d   1       2.659  -0.025  -0.039  0.00  0.00     0.213 C 
ATOM     23  C   UNL d   1       1.155  -0.070  -0.088  0.00  0.00     0.117 C 
ATOM     24  O   UNL d   1       3.260   0.705   0.752  0.00  0.00    -0.274 OA
ATOM     25  H   UNL d   1       2.761  -1.433  -1.563  0.00  0.00     0.162 HD
ENDBRANCH  20  21
ENDBRANCH  19  20
ENDBRANCH  18  19
ENDBRANCH  17  18
ENDBRANCH  16  17
ENDBRANCH   1  16
TORSDOF 8
