REMARK  9 active torsions:
REMARK  status: ('A' for Active; 'I' for Inactive)
REMARK    1  A    between atoms: C_2  and  O_3 
REMARK    2  A    between atoms: O_3  and  C_4 
REMARK    3  A    between atoms: C_9  and  N_10 
REMARK       I    between atoms: N_10  and  C_11 
REMARK    4  A    between atoms: C_11  and  C_13 
REMARK    5  A    between atoms: C_16  and  C_17 
REMARK    6  A    between atoms: C_17  and  O_18 
REMARK    7  A    between atoms: N_26  and  C_27 
REMARK    8  A    between atoms: C_30  and  O_31 
REMARK    9  A    between atoms: O_31  and  C_32 
ROOT
ATOM      1  C   UNL d   1       2.731  -1.960   2.259  0.00  0.00     0.084 C 
ATOM      2  C   UNL d   1       1.471  -2.406   2.335  0.00  0.00     0.036 C 
ATOM      3  C   UNL d   1       0.866  -2.779   3.597  0.00  0.00     0.011 A 
ATOM      4  C   UNL d   1      -0.325  -3.514   3.643  0.00  0.00    -0.004 A 
ATOM      5  C   UNL d   1      -0.729  -3.940   4.900  0.00  0.00     0.127 A 
ATOM      6  N   UNL d   1      -0.045  -3.699   6.047  0.00  0.00    -0.262 NA
ATOM      7  C   UNL d   1       1.098  -2.981   5.977  0.00  0.00     0.065 A 
ATOM      8  C   UNL d   1       1.821  -2.721   7.263  0.00  0.00     0.073 C 
ATOM      9  C   UNL d   1       1.581  -2.518   4.762  0.00  0.00     0.113 A 
ATOM     10  O   UNL d   1       2.797  -1.810   4.705  0.00  0.00    -0.290 OA
ATOM     11  C   UNL d   1       3.347  -1.446   3.481  0.00  0.00     0.164 C 
ATOM     12  N   UNL d   1       4.245  -0.527   3.559  0.00  0.00    -0.336 N 
ATOM     13  H   UNL d   1       4.575  -0.038   2.724  0.00  0.00     0.168 HD
ENDROOT
BRANCH   1  14
ATOM     14  C   UNL d   1       3.279  -1.974   0.876  0.00  0.00     0.260 C 
ATOM     15  N   UNL d   1       4.564  -1.509   0.732  0.00  0.00    -0.320 N 
ATOM     16  H   UNL d   1       5.270  -1.965   1.300  0.00  0.00     0.169 HD
ATOM     17  O   UNL d   1       2.565  -2.342  -0.061  0.00  0.00    -0.267 OA
BRANCH  15  18
ATOM     18  C   UNL d   1       5.031  -0.994  -0.513  0.00  0.00     0.068 A 
ATOM     19  C   UNL d   1       6.389  -1.212  -0.810  0.00  0.00     0.032 A 
ATOM     20  C   UNL d   1       6.933  -0.814  -2.036  0.00  0.00     0.002 A 
ATOM     21  C   UNL d   1       6.124  -0.204  -2.986  0.00  0.00     0.003 A 
ATOM     22  C   UNL d   1       4.793   0.076  -2.679  0.00  0.00     0.039 A 
ATOM     23  C   UNL d   1       4.234  -0.292  -1.444  0.00  0.00     0.095 A 
BRANCH  23  24
ATOM     24  O   UNL d   1       2.904   0.021  -1.351  0.00  0.00    -0.349 OA
BRANCH  24  25
ATOM     25  C   UNL d   1       2.388   0.599  -0.158  0.00  0.00     0.171 C 
ATOM     26  C   UNL d   1       0.891   0.307  -0.084  0.00  0.00     0.034 C 
ENDBRANCH  24  25
ENDBRANCH  23  24
ENDBRANCH  15  18
ENDBRANCH   1  14
BRANCH  12  27
ATOM     27  C   UNL d   1       5.036  -0.336   4.703  0.00  0.00     0.034 A 
ATOM     28  C   UNL d   1       5.365   0.962   5.104  0.00  0.00     0.032 A 
ATOM     29  C   UNL d   1       6.118   1.144   6.274  0.00  0.00     0.039 A 
ATOM     30  C   UNL d   1       6.527   0.038   7.034  0.00  0.00     0.076 A 
ATOM     31  C   UNL d   1       6.242  -1.248   6.573  0.00  0.00     0.039 A 
ATOM     32  C   UNL d   1       5.505  -1.440   5.414  0.00  0.00     0.032 A 
BRANCH  30  33
ATOM     33  O   UNL d   1       7.143   0.311   8.238  0.00  0.00    -0.311 OA
BRANCH  33  34
ATOM     34  C   UNL d   1       7.521  -0.746   9.039  0.00  0.00     0.076 A 
ATOM     35  C   UNL d   1       6.948  -0.870  10.305  0.00  0.00     0.037 A 
ATOM     36  C   UNL d   1       7.383  -1.883  11.164  0.00  0.00     0.003 A 
ATOM     37  C   UNL d   1       8.325  -2.817  10.727  0.00  0.00     0.000 A 
ATOM     38  C   UNL d   1       8.887  -2.698   9.458  0.00  0.00     0.003 A 
ATOM     39  C   UNL d   1       8.516  -1.640   8.630  0.00  0.00     0.037 A 
ENDBRANCH  33  34
ENDBRANCH  30  33
ENDBRANCH  12  27
BRANCH   4  40
ATOM     40  C   UNL d   1      -1.095  -3.853   2.390  0.00  0.00     0.205 C 
BRANCH  40  41
ATOM     41  O   UNL d   1      -2.262  -4.609   2.647  0.00  0.00    -0.396 OA
ATOM     42  H   UNL d   1      -1.983  -5.485   2.965  0.00  0.00     0.209 HD
ENDBRANCH  40  41
ENDBRANCH   4  40
TORSDOF 9
