@<TRIPOS>MOLECULE
*****
 53 56 0 0 0
SMALL
GASTEIGER

@<TRIPOS>ATOM
      1 N           2.1135   -0.0974   -0.4497 N.pl3   1  UNL1       -0.3375
      2 C           0.7435   -0.0822   -0.5416 C.ar    1  UNL1        0.2064
      3 N           0.0359    0.9889   -0.1630 N.ar    1  UNL1       -0.0319
      4 O          -1.2776    0.5604   -0.0385 O.2     1  UNL1       -0.2388
      5 N          -1.3745   -0.8227   -0.1825 N.ar    1  UNL1       -0.0272
      6 C          -0.1776   -1.2051   -0.6590 C.ar    1  UNL1        0.2407
      7 N           0.1569   -2.5812   -0.4577 N.ar    1  UNL1       -0.1830
      8 N          -0.1526   -3.7221   -1.1239 N.ar    1  UNL1       -0.0581
      9 N           0.4824   -4.7658   -0.5510 N.ar    1  UNL1       -0.1279
     10 C           1.1051   -4.3275    0.5905 C.ar    1  UNL1        0.1399
     11 C           1.9264   -5.3230    1.5352 C.3     1  UNL1        0.0155
     12 N           2.5157   -4.7147    2.8271 N.4     1  UNL1        0.2397
     13 C           3.5644   -3.5774    2.3841 C.3     1  UNL1       -0.0315
     14 C           3.6820   -2.5320    3.5142 C.3     1  UNL1       -0.0123
     15 C           2.4128   -2.1412    4.4718 C.3     1  UNL1       -0.0434
     16 C           1.5811   -3.3124    4.9391 C.3     1  UNL1       -0.0123
     17 C           1.1959   -4.3336    3.8375 C.3     1  UNL1       -0.0315
     18 C           0.8172   -2.9315    0.6496 C.ar    1  UNL1        0.1608
     19 C           1.1338   -2.0030    1.6601 C.2     1  UNL1        0.2838
     20 O           1.5906   -2.6309    2.5070 O.2     1  UNL1       -0.2667
     21 N           1.0060   -0.6446    1.9449 N.am    1  UNL1       -0.2016
     22 N           1.8414   -0.0860    2.9179 N.2     1  UNL1       -0.1872
     23 C           1.5668    1.0162    3.5439 C.2     1  UNL1        0.0593
     24 C           2.2862    1.5108    4.8170 C.ar    1  UNL1        0.0716
     25 C           1.5809    2.4664    5.5630 C.ar    1  UNL1       -0.0466
     26 C           2.2434    3.2636    6.5189 C.ar    1  UNL1       -0.0607
     27 C           3.5626    3.0167    6.8912 C.ar    1  UNL1       -0.0553
     28 C           4.2387    1.9774    6.2929 C.ar    1  UNL1        0.0163
     29 C           3.6043    1.2382    5.2738 C.ar    1  UNL1        0.2817
     30 N           4.4964    0.3334    4.6032 N.pl3   1  UNL1        0.0803
     31 O           5.4442   -0.1655    5.2315 O.2     1  UNL1        0.0415
     32 O           4.3160    0.1964    3.4008 O.co2   1  UNL1       -0.5760
     33 H           2.5429    0.7399   -0.0335 H       1  UNL1        0.1439
     34 H           2.6246   -0.8862   -0.0559 H       1  UNL1        0.1439
     35 H           2.7889   -5.7762    1.0120 H       1  UNL1        0.0884
     36 H           1.3250   -6.1792    1.8837 H       1  UNL1        0.0884
     37 H           3.0844   -5.3561    3.3848 H       1  UNL1        0.2037
     38 H           3.2740   -3.0955    1.4119 H       1  UNL1        0.0814
     39 H           4.5275   -3.9859    2.0190 H       1  UNL1        0.0814
     40 H           4.0713   -1.7133    2.9031 H       1  UNL1        0.0317
     41 H           4.4785   -2.8314    4.1840 H       1  UNL1        0.0317
     42 H           1.5468   -1.6183    4.0618 H       1  UNL1        0.0269
     43 H           2.6167   -1.3634    5.2063 H       1  UNL1        0.0269
     44 H           0.6418   -2.8649    5.3375 H       1  UNL1        0.0317
     45 H           2.1390   -3.7544    5.7455 H       1  UNL1        0.0317
     46 H           0.3383   -3.9834    3.2108 H       1  UNL1        0.0814
     47 H           0.7662   -5.2548    4.2409 H       1  UNL1        0.0814
     48 H           0.1856   -0.1373    1.6706 H       1  UNL1        0.1776
     49 H           0.7485    1.6446    3.1626 H       1  UNL1        0.0853
     50 H           0.5184    2.6416    5.3979 H       1  UNL1        0.0626
     51 H           1.7420    4.1295    6.9466 H       1  UNL1        0.0618
     52 H           4.0733    3.6331    7.6275 H       1  UNL1        0.0620
     53 H           5.2915    1.8115    6.5366 H       1  UNL1        0.0685
@<TRIPOS>UNITY_ATOM_ATTR
12 1
charge 1
30 1
charge 1
32 1
charge -1
@<TRIPOS>BOND
     1     1     2    1
     2     2     3   ar
     3     3     4   ar
     4     4     5   ar
     5     5     6   ar
     6     2     6   ar
     7     6     7    1
     8     7     8   ar
     9     8     9   ar
    10     9    10   ar
    11    10    11    1
    12    11    12    1
    13    12    13    1
    14    13    14    1
    15    14    15    1
    16    15    16    1
    17    16    17    1
    18    12    17    1
    19    10    18   ar
    20     7    18   ar
    21    18    19    1
    22    19    20    2
    23    19    21   am
    24    21    22    1
    25    22    23    2
    26    23    24    1
    27    24    25   ar
    28    25    26   ar
    29    26    27   ar
    30    27    28   ar
    31    28    29   ar
    32    24    29   ar
    33    29    30    1
    34    30    31    2
    35    30    32    1
    36     1    33    1
    37     1    34    1
    38    11    35    1
    39    11    36    1
    40    12    37    1
    41    13    38    1
    42    13    39    1
    43    14    40    1
    44    14    41    1
    45    15    42    1
    46    15    43    1
    47    16    44    1
    48    16    45    1
    49    17    46    1
    50    17    47    1
    51    21    48    1
    52    23    49    1
    53    25    50    1
    54    26    51    1
    55    27    52    1
    56    28    53    1
