@<TRIPOS>MOLECULE
*****
 39 42 0 0 0
SMALL
GASTEIGER

@<TRIPOS>ATOM
      1 O           1.1166   -0.2693   -0.1489 O.2     1  UNL1       -0.2681
      2 C           2.3313   -0.0390   -0.0901 C.2     1  UNL1        0.2684
      3 N           3.0141    0.6973   -1.0511 N.am    1  UNL1       -0.2796
      4 C           2.3492    1.4031   -2.0902 C.ar    1  UNL1        0.0444
      5 C           2.7980    1.2549   -3.4093 C.ar    1  UNL1       -0.0398
      6 C           2.1621    1.9368   -4.4574 C.ar    1  UNL1       -0.0600
      7 C           1.0578    2.7480   -4.2040 C.ar    1  UNL1       -0.0610
      8 C           0.6127    2.9168   -2.8953 C.ar    1  UNL1       -0.0493
      9 C           1.2548    2.2586   -1.8336 C.ar    1  UNL1        0.0399
     10 C           0.8048    2.5179   -0.4760 C.ar    1  UNL1        0.1584
     11 N           1.5114    2.9733    0.5380 N.ar    1  UNL1       -0.2067
     12 C           0.6885    2.7710    1.6185 C.ar    1  UNL1        0.1816
     13 C           1.0506    3.1754    2.9603 C.ar    1  UNL1        0.0209
     14 C           0.8838    2.3066    4.0452 C.ar    1  UNL1       -0.0510
     15 C           1.0184    2.7899    5.3475 C.ar    1  UNL1       -0.0611
     16 C           1.3967    4.1157    5.5641 C.ar    1  UNL1       -0.0617
     17 C           1.6256    4.9654    4.4821 C.ar    1  UNL1       -0.0611
     18 C           1.4559    4.4952    3.1815 C.ar    1  UNL1       -0.0510
     19 N          -0.5243    2.2865    1.3110 N.ar    1  UNL1       -0.1520
     20 N          -0.4189    2.1243   -0.0147 N.ar    1  UNL1       -0.2582
     21 C           3.1507   -0.7103    0.9298 C.ar    1  UNL1        0.1471
     22 C           2.8141   -1.9599    1.5189 C.ar    1  UNL1       -0.0120
     23 C           3.8355   -2.2538    2.3826 C.ar    1  UNL1        0.0231
     24 N           4.6720   -1.1789    2.3390 N.ar    1  UNL1       -0.2840
     25 N           4.3259   -0.2577    1.4124 N.ar    1  UNL1       -0.1692
     26 H           4.0182    0.5689   -1.0937 H       1  UNL1        0.1552
     27 H           3.5968    0.5587   -3.6521 H       1  UNL1        0.0636
     28 H           2.5247    1.8343   -5.4782 H       1  UNL1        0.0618
     29 H           0.5487    3.2561   -5.0202 H       1  UNL1        0.0618
     30 H          -0.2171    3.5934   -2.7011 H       1  UNL1        0.0625
     31 H           0.6254    1.2632    3.8764 H       1  UNL1        0.0625
     32 H           0.7988    2.1418    6.1915 H       1  UNL1        0.0618
     33 H           1.5090    4.4890    6.5782 H       1  UNL1        0.0618
     34 H           1.9015    6.0026    4.6474 H       1  UNL1        0.0618
     35 H           1.5974    5.1642    2.3358 H       1  UNL1        0.0625
     36 H          -1.1579    1.6596   -0.5266 H       1  UNL1        0.1906
     37 H           1.9471   -2.5637    1.2882 H       1  UNL1        0.0656
     38 H           4.0241   -3.1103    3.0146 H       1  UNL1        0.0824
     39 H           5.5145   -1.0304    2.8866 H       1  UNL1        0.1882
@<TRIPOS>BOND
     1     1     2    2
     2     2     3   am
     3     3     4    1
     4     4     5   ar
     5     5     6   ar
     6     6     7   ar
     7     7     8   ar
     8     8     9   ar
     9     4     9   ar
    10     9    10    1
    11    10    11   ar
    12    11    12   ar
    13    12    13    1
    14    13    14   ar
    15    14    15   ar
    16    15    16   ar
    17    16    17   ar
    18    17    18   ar
    19    13    18   ar
    20    12    19   ar
    21    19    20   ar
    22    10    20   ar
    23     2    21    1
    24    21    22   ar
    25    22    23   ar
    26    23    24   ar
    27    24    25   ar
    28    21    25   ar
    29     3    26    1
    30     5    27    1
    31     6    28    1
    32     7    29    1
    33     8    30    1
    34    14    31    1
    35    15    32    1
    36    16    33    1
    37    17    34    1
    38    18    35    1
    39    20    36    1
    40    22    37    1
    41    23    38    1
    42    24    39    1
