REMARK  10 active torsions:
REMARK  status: ('A' for Active; 'I' for Inactive)
REMARK    1  A    between atoms: O_2  and  C_3 
REMARK    2  A    between atoms: C_7  and  C_6 
REMARK    3  A    between atoms: C_7  and  N_28 
REMARK    4  A    between atoms: C_7  and  C_8 
REMARK    5  A    between atoms: C_8  and  N_9 
REMARK       I    between atoms: N_9  and  C_10 
REMARK    6  A    between atoms: C_10  and  C_12 
REMARK    7  A    between atoms: C_15  and  S_16 
REMARK    8  A    between atoms: S_16  and  C_17 
REMARK    9  A    between atoms: C_17  and  C_18 
REMARK   10  A    between atoms: C_32  and  O_33 
ROOT
ATOM      1  N   UNL d   1       5.109  -1.278   2.100  0.00  0.00    -0.354 N 
ATOM      2  C   UNL d   1       4.245  -0.347   1.534  0.00  0.00     0.256 C 
ATOM      3  O   UNL d   1       3.153  -0.653   1.098  0.00  0.00    -0.268 OA
ATOM      4  H   UNL d   1       6.027  -0.986   2.425  0.00  0.00     0.162 HD
ENDROOT
BRANCH   1   5
ATOM      5  C   UNL d   1       4.729  -2.683   2.095  0.00  0.00     0.161 C 
BRANCH   5   6
ATOM      6  C   UNL d   1       5.639  -3.677   2.883  0.00  0.00     0.237 C 
BRANCH   6   7
ATOM      7  N   UNL d   1       5.064  -5.105   2.810  0.00  0.00    -0.069 N 
ATOM      8  C   UNL d   1       4.864  -5.612   1.410  0.00  0.00     0.270 C 
ATOM      9  C   UNL d   1       5.890  -6.089   3.608  0.00  0.00     0.270 C 
ATOM     10  H   UNL d   1       4.132  -5.076   3.239  0.00  0.00     0.279 HD
ENDBRANCH   6   7
BRANCH   6  11
ATOM     11  C   UNL d   1       5.752  -3.189   4.315  0.00  0.00    -0.023 A 
ATOM     12  C   UNL d   1       4.706  -3.347   5.229  0.00  0.00     0.012 A 
ATOM     13  C   UNL d   1       4.780  -2.774   6.500  0.00  0.00     0.040 A 
ATOM     14  C   UNL d   1       5.923  -2.080   6.939  0.00  0.00     0.101 A 
ATOM     15  C   UNL d   1       6.991  -1.938   6.026  0.00  0.00     0.102 A 
ATOM     16  C   UNL d   1       6.889  -2.498   4.736  0.00  0.00     0.049 A 
BRANCH  14  17
ATOM     17  O   UNL d   1       5.923  -1.911   8.303  0.00  0.00    -0.353 OA
ATOM     18  C   UNL d   1       6.077  -0.637   8.924  0.00  0.00     0.210 C 
ENDBRANCH  14  17
BRANCH  15  19
ATOM     19  O   UNL d   1       8.226  -1.355   6.146  0.00  0.00    -0.353 OA
ATOM     20  C   UNL d   1       8.431  -0.638   7.331  0.00  0.00     0.210 C 
ENDBRANCH  15  19
ENDBRANCH   6  11
ENDBRANCH   5   6
ENDBRANCH   1   5
BRANCH   2  21
ATOM     21  C   UNL d   1       4.679   1.060   1.499  0.00  0.00     0.090 A 
ATOM     22  C   UNL d   1       3.799   2.076   1.809  0.00  0.00     0.139 A 
ATOM     23  N   UNL d   1       4.127   3.396   1.798  0.00  0.00    -0.234 NA
ATOM     24  C   UNL d   1       5.380   3.694   1.427  0.00  0.00     0.189 A 
ATOM     25  N   UNL d   1       6.298   2.777   1.080  0.00  0.00    -0.210 NA
ATOM     26  C   UNL d   1       5.923   1.489   1.119  0.00  0.00     0.146 A 
ATOM     27 CL   UNL d   1       7.190   0.427   0.632  0.00  0.00    -0.061 Cl
BRANCH  24  28
ATOM     28  S   UNL d   1       5.990   5.346   1.434  0.00  0.00    -0.086 SA
BRANCH  28  29
ATOM     29  C   UNL d   1       4.546   6.393   1.853  0.00  0.00     0.121 C 
BRANCH  29  30
ATOM     30  C   UNL d   1       4.897   7.877   1.767  0.00  0.00    -0.048 A 
ATOM     31  C   UNL d   1       4.308   8.812   2.638  0.00  0.00     0.011 A 
ATOM     32  C   UNL d   1       4.544  10.184   2.473  0.00  0.00     0.043 A 
ATOM     33  C   UNL d   1       5.429  10.623   1.495  0.00  0.00     0.116 A 
ATOM     34  F   UNL d   1       5.707  11.928   1.385  0.00  0.00    -0.206 F 
ATOM     35  C   UNL d   1       6.035   9.724   0.635  0.00  0.00     0.043 A 
ATOM     36  C   UNL d   1       5.748   8.366   0.754  0.00  0.00     0.011 A 
ENDBRANCH  29  30
ENDBRANCH  28  29
ENDBRANCH  24  28
ENDBRANCH   2  21
TORSDOF 10
