REMARK  9 active torsions:
REMARK  status: ('A' for Active; 'I' for Inactive)
REMARK    1  A    between atoms: O_2  and  C_3 
REMARK    2  A    between atoms: C_6  and  N_7 
REMARK    3  A    between atoms: N_7  and  C_8 
REMARK    4  A    between atoms: C_9  and  C_10 
REMARK    5  A    between atoms: C_10  and  C_12 
REMARK    6  A    between atoms: C_15  and  C_16 
REMARK    7  A    between atoms: C_16  and  N_17 
REMARK    8  A    between atoms: N_17  and  C_18 
REMARK    9  A    between atoms: C_21  and  C_22 
ROOT
ATOM      1  C   UNL d   1       6.391  -7.056   6.315  0.00  0.00     0.114 C 
ATOM      2  N   UNL d   1       6.761  -8.283   6.144  0.00  0.00    -0.134 NA
ATOM      3  O   UNL d   1       7.609  -8.635   7.224  0.00  0.00    -0.249 OA
ATOM      4  C   UNL d   1       7.670  -7.547   8.159  0.00  0.00     0.173 C 
ATOM      5  C   UNL d   1       6.938  -6.384   7.512  0.00  0.00     0.101 C 
ENDROOT
BRANCH   4   6
ATOM      6  C   UNL d   1       9.152  -7.208   8.445  0.00  0.00     0.128 C 
BRANCH   6   7
ATOM      7  N   UNL d   1       9.814  -8.231   9.284  0.00  0.00    -0.275 NA
ATOM      8  H   UNL d   1       9.480  -9.182   9.079  0.00  0.00     0.129 HD
BRANCH   7   9
ATOM      9  C   UNL d   1      11.201  -8.182   9.421  0.00  0.00     0.102 A 
ATOM     10  N   UNL d   1      11.751  -7.055   9.909  0.00  0.00    -0.355 N 
ATOM     11  C   UNL d   1      13.075  -6.856  10.036  0.00  0.00     0.105 A 
ATOM     12  H   UNL d   1      11.102  -6.338  10.225  0.00  0.00     0.166 HD
ATOM     13  C   UNL d   1      13.969  -7.883   9.752  0.00  0.00     0.065 A 
ATOM     14  C   UNL d   1      13.448  -9.120   9.367  0.00  0.00     0.044 A 
ATOM     15  C   UNL d   1      12.075  -9.255   9.146  0.00  0.00     0.073 A 
ATOM     16 CL   UNL d   1      11.493 -10.726   8.468  0.00  0.00    -0.081 Cl
BRANCH  13  17
ATOM     17  C   UNL d   1      15.450  -7.615   9.811  0.00  0.00     0.418 C 
ATOM     18  F   UNL d   1      15.798  -6.639   8.934  0.00  0.00    -0.166 F 
ATOM     19  F   UNL d   1      15.837  -7.183  11.036  0.00  0.00    -0.166 F 
ATOM     20  F   UNL d   1      16.207  -8.697   9.511  0.00  0.00    -0.166 F 
ENDBRANCH  13  17
ENDBRANCH   7   9
ENDBRANCH   6   7
ENDBRANCH   4   6
BRANCH   1  21
ATOM     21  C   UNL d   1       5.507  -6.306   5.341  0.00  0.00     0.200 C 
ATOM     22  O   UNL d   1       4.452  -6.814   4.975  0.00  0.00    -0.286 OA
BRANCH  21  23
ATOM     23  C   UNL d   1       5.978  -4.965   4.886  0.00  0.00     0.074 C 
ATOM     24  C   UNL d   1       5.251  -4.243   4.021  0.00  0.00     0.092 C 
BRANCH  24  25
ATOM     25  N   UNL d   1       5.540  -3.003   3.491  0.00  0.00    -0.366 N 
ATOM     26  H   UNL d   1       6.381  -2.541   3.818  0.00  0.00     0.165 HD
BRANCH  25  27
ATOM     27  C   UNL d   1       4.725  -2.220   2.643  0.00  0.00     0.032 A 
ATOM     28  C   UNL d   1       5.122  -0.927   2.267  0.00  0.00     0.032 A 
ATOM     29  C   UNL d   1       4.285  -0.111   1.487  0.00  0.00     0.039 A 
ATOM     30  C   UNL d   1       3.069  -0.593   1.001  0.00  0.00     0.068 A 
ATOM     31  C   UNL d   1       2.680  -1.882   1.336  0.00  0.00     0.039 A 
ATOM     32  C   UNL d   1       3.501  -2.679   2.142  0.00  0.00     0.032 A 
BRANCH  30  33
ATOM     33  O   UNL d   1       2.407   0.225   0.129  0.00  0.00    -0.356 OA
ATOM     34  C   UNL d   1       0.990   0.093   0.076  0.00  0.00     0.210 C 
ENDBRANCH  30  33
ENDBRANCH  25  27
ENDBRANCH  24  25
ENDBRANCH  21  23
ENDBRANCH   1  21
TORSDOF 9
