REMARK  10 active torsions:
REMARK  status: ('A' for Active; 'I' for Inactive)
REMARK    1  A    between atoms: C_2  and  N_3 
REMARK    2  A    between atoms: N_3  and  C_4 
REMARK    3  A    between atoms: C_4  and  S_18 
REMARK    4  A    between atoms: N_5  and  C_6 
REMARK    5  A    between atoms: C_6  and  C_7 
REMARK    6  A    between atoms: C_7  and  C_8 
REMARK    7  A    between atoms: C_11  and  O_12 
REMARK    8  A    between atoms: C_14  and  O_15 
REMARK    9  A    between atoms: C_19  and  S_18 
REMARK   10  A    between atoms: N_23  and  C_24 
ROOT
ATOM      1  C   UNL d   1       7.795  -3.725   4.553  0.00  0.00     0.136 C 
ATOM      2  N   UNL d   1       8.191  -4.718   5.343  0.00  0.00    -0.371 N 
ATOM      3  H   UNL d   1       8.181  -5.644   4.925  0.00  0.00     0.161 HD
ENDROOT
BRANCH   1   4
ATOM      4  N   UNL d   1       7.712  -2.457   4.959  0.00  0.00    -0.371 N 
ATOM      5  H   UNL d   1       7.236  -1.798   4.380  0.00  0.00     0.161 HD
BRANCH   4   6
ATOM      6  C   UNL d   1       8.171  -1.820   6.208  0.00  0.00     0.117 C 
ATOM      7  C   UNL d   1       8.087  -0.322   6.195  0.00  0.00     0.026 C 
ENDBRANCH   4   6
ENDBRANCH   1   4
BRANCH   1   8
ATOM      8  S   UNL d   1       7.415  -4.259   2.923  0.00  0.00    -0.080 SA
BRANCH   8   9
ATOM      9  C   UNL d   1       6.886  -2.871   1.865  0.00  0.00     0.157 C 
ATOM     10  C   UNL d   1       7.460  -1.545   2.287  0.00  0.00     0.129 C 
ATOM     11  C   UNL d   1       8.057  -0.904   1.102  0.00  0.00     0.232 C 
ATOM     12  O   UNL d   1       8.592   0.182   1.174  0.00  0.00    -0.273 OA
ATOM     13  N   UNL d   1       7.925  -1.768   0.059  0.00  0.00    -0.248 N 
ATOM     14  C   UNL d   1       7.341  -2.970   0.411  0.00  0.00     0.246 C 
ATOM     15  O   UNL d   1       7.195  -3.957  -0.297  0.00  0.00    -0.271 OA
BRANCH  13  16
ATOM     16  C   UNL d   1       8.508  -1.503  -1.185  0.00  0.00     0.084 A 
ATOM     17  C   UNL d   1       7.706  -1.482  -2.325  0.00  0.00     0.033 A 
ATOM     18  C   UNL d   1       8.289  -1.257  -3.571  0.00  0.00     0.002 A 
ATOM     19  C   UNL d   1       9.658  -0.999  -3.673  0.00  0.00     0.003 A 
ATOM     20  C   UNL d   1      10.458  -0.994  -2.531  0.00  0.00     0.044 A 
ATOM     21  C   UNL d   1       9.879  -1.237  -1.293  0.00  0.00     0.143 A 
ATOM     22  F   UNL d   1      10.663  -1.279  -0.204  0.00  0.00    -0.204 F 
ENDBRANCH  13  16
ENDBRANCH   8   9
ENDBRANCH   1   8
BRANCH   2  23
ATOM     23  C   UNL d   1       8.591  -4.500   6.724  0.00  0.00     0.126 C 
BRANCH  23  24
ATOM     24  C   UNL d   1       8.973  -5.688   7.553  0.00  0.00     0.058 C 
BRANCH  24  25
ATOM     25  C   UNL d   1       9.334  -5.199   8.948  0.00  0.00    -0.054 A 
ATOM     26  C   UNL d   1       8.818  -5.872  10.051  0.00  0.00     0.010 A 
ATOM     27  C   UNL d   1       9.088  -5.418  11.343  0.00  0.00     0.040 A 
ATOM     28  C   UNL d   1       9.940  -4.327  11.570  0.00  0.00     0.101 A 
ATOM     29  C   UNL d   1      10.446  -3.617  10.472  0.00  0.00     0.102 A 
ATOM     30  C   UNL d   1      10.150  -4.069   9.179  0.00  0.00     0.046 A 
BRANCH  28  31
ATOM     31  O   UNL d   1      10.193  -4.096  12.899  0.00  0.00    -0.353 OA
ATOM     32  C   UNL d   1      11.183  -3.123  13.222  0.00  0.00     0.210 C 
ENDBRANCH  28  31
BRANCH  29  33
ATOM     33  O   UNL d   1      11.194  -2.501  10.715  0.00  0.00    -0.353 OA
ATOM     34  C   UNL d   1      11.691  -1.733   9.636  0.00  0.00     0.210 C 
ENDBRANCH  29  33
ENDBRANCH  24  25
ENDBRANCH  23  24
ENDBRANCH   2  23
TORSDOF 10
