REMARK  13 active torsions:
REMARK  status: ('A' for Active; 'I' for Inactive)
REMARK    1  A    between atoms: C_2  and  C_3 
REMARK    2  A    between atoms: C_3  and  C_4 
REMARK    3  A    between atoms: C_4  and  O_5 
REMARK    4  A    between atoms: O_5  and  C_6 
REMARK    5  A    between atoms: C_12  and  C_13 
REMARK       I    between atoms: C_13  and  N_15 
REMARK    6  A    between atoms: N_15  and  C_16 
REMARK    7  A    between atoms: C_16  and  N_18 
REMARK    8  A    between atoms: N_18  and  C_19 
REMARK    9  A    between atoms: C_24  and  C_25 
REMARK       I    between atoms: C_25  and  N_27 
REMARK   10  A    between atoms: N_27  and  C_28 
REMARK   11  A    between atoms: C_28  and  C_29 
REMARK   12  A    between atoms: C_29  and  C_30 
REMARK   13  A    between atoms: C_30  and  O_31 
ROOT
ATOM      1  C   UNL d   1       3.845   1.943   5.487  0.00  0.00     0.179 C 
ATOM      2  S   UNL d   1       4.438   1.607   7.029  0.00  0.00    -0.040 SA
ENDROOT
BRANCH   1   3
ATOM      3  N   UNL d   1       4.659   2.099   4.332  0.00  0.00    -0.299 N 
ATOM      4  C   UNL d   1       6.075   2.179   4.314  0.00  0.00     0.260 C 
ATOM      5  O   UNL d   1       6.774   2.178   5.327  0.00  0.00    -0.267 OA
ATOM      6  H   UNL d   1       4.206   2.306   3.447  0.00  0.00     0.171 HD
BRANCH   4   7
ATOM      7  C   UNL d   1       6.841   2.421   3.050  0.00  0.00     0.067 A 
ATOM      8  C   UNL d   1       8.226   2.704   3.181  0.00  0.00     0.039 A 
ATOM      9  C   UNL d   1       9.047   2.833   2.065  0.00  0.00     0.012 A 
ATOM     10  C   UNL d   1       8.516   2.640   0.800  0.00  0.00     0.022 A 
ATOM     11 BR   UNL d   1      10.872   3.282   2.270  0.00  0.00    -0.051 Br
ATOM     12  C   UNL d   1       7.142   2.417   0.654  0.00  0.00     0.039 A 
ATOM     13  C   UNL d   1       6.296   2.343   1.773  0.00  0.00     0.084 A 
BRANCH  13  14
ATOM     14  O   UNL d   1       4.934   2.290   1.651  0.00  0.00    -0.350 OA
BRANCH  14  15
ATOM     15  C   UNL d   1       4.501   1.206   0.832  0.00  0.00     0.175 C 
BRANCH  15  16
ATOM     16  C   UNL d   1       2.980   1.210   0.851  0.00  0.00     0.026 C 
BRANCH  16  17
ATOM     17  C   UNL d   1       2.438   0.070   0.004  0.00  0.00    -0.002 C 
ATOM     18  C   UNL d   1       0.922   0.067   0.002  0.00  0.00     0.005 C 
ENDBRANCH  16  17
ENDBRANCH  15  16
ENDBRANCH  14  15
ENDBRANCH  13  14
ENDBRANCH   4   7
ENDBRANCH   1   3
BRANCH   1  19
ATOM     19  N   UNL d   1       2.466   2.197   5.233  0.00  0.00    -0.332 N 
ATOM     20  H   UNL d   1       2.071   1.852   4.364  0.00  0.00     0.168 HD
BRANCH  19  21
ATOM     21  C   UNL d   1       1.503   2.395   6.298  0.00  0.00     0.050 A 
ATOM     22  C   UNL d   1       0.444   1.469   6.445  0.00  0.00     0.030 A 
ATOM     23  C   UNL d   1      -0.491   1.591   7.490  0.00  0.00     0.002 A 
ATOM     24  C   UNL d   1      -0.360   2.611   8.425  0.00  0.00     0.001 A 
ATOM     25  C   UNL d   1       0.664   3.548   8.278  0.00  0.00     0.019 A 
ATOM     26  C   UNL d   1       1.588   3.478   7.208  0.00  0.00     0.058 A 
BRANCH  26  27
ATOM     27  C   UNL d   1       2.599   4.594   7.131  0.00  0.00     0.253 C 
ATOM     28  O   UNL d   1       2.759   5.350   8.099  0.00  0.00    -0.268 OA
ATOM     29  N   UNL d   1       3.323   4.749   5.967  0.00  0.00    -0.357 N 
ATOM     30  H   UNL d   1       3.145   4.086   5.227  0.00  0.00     0.162 HD
BRANCH  29  31
ATOM     31  C   UNL d   1       4.569   5.502   5.941  0.00  0.00     0.125 C 
BRANCH  31  32
ATOM     32  C   UNL d   1       5.426   5.184   4.731  0.00  0.00     0.046 C 
BRANCH  32  33
ATOM     33  C   UNL d   1       6.658   6.046   4.575  0.00  0.00     0.165 C 
BRANCH  33  34
ATOM     34  O   UNL d   1       7.341   5.688   3.380  0.00  0.00    -0.401 OA
ATOM     35  H   UNL d   1       7.900   4.927   3.608  0.00  0.00     0.209 HD
ENDBRANCH  33  34
ENDBRANCH  32  33
ENDBRANCH  31  32
ENDBRANCH  29  31
ENDBRANCH  26  27
ENDBRANCH  19  21
ENDBRANCH   1  19
TORSDOF 13
