REMARK  7 active torsions:
REMARK  status: ('A' for Active; 'I' for Inactive)
REMARK    1  A    between atoms: C_5  and  N_6 
REMARK       I    between atoms: N_6  and  C_7 
REMARK    2  A    between atoms: C_7  and  C_9 
REMARK    3  A    between atoms: C_9  and  N_10 
REMARK    4  A    between atoms: N_13  and  C_14 
REMARK    5  A    between atoms: C_14  and  C_15 
REMARK    6  A    between atoms: C_23  and  C_24 
REMARK       I    between atoms: C_24  and  N_26 
REMARK    7  A    between atoms: N_26  and  N_27 
ROOT
ATOM      1  N   UNL d   1      -5.793   2.767  -0.144  0.00  0.00    -0.283 N 
ATOM      2  C   UNL d   1      -7.174   2.915  -0.330  0.00  0.00     0.333 C 
ATOM      3  O   UNL d   1      -7.825   1.906  -0.623  0.00  0.00    -0.246 OA
ATOM      4  N   UNL d   1      -7.754   4.173  -0.162  0.00  0.00    -0.265 N 
ATOM      5  C   UNL d   1      -7.047   5.359  -0.122  0.00  0.00     0.265 C 
ATOM      6  O   UNL d   1      -7.610   6.451  -0.126  0.00  0.00    -0.267 OA
ATOM      7  C   UNL d   1      -5.619   5.237  -0.095  0.00  0.00     0.074 A 
ATOM      8  C   UNL d   1      -4.659   6.322  -0.071  0.00  0.00    -0.021 A 
ATOM      9  C   UNL d   1      -5.043   7.734  -0.067  0.00  0.00     0.051 C 
ATOM     10  C   UNL d   1      -3.341   5.910  -0.059  0.00  0.00     0.083 A 
ATOM     11  S   UNL d   1      -3.362   4.255  -0.090  0.00  0.00    -0.065 SA
ATOM     12  C   UNL d   1      -5.047   3.994  -0.091  0.00  0.00     0.098 A 
ENDROOT
BRANCH   1  13
ATOM     13  C   UNL d   1      -5.415   1.279  -0.108  0.00  0.00     0.237 C 
BRANCH  13  14
ATOM     14  C   UNL d   1      -3.967   0.973  -0.040  0.00  0.00     0.240 C 
ATOM     15  N   UNL d   1      -3.273  -0.174  -0.051  0.00  0.00    -0.326 N 
ATOM     16  H   UNL d   1      -3.739  -1.070  -0.062  0.00  0.00     0.169 HD
ATOM     17  O   UNL d   1      -3.271   1.959   0.084  0.00  0.00    -0.271 OA
BRANCH  15  18
ATOM     18  C   UNL d   1      -1.817  -0.109  -0.014  0.00  0.00     0.034 A 
ATOM     19  C   UNL d   1      -1.113  -1.292  -0.002  0.00  0.00     0.030 A 
ATOM     20  C   UNL d   1       0.292  -1.271   0.005  0.00  0.00     0.009 A 
ATOM     21  C   UNL d   1       1.027  -0.074   0.003  0.00  0.00    -0.062 A 
ATOM     22  C   UNL d   1       2.517  -0.033  -0.013  0.00  0.00     0.048 C 
ATOM     23  C   UNL d   1       0.349   1.121   0.006  0.00  0.00     0.009 A 
ATOM     24  C   UNL d   1      -1.033   1.089  -0.001  0.00  0.00     0.030 A 
ENDBRANCH  15  18
ENDBRANCH  13  14
ENDBRANCH   1  13
BRANCH   4  25
ATOM     25  C   UNL d   1      -9.204   4.409  -0.167  0.00  0.00     0.141 C 
BRANCH  25  26
ATOM     26  C   UNL d   1     -10.088   3.178  -0.100  0.00  0.00    -0.004 C 
ATOM     27  C   UNL d   1      -9.831   2.415   1.206  0.00  0.00     0.011 C 
ATOM     28  C   UNL d   1     -11.564   3.530  -0.185  0.00  0.00     0.011 C 
ENDBRANCH  25  26
ENDBRANCH   4  25
BRANCH  10  29
ATOM     29  C   UNL d   1      -2.042   6.609  -0.035  0.00  0.00     0.273 C 
ATOM     30  O   UNL d   1      -0.938   6.057  -0.014  0.00  0.00    -0.266 OA
ATOM     31  N   UNL d   1      -2.115   8.005  -0.022  0.00  0.00    -0.289 N 
ATOM     32  H   UNL d   1      -2.997   8.475  -0.094  0.00  0.00     0.183 HD
BRANCH  31  33
ATOM     33  N   UNL d   1      -0.985   8.836  -0.053  0.00  0.00    -0.247 NA
ATOM     34  H   UNL d   1      -0.156   8.235   0.003  0.00  0.00     0.143 HD
ATOM     35  H   UNL d   1      -0.990   9.394   0.803  0.00  0.00     0.143 HD
ENDBRANCH  31  33
ENDBRANCH  10  29
TORSDOF 7
