REMARK  3 active torsions:
REMARK  status: ('A' for Active; 'I' for Inactive)
REMARK       I    between atoms: C_2  and  N_3 
REMARK    1  A    between atoms: C_2  and  C_12 
REMARK    2  A    between atoms: N_3  and  N_4 
REMARK    3  A    between atoms: N_4  and  C_5 
ROOT
ATOM      1  O   UNL d   1       1.079   0.164  -0.105  0.00  0.00    -0.264 OA
ATOM      2  C   UNL d   1       2.316   0.121  -0.082  0.00  0.00     0.293 C 
ATOM      3  N   UNL d   1       3.074   1.283   0.056  0.00  0.00    -0.264 N 
ATOM      4  H   UNL d   1       4.085   1.271   0.135  0.00  0.00     0.190 HD
ENDROOT
BRANCH   3   5
ATOM      5  N   UNL d   1       2.394   2.493   0.262  0.00  0.00    -0.298 N 
ATOM      6  H   UNL d   1       1.376   2.460   0.336  0.00  0.00     0.187 HD
BRANCH   5   7
ATOM      7  C   UNL d   1       3.079   3.711   0.326  0.00  0.00     0.048 A 
ATOM      8  C   UNL d   1       4.193   3.999  -0.474  0.00  0.00     0.034 A 
ATOM      9  C   UNL d   1       4.876   5.219  -0.353  0.00  0.00     0.044 A 
ATOM     10  C   UNL d   1       4.463   6.152   0.589  0.00  0.00     0.116 A 
ATOM     11  F   UNL d   1       5.126   7.309   0.713  0.00  0.00    -0.206 F 
ATOM     12  C   UNL d   1       3.370   5.894   1.403  0.00  0.00     0.044 A 
ATOM     13  C   UNL d   1       2.680   4.681   1.266  0.00  0.00     0.034 A 
ENDBRANCH   5   7
ENDBRANCH   3   5
BRANCH   2  14
ATOM     14  C   UNL d   1       3.045  -1.123  -0.271  0.00  0.00     0.146 A 
ATOM     15  C   UNL d   1       2.768  -2.188  -1.113  0.00  0.00     0.047 A 
ATOM     16  C   UNL d   1       3.738  -3.186  -0.862  0.00  0.00     0.053 A 
ATOM     17  C   UNL d   1       4.538  -2.698   0.148  0.00  0.00     0.145 A 
ATOM     18 CL   UNL d   1       5.849  -3.535   0.885  0.00  0.00    -0.057 Cl
ATOM     19  O   UNL d   1       4.146  -1.430   0.491  0.00  0.00    -0.293 OA
ENDBRANCH   2  14
TORSDOF 3
