REMARK  5 active torsions:
REMARK  status: ('A' for Active; 'I' for Inactive)
REMARK    1  A    between atoms: O_1  and  C_2 
REMARK    2  A    between atoms: C_5  and  C_6 
REMARK    3  A    between atoms: N_7  and  C_8 
REMARK    4  A    between atoms: C_11  and  O_12 
REMARK    5  A    between atoms: C_13  and  C_14 
ROOT
ATOM      1  C   UNL d   1      -5.525  -0.970  -0.083  0.00  0.00     0.057 A 
ATOM      2  C   UNL d   1      -6.221  -0.129  -0.959  0.00  0.00     0.034 A 
ATOM      3  C   UNL d   1      -7.622  -0.125  -0.997  0.00  0.00     0.040 A 
ATOM      4  C   UNL d   1      -8.344  -0.985  -0.168  0.00  0.00     0.080 A 
ATOM      5  C   UNL d   1      -7.679  -1.844   0.714  0.00  0.00     0.052 A 
ATOM      6  C   UNL d   1      -6.270  -1.826   0.742  0.00  0.00     0.050 A 
ENDROOT
BRANCH   1   7
ATOM      7  N   UNL d   1      -4.119  -1.048  -0.048  0.00  0.00    -0.260 NA
ATOM      8  C   UNL d   1      -3.408   0.041  -0.025  0.00  0.00     0.128 C 
BRANCH   8   9
ATOM      9  C   UNL d   1      -1.922   0.011  -0.006  0.00  0.00    -0.018 A 
ATOM     10  C   UNL d   1      -1.203   1.215   0.002  0.00  0.00     0.015 A 
ATOM     11  C   UNL d   1       0.200   1.198   0.011  0.00  0.00     0.037 A 
ATOM     12  C   UNL d   1       0.871  -0.022   0.010  0.00  0.00     0.065 A 
ATOM     13  C   UNL d   1       0.165  -1.220   0.010  0.00  0.00     0.037 A 
ATOM     14  C   UNL d   1      -1.233  -1.206   0.000  0.00  0.00     0.015 A 
BRANCH  12  15
ATOM     15  O   UNL d   1       2.233  -0.088   0.008  0.00  0.00    -0.361 OA
ATOM     16  H   UNL d   1       2.596   0.812  -0.016  0.00  0.00     0.217 HD
ENDBRANCH  12  15
ENDBRANCH   8   9
ENDBRANCH   1   7
BRANCH   5  17
ATOM     17  C   UNL d   1      -8.408  -2.615   1.712  0.00  0.00     0.183 A 
ATOM     18  N   UNL d   1      -8.339  -2.470   3.022  0.00  0.00    -0.221 NA
ATOM     19  C   UNL d   1      -9.287  -3.333   3.492  0.00  0.00     0.093 A 
ATOM     20  C   UNL d   1      -9.711  -3.575   4.803  0.00  0.00     0.034 A 
ATOM     21  C   UNL d   1      -9.868  -4.030   2.445  0.00  0.00     0.106 A 
ATOM     22  C   UNL d   1     -10.706  -4.537   5.011  0.00  0.00     0.002 A 
ATOM     23  C   UNL d   1     -11.260  -5.241   3.934  0.00  0.00     0.003 A 
ATOM     24  C   UNL d   1     -10.854  -5.001   2.610  0.00  0.00     0.040 A 
ATOM     25  O   UNL d   1      -9.301  -3.572   1.281  0.00  0.00    -0.289 OA
ENDBRANCH   5  17
BRANCH   4  26
ATOM     26  O   UNL d   1      -9.712  -0.958  -0.179  0.00  0.00    -0.360 OA
ATOM     27  H   UNL d   1     -10.027  -0.323  -0.841  0.00  0.00     0.217 HD
ENDBRANCH   4  26
TORSDOF 5
