@<TRIPOS>MOLECULE
*****
 42 42 0 0 0
SMALL
GASTEIGER

@<TRIPOS>ATOM
      1 C          -1.0037    1.6443    3.4729 C.3     1  UNL1       -0.0396
      2 C          -1.5460    0.3757    2.8941 C.ar    1  UNL1       -0.0470
      3 C          -1.3355   -0.8452    3.5310 C.ar    1  UNL1       -0.0579
      4 C          -1.8211   -2.0179    2.9688 C.ar    1  UNL1       -0.0458
      5 C          -2.5330   -1.9982    1.7647 C.ar    1  UNL1        0.0795
      6 C          -2.9876   -3.2802    1.1908 C.2     1  UNL1        0.2637
      7 O          -3.6779   -3.2708    0.1563 O.2     1  UNL1       -0.2685
      8 N          -2.6293   -4.4636    1.8430 N.am    1  UNL1       -0.2303
      9 N          -3.1179   -5.6209    1.2809 N.am    1  UNL1       -0.2341
     10 C          -2.9961   -6.8770    1.8217 C.2     1  UNL1        0.2293
     11 O          -2.3731   -7.0584    2.8705 O.2     1  UNL1       -0.2743
     12 C          -3.6374   -8.0822    1.0648 C.3     1  UNL1        0.0282
     13 C          -4.4664   -7.9363   -0.2570 C.3     1  UNL1       -0.0333
     14 C          -4.8844   -6.5135   -0.5527 C.3     1  UNL1       -0.0617
     15 C          -5.7426   -8.8174   -0.2816 C.3     1  UNL1       -0.0437
     16 C          -6.5878   -8.5227   -1.5337 C.3     1  UNL1       -0.0624
     17 C          -5.3936  -10.3024   -0.2644 C.3     1  UNL1       -0.0624
     18 C          -2.7728   -0.7643    1.1366 C.ar    1  UNL1        0.1292
     19 O          -3.4796   -0.6032   -0.0265 O.3     1  UNL1       -0.5060
     20 C          -2.2726    0.4109    1.6974 C.ar    1  UNL1       -0.0165
     21 H          -0.4548    1.4599    4.4022 H       1  UNL1        0.0278
     22 H          -1.8253    2.3318    3.6926 H       1  UNL1        0.0278
     23 H          -0.3164    2.1110    2.7609 H       1  UNL1        0.0278
     24 H          -0.7869   -0.9102    4.4668 H       1  UNL1        0.0620
     25 H          -1.6168   -2.9348    3.5042 H       1  UNL1        0.0626
     26 H          -2.1826   -4.5673    2.7466 H       1  UNL1        0.1731
     27 H          -3.9093   -5.3473    0.7330 H       1  UNL1        0.1728
     28 H          -4.2431   -8.6112    1.8143 H       1  UNL1        0.0361
     29 H          -2.8055   -8.7716    0.8430 H       1  UNL1        0.0361
     30 H          -3.8171   -8.2596   -1.0834 H       1  UNL1        0.0305
     31 H          -5.4148   -6.1317    0.3327 H       1  UNL1        0.0233
     32 H          -5.5409   -6.3075   -1.3886 H       1  UNL1        0.0233
     33 H          -3.9840   -5.9774   -0.8632 H       1  UNL1        0.0233
     34 H          -6.3510   -8.5858    0.6032 H       1  UNL1        0.0298
     35 H          -5.9874   -8.6656   -2.4398 H       1  UNL1        0.0232
     36 H          -6.9739   -7.4992   -1.5448 H       1  UNL1        0.0232
     37 H          -7.4759   -9.1524   -1.5814 H       1  UNL1        0.0232
     38 H          -4.7801  -10.5634   -1.1332 H       1  UNL1        0.0232
     39 H          -6.3055  -10.9073   -0.2965 H       1  UNL1        0.0232
     40 H          -4.8411  -10.5782    0.6377 H       1  UNL1        0.0232
     41 H          -3.7942   -1.4798   -0.3314 H       1  UNL1        0.2922
     42 H          -2.4458    1.3614    1.1970 H       1  UNL1        0.0657
@<TRIPOS>BOND
     1     1     2    1
     2     2     3   ar
     3     3     4   ar
     4     4     5   ar
     5     5     6    1
     6     6     7    2
     7     6     8   am
     8     8     9    1
     9     9    10   am
    10    10    11    2
    11    10    12    1
    12    13    15    1
    13    15    16    1
    14    15    17    1
    15     5    18   ar
    16    18    19    1
    17    18    20   ar
    18     2    20   ar
    19    13    14    1
    20    13    12    1
    21     1    21    1
    22     1    22    1
    23     1    23    1
    24     3    24    1
    25     4    25    1
    26     8    26    1
    27     9    27    1
    28    12    28    1
    29    12    29    1
    30    13    30    1
    31    14    31    1
    32    14    32    1
    33    14    33    1
    34    15    34    1
    35    16    35    1
    36    16    36    1
    37    16    37    1
    38    17    38    1
    39    17    39    1
    40    17    40    1
    41    19    41    1
    42    20    42    1
