@<TRIPOS>MOLECULE
*****
 48 49 0 0 0
SMALL
GASTEIGER

@<TRIPOS>ATOM
      1 C           4.6409    1.3408    5.6190 C.3     1  UNL1       -0.0307
      2 C           3.9350    2.5137    6.2931 C.3     1  UNL1        0.0869
      3 O           4.4071    2.5760    7.6349 O.3     1  UNL1       -0.4904
      4 C           3.6346    3.1898    8.5829 C.ar    1  UNL1        0.1416
      5 C           4.3955    4.0496    9.4034 C.ar    1  UNL1       -0.0181
      6 C           3.8202    4.7563   10.4557 C.ar    1  UNL1       -0.0582
      7 C           2.4501    4.6638   10.6546 C.ar    1  UNL1       -0.0598
      8 C           1.6771    3.8017    9.8519 C.ar    1  UNL1       -0.0369
      9 C           2.2596    3.0052    8.8382 C.ar    1  UNL1        0.0768
     10 N           1.4045    2.0972    8.1269 N.am    1  UNL1       -0.2664
     11 C           1.8344    0.9233    7.5172 C.2     1  UNL1        0.3040
     12 O           2.8253    0.2800    7.8592 O.2     1  UNL1       -0.2525
     13 N           1.1693    0.6583    6.3296 N.am    1  UNL1       -0.2966
     14 C           1.7871   -0.1143    5.2317 C.3     1  UNL1        0.0423
     15 C           0.9081   -1.0432    4.3631 C.3     1  UNL1        0.1046
     16 O           1.2333   -0.9169    2.9682 O.3     1  UNL1       -0.3869
     17 C          -0.5791   -0.7946    4.5584 C.3     1  UNL1        0.1169
     18 O          -0.8406   -0.9297    5.9559 O.3     1  UNL1       -0.4893
     19 C          -2.1215   -0.7482    6.3602 C.ar    1  UNL1        0.1210
     20 C          -2.2978   -0.1228    7.5990 C.ar    1  UNL1       -0.0135
     21 C          -3.5700   -0.0406    8.1605 C.ar    1  UNL1        0.0190
     22 C          -4.6645   -0.5284    7.4366 C.ar    1  UNL1        0.2734
     23 N          -6.0225   -0.3310    7.9500 N.pl3   1  UNL1        0.0796
     24 O          -6.1484    0.2563    9.0333 O.2     1  UNL1        0.0414
     25 O          -6.9638   -0.7340    7.2523 O.co2   1  UNL1       -0.5760
     26 C          -4.4832   -1.1572    6.1982 C.ar    1  UNL1        0.0190
     27 C          -3.2042   -1.2704    5.6651 C.ar    1  UNL1       -0.0135
     28 H           4.2023    1.1174    4.6448 H       1  UNL1        0.0262
     29 H           4.6051    0.4255    6.2239 H       1  UNL1        0.0262
     30 H           5.6986    1.5592    5.4710 H       1  UNL1        0.0262
     31 H           2.8625    2.4034    6.1934 H       1  UNL1        0.0694
     32 H           4.1329    3.4563    5.7807 H       1  UNL1        0.0694
     33 H           5.4593    4.1708    9.2064 H       1  UNL1        0.0655
     34 H           4.4389    5.3719   11.1063 H       1  UNL1        0.0619
     35 H           1.9896    5.2540   11.4458 H       1  UNL1        0.0618
     36 H           0.6165    3.7348   10.0809 H       1  UNL1        0.0637
     37 H           0.4104    2.2177    8.2454 H       1  UNL1        0.1565
     38 H           0.1621    0.6584    6.3898 H       1  UNL1        0.1503
     39 H           2.6319   -0.6956    5.6130 H       1  UNL1        0.0489
     40 H           2.1938    0.6403    4.5513 H       1  UNL1        0.0489
     41 H           1.1394   -2.0816    4.6321 H       1  UNL1        0.0643
     42 H           1.0928    0.0053    2.6905 H       1  UNL1        0.2100
     43 H          -1.1403   -1.5058    3.9453 H       1  UNL1        0.0723
     44 H          -0.8229    0.2224    4.2247 H       1  UNL1        0.0723
     45 H          -1.4486    0.2932    8.1370 H       1  UNL1        0.0656
     46 H          -3.6898    0.3903    9.1523 H       1  UNL1        0.0686
     47 H          -5.3170   -1.5791    5.6434 H       1  UNL1        0.0686
     48 H          -3.0700   -1.7977    4.7271 H       1  UNL1        0.0656
@<TRIPOS>UNITY_ATOM_ATTR
23 1
charge 1
25 1
charge -1
@<TRIPOS>BOND
     1     1     2    1
     2     2     3    1
     3     3     4    1
     4     4     5   ar
     5     5     6   ar
     6     6     7   ar
     7     7     8   ar
     8     8     9   ar
     9     4     9   ar
    10     9    10    1
    11    10    11   am
    12    11    12    2
    13    11    13   am
    14    13    14    1
    15    15    17    1
    16    17    18    1
    17    18    19    1
    18    19    20   ar
    19    20    21   ar
    20    21    22   ar
    21    22    23    1
    22    23    24    2
    23    23    25    1
    24    22    26   ar
    25    26    27   ar
    26    19    27   ar
    27    15    16    1
    28    15    14    1
    29     1    28    1
    30     1    29    1
    31     1    30    1
    32     2    31    1
    33     2    32    1
    34     5    33    1
    35     6    34    1
    36     7    35    1
    37     8    36    1
    38    10    37    1
    39    13    38    1
    40    14    39    1
    41    14    40    1
    42    15    41    1
    43    16    42    1
    44    17    43    1
    45    17    44    1
    46    20    45    1
    47    21    46    1
    48    26    47    1
    49    27    48    1
