REMARK  3 active torsions:
REMARK  status: ('A' for Active; 'I' for Inactive)
REMARK       I    between atoms: N_1  and  C_2 
REMARK    1  A    between atoms: C_2  and  C_4 
REMARK       I    between atoms: N_7  and  C_8 
REMARK    2  A    between atoms: C_8  and  C_10 
REMARK    3  A    between atoms: C_13  and  N_14 
ROOT
ATOM      1  C   UNL d   1       7.710   2.631  -0.397  0.00  0.00     0.032 C 
ATOM      2  C   UNL d   1       8.710   2.986   0.518  0.00  0.00     0.019 C 
ATOM      3  C   UNL d   1      10.044   2.512   0.359  0.00  0.00     0.032 C 
ATOM      4  C   UNL d   1      10.394   1.644  -0.687  0.00  0.00     0.059 C 
ATOM      5  C   UNL d   1       9.369   1.441  -1.622  0.00  0.00     0.032 C 
ATOM      6  C   UNL d   1       8.058   1.868  -1.485  0.00  0.00     0.019 C 
ENDROOT
BRANCH   1   7
ATOM      7  C   UNL d   1       6.329   3.166  -0.371  0.00  0.00     0.253 C 
ATOM      8  N   UNL d   1       5.257   2.272  -0.401  0.00  0.00    -0.348 N 
ATOM      9  C   UNL d   1       3.882   2.772  -0.419  0.00  0.00     0.127 C 
ATOM     10  C   UNL d   1       5.361   0.816  -0.323  0.00  0.00     0.127 C 
ATOM     11  C   UNL d   1       3.142   2.313   0.841  0.00  0.00     0.034 C 
ATOM     12  C   UNL d   1       3.209   0.783   1.004  0.00  0.00     0.081 C 
ATOM     13  C   UNL d   1       4.670   0.310   0.940  0.00  0.00     0.034 C 
ATOM     14  O   UNL d   1       6.202   4.387  -0.387  0.00  0.00    -0.267 OA
BRANCH  12  15
ATOM     15  C   UNL d   1       2.391   0.045  -0.057  0.00  0.00     0.219 C 
ATOM     16  N   UNL d   1       1.043   0.180  -0.007  0.00  0.00    -0.370 N 
ATOM     17  H   UNL d   1       0.526  -0.347  -0.701  0.00  0.00     0.159 HD
ATOM     18  H   UNL d   1       0.539   0.604   0.757  0.00  0.00     0.159 HD
ATOM     19  O   UNL d   1       2.877  -0.647  -0.946  0.00  0.00    -0.273 OA
ENDBRANCH  12  15
ENDBRANCH   1   7
BRANCH   4  20
ATOM     20  N   UNL d   1      11.715   1.071  -0.762  0.00  0.00    -0.225 NA
ATOM     21  C   UNL d   1      12.042   0.072  -1.526  0.00  0.00     0.163 C 
ATOM     22  N   UNL d   1      13.277  -0.517  -1.716  0.00  0.00    -0.362 N 
ATOM     23  S   UNL d   1      10.958  -0.809  -2.597  0.00  0.00    -0.084 SA
ATOM     24  C   UNL d   1      13.544  -0.911  -3.111  0.00  0.00     0.112 C 
ATOM     25  H   UNL d   1      14.049  -0.310  -1.091  0.00  0.00     0.162 HD
ATOM     26  C   UNL d   1      13.943   0.318  -3.923  0.00  0.00     0.166 C 
ATOM     27  C   UNL d   1      12.222  -1.462  -3.667  0.00  0.00     0.093 C 
ATOM     28  S   UNL d   1      13.261   0.088  -5.536  0.00  0.00     0.147 S 
ATOM     29  O   UNL d   1      12.658   1.345  -5.959  0.00  0.00    -0.228 OA
ATOM     30  O   UNL d   1      14.227  -0.611  -6.341  0.00  0.00    -0.228 OA
ATOM     31  C   UNL d   1      11.978  -1.054  -5.108  0.00  0.00     0.158 C 
ENDBRANCH   4  20
TORSDOF 3
