@<TRIPOS>MOLECULE
*****
 48 51 0 0 0
SMALL
GASTEIGER

@<TRIPOS>ATOM
      1 C           1.0980    0.0056   -0.0427 C.3     1  UNL1       -0.0652
      2 C           2.6205   -0.0034   -0.0322 C.3     1  UNL1       -0.0545
      3 C           3.1403   -0.9655    1.0328 C.3     1  UNL1       -0.0374
      4 C           4.6723   -1.0248    1.0843 C.3     1  UNL1        0.0159
      5 N           5.1628   -1.9841    2.0701 N.am    1  UNL1       -0.2851
      6 C           4.8792   -3.3546    2.0053 C.2     1  UNL1        0.2655
      7 O           4.3192   -3.9719    1.1113 O.2     1  UNL1       -0.2683
      8 C           5.3521   -3.8612    3.2375 C.ar    1  UNL1        0.1262
      9 N           5.4127   -5.0281    3.8977 N.ar    1  UNL1       -0.2716
     10 N           6.0331   -4.8928    5.0985 N.ar    1  UNL1       -0.1727
     11 C           6.2869   -3.5649    5.2169 C.ar    1  UNL1        0.1020
     12 C           6.8748   -3.0054    6.4343 C.ar    1  UNL1        0.0438
     13 C           8.1099   -3.4512    6.9218 C.ar    1  UNL1       -0.0490
     14 C           8.6407   -2.9096    8.1021 C.ar    1  UNL1       -0.0609
     15 C           7.9543   -1.9101    8.7943 C.ar    1  UNL1       -0.0583
     16 C           6.7331   -1.4521    8.3159 C.ar    1  UNL1       -0.0195
     17 C           6.1952   -2.0245    7.1667 C.ar    1  UNL1        0.1261
     18 O           4.9243   -1.6890    6.8167 O.3     1  UNL1       -0.5061
     19 C           5.8720   -2.8927    4.0467 C.ar    1  UNL1        0.0349
     20 C           5.7990   -1.5736    3.3659 C.3     1  UNL1        0.0811
     21 C           4.9161   -0.6373    4.1489 C.ar    1  UNL1       -0.0190
     22 C           3.5925   -0.9818    4.4831 C.ar    1  UNL1       -0.0563
     23 C           2.7685   -0.0931    5.1702 C.ar    1  UNL1       -0.0580
     24 C           3.2510    1.1629    5.5335 C.ar    1  UNL1       -0.0202
     25 C           4.5633    1.5083    5.2206 C.ar    1  UNL1        0.1172
     26 O           5.0947    2.7120    5.5795 O.3     1  UNL1       -0.5068
     27 C           5.3935    0.6257    4.5341 C.ar    1  UNL1       -0.0149
     28 H           0.7227    0.6936   -0.8057 H       1  UNL1        0.0230
     29 H           0.7029    0.3234    0.9280 H       1  UNL1        0.0230
     30 H           0.7035   -0.9927   -0.2598 H       1  UNL1        0.0230
     31 H           2.9875    1.0102    0.1641 H       1  UNL1        0.0263
     32 H           2.9871   -0.3026   -1.0205 H       1  UNL1        0.0263
     33 H           2.7343   -1.9639    0.8339 H       1  UNL1        0.0280
     34 H           2.7403   -0.6602    2.0032 H       1  UNL1        0.0280
     35 H           5.0904   -0.0351    1.3019 H       1  UNL1        0.0465
     36 H           5.0504   -1.3395    0.1057 H       1  UNL1        0.0465
     37 H           5.0763   -5.9429    3.6121 H       1  UNL1        0.1891
     38 H           8.6553   -4.2355    6.4017 H       1  UNL1        0.0625
     39 H           9.5867   -3.2767    8.4924 H       1  UNL1        0.0618
     40 H           8.3534   -1.5100    9.7226 H       1  UNL1        0.0619
     41 H           6.1833   -0.6944    8.8651 H       1  UNL1        0.0654
     42 H           4.7134   -0.7978    7.1372 H       1  UNL1        0.2922
     43 H           6.7980   -1.1704    3.1664 H       1  UNL1        0.0602
     44 H           3.2150   -1.9753    4.2445 H       1  UNL1        0.0621
     45 H           1.7612   -0.4053    5.4323 H       1  UNL1        0.0619
     46 H           2.5931    1.8443    6.0621 H       1  UNL1        0.0654
     47 H           4.4151    3.2443    6.0245 H       1  UNL1        0.2921
     48 H           6.4143    0.9289    4.3113 H       1  UNL1        0.0657
@<TRIPOS>BOND
     1     1     2    1
     2     2     3    1
     3     3     4    1
     4     4     5    1
     5     5     6   am
     6     6     7    2
     7     6     8    1
     8     8     9   ar
     9     9    10   ar
    10    10    11   ar
    11    11    12    1
    12    12    13   ar
    13    13    14   ar
    14    14    15   ar
    15    15    16   ar
    16    16    17   ar
    17    12    17   ar
    18    17    18    1
    19    11    19   ar
    20     8    19   ar
    21    19    20    1
    22     5    20    1
    23    20    21    1
    24    21    22   ar
    25    22    23   ar
    26    23    24   ar
    27    24    25   ar
    28    25    26    1
    29    25    27   ar
    30    21    27   ar
    31     1    28    1
    32     1    29    1
    33     1    30    1
    34     2    31    1
    35     2    32    1
    36     3    33    1
    37     3    34    1
    38     4    35    1
    39     4    36    1
    40     9    37    1
    41    13    38    1
    42    14    39    1
    43    15    40    1
    44    16    41    1
    45    18    42    1
    46    20    43    1
    47    22    44    1
    48    23    45    1
    49    24    46    1
    50    26    47    1
    51    27    48    1
