REMARK  10 active torsions:
REMARK  status: ('A' for Active; 'I' for Inactive)
REMARK    1  A    between atoms: C_7  and  N_8 
REMARK       I    between atoms: N_8  and  C_9 
REMARK    2  A    between atoms: C_9  and  C_11 
REMARK    3  A    between atoms: C_14  and  N_15 
REMARK    4  A    between atoms: N_15  and  C_16 
REMARK    5  A    between atoms: C_17  and  C_16 
REMARK    6  A    between atoms: C_17  and  C_20 
REMARK    7  A    between atoms: C_17  and  C_18 
REMARK    8  A    between atoms: C_18  and  O_19 
REMARK    9  A    between atoms: C_20  and  C_21 
REMARK   10  A    between atoms: C_26  and  N_27 
ROOT
ATOM      1  N   UNL d   1       7.693  -7.704 -12.300  0.00  0.00    -0.191 NA
ATOM      2  C   UNL d   1       7.476  -8.717 -11.790  0.00  0.00     0.099 C 
ATOM      3  C   UNL d   1       7.234  -9.961 -11.114  0.00  0.00     0.046 A 
ATOM      4  C   UNL d   1       7.304 -11.181 -11.771  0.00  0.00     0.023 A 
ATOM      5  C   UNL d   1       7.140 -12.363 -11.042  0.00  0.00     0.004 A 
ATOM      6  C   UNL d   1       6.905 -12.325  -9.654  0.00  0.00     0.029 A 
ATOM      7  C   UNL d   1       6.797 -11.094  -8.993  0.00  0.00     0.036 A 
ATOM      8  C   UNL d   1       6.960  -9.931  -9.750  0.00  0.00     0.052 A 
ENDROOT
BRANCH   7   9
ATOM      9  N   UNL d   1       6.534 -11.030  -7.597  0.00  0.00    -0.323 N 
ATOM     10  C   UNL d   1       6.365  -9.837  -6.893  0.00  0.00     0.256 C 
ATOM     11  O   UNL d   1       6.424  -8.693  -7.329  0.00  0.00    -0.267 OA
ATOM     12  H   UNL d   1       6.440 -11.912  -7.105  0.00  0.00     0.169 HD
BRANCH  10  13
ATOM     13  C   UNL d   1       6.127  -9.907  -5.447  0.00  0.00     0.034 C 
ATOM     14  C   UNL d   1       5.287  -8.977  -4.844  0.00  0.00     0.019 C 
ATOM     15  C   UNL d   1       5.245  -8.902  -3.455  0.00  0.00     0.032 C 
ATOM     16  C   UNL d   1       5.966  -9.813  -2.627  0.00  0.00     0.061 C 
ATOM     17  C   UNL d   1       6.878 -10.696  -3.267  0.00  0.00     0.130 C 
ATOM     18  C   UNL d   1       6.927 -10.728  -4.672  0.00  0.00     0.055 C 
BRANCH  16  19
ATOM     19  N   UNL d   1       5.485  -9.861  -1.318  0.00  0.00    -0.387 N 
ATOM     20  H   UNL d   1       4.990  -9.035  -1.011  0.00  0.00     0.159 HD
BRANCH  19  21
ATOM     21  C   UNL d   1       6.232 -10.513  -0.272  0.00  0.00     0.127 C 
BRANCH  21  22
ATOM     22  C   UNL d   1       5.788 -10.305   1.154  0.00  0.00     0.033 C 
BRANCH  22  23
ATOM     23  C   UNL d   1       6.990 -10.610   2.092  0.00  0.00     0.073 C 
BRANCH  23  24
ATOM     24  C   UNL d   1       7.642 -11.943   1.908  0.00  0.00     0.053 A 
ATOM     25  C   UNL d   1       8.931 -12.275   1.544  0.00  0.00     0.034 A 
ATOM     26  C   UNL d   1       8.993 -13.684   1.506  0.00  0.00     0.027 A 
ATOM     27  C   UNL d   1       7.741 -14.128   1.864  0.00  0.00     0.142 A 
ATOM     28  O   UNL d   1       6.910 -13.076   2.116  0.00  0.00    -0.327 OA
ENDBRANCH  23  24
ENDBRANCH  22  23
BRANCH  22  29
ATOM     29  C   UNL d   1       5.250  -8.896   1.444  0.00  0.00     0.170 C 
BRANCH  29  30
ATOM     30  O   UNL d   1       5.526  -7.914   0.446  0.00  0.00    -0.400 OA
ATOM     31  H   UNL d   1       4.688  -7.620   0.046  0.00  0.00     0.209 HD
ENDBRANCH  29  30
ENDBRANCH  22  29
ENDBRANCH  21  22
ENDBRANCH  19  21
ENDBRANCH  16  19
BRANCH  17  32
ATOM     32  N   UNL d   1       7.869 -11.633  -2.651  0.00  0.00    -0.113 N 
ATOM     33  O   UNL d   1       8.081 -11.671  -1.444  0.00  0.00    -0.532 OA
ATOM     34  O   UNL d   1       8.518 -12.351  -3.427  0.00  0.00    -0.532 OA
ENDBRANCH  17  32
ENDBRANCH  10  13
ENDBRANCH   7   9
TORSDOF 10
