REMARK  8 active torsions:
REMARK  status: ('A' for Active; 'I' for Inactive)
REMARK    1  A    between atoms: C_5  and  O_6 
REMARK    2  A    between atoms: O_6  and  C_7 
REMARK    3  A    between atoms: C_7  and  C_8 
REMARK       I    between atoms: C_8  and  N_10 
REMARK    4  A    between atoms: N_10  and  N_11 
REMARK    5  A    between atoms: N_11  and  C_12 
REMARK    6  A    between atoms: C_12  and  N_14 
REMARK       I    between atoms: N_14  and  C_15 
REMARK    7  A    between atoms: C_15  and  C_17 
REMARK    8  A    between atoms: C_17  and  C_18 
ROOT
ATOM      1  C   UNL d   1      -5.540   0.894  -0.091  0.00  0.00     0.260 C 
ATOM      2  O   UNL d   1      -6.009  -0.248  -0.102  0.00  0.00    -0.269 OA
ATOM      3  N   UNL d   1      -6.378   2.002  -0.110  0.00  0.00    -0.266 N 
ATOM      4  H   UNL d   1      -6.041   2.966  -0.100  0.00  0.00     0.190 HD
ENDROOT
BRANCH   3   5
ATOM      5  N   UNL d   1      -7.831   1.856  -0.144  0.00  0.00    -0.273 N 
ATOM      6  H   UNL d   1      -8.162   0.892  -0.142  0.00  0.00     0.189 HD
BRANCH   5   7
ATOM      7  C   UNL d   1      -8.626   3.013  -0.160  0.00  0.00     0.193 C 
ATOM      8  S   UNL d   1      -7.853   4.521  -0.166  0.00  0.00    -0.039 SA
BRANCH   7   9
ATOM      9  N   UNL d   1     -10.029   2.804  -0.174  0.00  0.00    -0.303 N 
ATOM     10  C   UNL d   1     -10.991   3.823  -0.124  0.00  0.00     0.224 C 
ATOM     11  O   UNL d   1     -10.685   5.005   0.065  0.00  0.00    -0.273 OA
ATOM     12  H   UNL d   1     -10.370   1.852  -0.210  0.00  0.00     0.171 HD
BRANCH  10  13
ATOM     13  C   UNL d   1     -12.489   3.485  -0.247  0.00  0.00     0.107 C 
BRANCH  13  14
ATOM     14  C   UNL d   1     -13.341   4.802  -0.292  0.00  0.00    -0.014 C 
ATOM     15  C   UNL d   1     -13.022   5.657  -1.530  0.00  0.00     0.010 C 
ATOM     16  C   UNL d   1     -14.849   4.537  -0.278  0.00  0.00     0.010 C 
ENDBRANCH  13  14
ENDBRANCH  10  13
ENDBRANCH   7   9
ENDBRANCH   5   7
ENDBRANCH   3   5
BRANCH   1  17
ATOM     17  C   UNL d   1      -4.009   1.197  -0.056  0.00  0.00     0.280 C 
BRANCH  17  18
ATOM     18  O   UNL d   1      -3.235  -0.012  -0.030  0.00  0.00    -0.342 OA
BRANCH  18  19
ATOM     19  C   UNL d   1      -1.865   0.073  -0.011  0.00  0.00     0.069 A 
ATOM     20  C   UNL d   1      -1.172  -1.147  -0.002  0.00  0.00     0.037 A 
ATOM     21  C   UNL d   1       0.232  -1.186   0.004  0.00  0.00     0.009 A 
ATOM     22  C   UNL d   1       0.970   0.000   0.002  0.00  0.00    -0.062 A 
ATOM     23  C   UNL d   1       2.471  -0.005  -0.013  0.00  0.00     0.048 C 
ATOM     24  C   UNL d   1       0.278   1.216   0.004  0.00  0.00     0.009 A 
ATOM     25  C   UNL d   1      -1.125   1.253  -0.001  0.00  0.00     0.037 A 
ENDBRANCH  18  19
ENDBRANCH  17  18
ENDBRANCH   1  17
TORSDOF 8
