REMARK  7 active torsions:
REMARK  status: ('A' for Active; 'I' for Inactive)
REMARK    1  A    between atoms: C_2  and  C_3 
REMARK       I    between atoms: C_2  and  N_14 
REMARK    2  A    between atoms: C_3  and  C_4 
REMARK    3  A    between atoms: C_4  and  C_5 
REMARK    4  A    between atoms: N_14  and  N_15 
REMARK    5  A    between atoms: C_25  and  S_26 
REMARK    6  A    between atoms: S_26  and  C_27 
REMARK    7  A    between atoms: C_27  and  C_28 
ROOT
ATOM      1  N   UNL d   1       4.728   1.231  -0.695  0.00  0.00    -0.129 NA
ATOM      2  C   UNL d   1       5.158   2.243  -1.594  0.00  0.00     0.255 C 
ATOM      3  O   UNL d   1       4.456   3.130  -1.978  0.00  0.00    -0.272 OA
ATOM      4  C   UNL d   1       6.665   2.313  -1.691  0.00  0.00     0.049 C 
ATOM      5  C   UNL d   1       7.503   1.296  -2.132  0.00  0.00     0.018 C 
ATOM      6  C   UNL d   1       8.884   1.275  -1.766  0.00  0.00     0.001 C 
ATOM      7  C   UNL d   1       9.438   2.260  -0.956  0.00  0.00     0.002 C 
ATOM      8  C   UNL d   1       8.568   3.205  -0.456  0.00  0.00     0.024 C 
ATOM      9  C   UNL d   1       7.180   2.945  -0.576  0.00  0.00     0.025 C 
ATOM     10  N   UNL d   1       6.489   2.410   0.663  0.00  0.00    -0.265 NA
ATOM     11  C   UNL d   1       5.642   1.130   0.453  0.00  0.00     0.227 C 
ATOM     12  H   UNL d   1       5.774   3.153   0.752  0.00  0.00     0.130 HD
ENDROOT
BRANCH   1  13
ATOM     13  N   UNL d   1       3.260   1.239  -0.397  0.00  0.00    -0.280 N 
ATOM     14  C   UNL d   1       2.444   0.163  -0.038  0.00  0.00     0.232 C 
ATOM     15  O   UNL d   1       1.217   0.257  -0.091  0.00  0.00    -0.272 OA
ATOM     16  H   UNL d   1       2.750   2.007  -0.844  0.00  0.00     0.184 HD
BRANCH  14  17
ATOM     17  C   UNL d   1       3.070  -1.089   0.523  0.00  0.00     0.108 C 
BRANCH  17  18
ATOM     18  C   UNL d   1       2.122  -2.159   1.101  0.00  0.00     0.046 C 
BRANCH  18  19
ATOM     19  C   UNL d   1       2.855  -3.319   1.737  0.00  0.00    -0.050 A 
ATOM     20  C   UNL d   1       3.923  -3.301   2.548  0.00  0.00    -0.006 A 
ATOM     21  C   UNL d   1       4.727  -2.276   3.130  0.00  0.00     0.014 A 
ATOM     22  C   UNL d   1       4.217  -4.720   2.839  0.00  0.00     0.038 A 
ATOM     23  C   UNL d   1       5.785  -2.608   3.879  0.00  0.00     0.001 A 
ATOM     24  C   UNL d   1       6.098  -3.992   4.171  0.00  0.00     0.002 A 
ATOM     25  C   UNL d   1       5.373  -5.028   3.706  0.00  0.00     0.030 A 
ATOM     26  N   UNL d   1       3.388  -5.510   2.273  0.00  0.00    -0.385 N 
ATOM     27  C   UNL d   1       2.399  -4.737   1.492  0.00  0.00     0.155 A 
ATOM     28  H   UNL d   1       3.427  -6.523   2.368  0.00  0.00     0.160 HD
ENDBRANCH  18  19
ENDBRANCH  17  18
ENDBRANCH  14  17
ENDBRANCH   1  13
BRANCH  11  29
ATOM     29  S   UNL d   1       6.298  -0.653   0.522  0.00  0.00    -0.127 SA
BRANCH  29  30
ATOM     30  C   UNL d   1       8.076  -0.607   0.573  0.00  0.00     0.115 C 
BRANCH  30  31
ATOM     31  C   UNL d   1       8.973  -1.841   0.579  0.00  0.00    -0.046 A 
ATOM     32  C   UNL d   1      10.268  -1.700   0.005  0.00  0.00     0.008 A 
ATOM     33  C   UNL d   1      11.195  -2.745  -0.043  0.00  0.00     0.004 A 
ATOM     34  C   UNL d   1      10.826  -3.994   0.429  0.00  0.00     0.042 A 
ATOM     35  C   UNL d   1       9.566  -4.152   1.001  0.00  0.00     0.117 A 
ATOM     36  F   UNL d   1       9.210  -5.362   1.455  0.00  0.00    -0.206 F 
ATOM     37  C   UNL d   1       8.657  -3.087   1.116  0.00  0.00     0.050 A 
ENDBRANCH  30  31
ENDBRANCH  29  30
ENDBRANCH  11  29
TORSDOF 7
