@<TRIPOS>MOLECULE
*****
 49 51 0 0 0
SMALL
GASTEIGER

@<TRIPOS>ATOM
      1 C           1.0861    0.0196    0.0352 C.3     1  UNL1        0.0788
      2 O           2.5079    0.0255    0.1108 O.3     1  UNL1       -0.4951
      3 C           3.1414   -1.0368   -0.4716 C.ar    1  UNL1        0.1201
      4 C           4.2601   -1.5198    0.2018 C.ar    1  UNL1       -0.0192
      5 C           5.0481   -2.5296   -0.3663 C.ar    1  UNL1       -0.0462
      6 C           4.6975   -3.1267   -1.5914 C.ar    1  UNL1        0.0372
      7 C           5.5016   -4.3163   -2.0504 C.2     1  UNL1        0.2483
      8 O           6.4366   -4.6902   -1.3320 O.2     1  UNL1       -0.2699
      9 N           5.1763   -4.9274   -3.2574 N.am    1  UNL1       -0.2815
     10 C           5.8283   -6.0865   -3.7577 C.ar    1  UNL1        0.0338
     11 C           6.0708   -6.2106   -5.1290 C.ar    1  UNL1       -0.0386
     12 C           6.6856   -7.3707   -5.6438 C.ar    1  UNL1       -0.0333
     13 C           7.0806   -8.4134   -4.7842 C.ar    1  UNL1        0.1087
     14 S           8.0415   -9.7746   -5.4811 S.O2    1  UNL1        0.0746
     15 O           7.1341  -10.4692   -6.3695 O.2     1  UNL1       -0.1499
     16 O           9.2463   -9.1409   -5.9811 O.2     1  UNL1       -0.1499
     17 N           8.4432  -10.7955   -4.2274 N.pl3   1  UNL1       -0.1836
     18 C           9.1527  -11.9608   -4.5385 C.ar    1  UNL1        0.2352
     19 N          10.2307  -11.8252   -5.3033 N.ar    1  UNL1       -0.2185
     20 C          10.9761  -12.9244   -5.5135 C.ar    1  UNL1        0.0436
     21 C          12.1761  -12.7565   -6.3923 C.3     1  UNL1       -0.0222
     22 C          10.6570  -14.1493   -4.9637 C.ar    1  UNL1       -0.0194
     23 C           9.5411  -14.1858   -4.1443 C.ar    1  UNL1        0.0436
     24 C           9.1342  -15.4888   -3.5060 C.3     1  UNL1       -0.0222
     25 N           8.7875  -13.0809   -3.8917 N.ar    1  UNL1       -0.2185
     26 C           6.8035   -8.3074   -3.4234 C.ar    1  UNL1       -0.0333
     27 C           6.1908   -7.1457   -2.9185 C.ar    1  UNL1       -0.0386
     28 C           3.5867   -2.6136   -2.2741 C.ar    1  UNL1       -0.0462
     29 C           2.8183   -1.5709   -1.7183 C.ar    1  UNL1       -0.0192
     30 H           0.7254    0.9351    0.5172 H       1  UNL1        0.0660
     31 H           0.6787   -0.8328    0.5876 H       1  UNL1        0.0660
     32 H           0.7167    0.0315   -0.9938 H       1  UNL1        0.0660
     33 H           4.5173   -1.1175    1.1796 H       1  UNL1        0.0654
     34 H           5.9444   -2.8493    0.1646 H       1  UNL1        0.0626
     35 H           4.5446   -4.4634   -3.8941 H       1  UNL1        0.1551
     36 H           5.8644   -5.3805   -5.8022 H       1  UNL1        0.0637
     37 H           6.8734   -7.4426   -6.7151 H       1  UNL1        0.0638
     38 H           8.0424  -10.7595   -3.3065 H       1  UNL1        0.1767
     39 H          12.2719  -11.7116   -6.7064 H       1  UNL1        0.0293
     40 H          12.0774  -13.3736   -7.2897 H       1  UNL1        0.0293
     41 H          13.0896  -13.0327   -5.8567 H       1  UNL1        0.0293
     42 H          11.2531  -15.0320   -5.1660 H       1  UNL1        0.0653
     43 H           9.8095  -16.3082   -3.7848 H       1  UNL1        0.0293
     44 H           8.1268  -15.7715   -3.8264 H       1  UNL1        0.0293
     45 H           9.1547  -15.4021   -2.4157 H       1  UNL1        0.0293
     46 H           7.0498   -9.0912   -2.7208 H       1  UNL1        0.0638
     47 H           5.9772   -7.0911   -1.8534 H       1  UNL1        0.0637
     48 H           3.2892   -2.9903   -3.2452 H       1  UNL1        0.0626
     49 H           1.9845   -1.1785   -2.2922 H       1  UNL1        0.0654
@<TRIPOS>BOND
     1     1     2    1
     2     2     3    1
     3     3     4   ar
     4     4     5   ar
     5     5     6   ar
     6     6     7    1
     7     7     8    2
     8     7     9   am
     9     9    10    1
    10    10    11   ar
    11    11    12   ar
    12    12    13   ar
    13    13    14    1
    14    14    15    2
    15    14    16    2
    16    14    17    1
    17    17    18    1
    18    18    19   ar
    19    19    20   ar
    20    20    21    1
    21    20    22   ar
    22    22    23   ar
    23    23    24    1
    24    23    25   ar
    25    18    25   ar
    26    13    26   ar
    27    26    27   ar
    28    10    27   ar
    29     6    28   ar
    30    28    29   ar
    31     3    29   ar
    32     1    30    1
    33     1    31    1
    34     1    32    1
    35     4    33    1
    36     5    34    1
    37     9    35    1
    38    11    36    1
    39    12    37    1
    40    17    38    1
    41    21    39    1
    42    21    40    1
    43    21    41    1
    44    22    42    1
    45    24    43    1
    46    24    44    1
    47    24    45    1
    48    26    46    1
    49    27    47    1
    50    28    48    1
    51    29    49    1
