REMARK  6 active torsions:
REMARK  status: ('A' for Active; 'I' for Inactive)
REMARK    1  A    between atoms: C_2  and  C_3 
REMARK    2  A    between atoms: C_6  and  N_7 
REMARK       I    between atoms: N_7  and  C_8 
REMARK       I    between atoms: C_8  and  N_10 
REMARK    3  A    between atoms: N_10  and  C_11 
REMARK    4  A    between atoms: C_13  and  N_14 
REMARK       I    between atoms: N_14  and  C_15 
REMARK    5  A    between atoms: C_15  and  C_17 
REMARK    6  A    between atoms: C_26  and  N_27 
ROOT
ATOM      1  C   UNL d   1       4.773  -4.136   7.507  0.00  0.00     0.065 A 
ATOM      2  C   UNL d   1       5.705  -4.907   8.258  0.00  0.00     0.061 A 
ATOM      3  C   UNL d   1       5.925  -4.644   9.632  0.00  0.00     0.037 A 
ATOM      4  C   UNL d   1       5.314  -3.526  10.187  0.00  0.00     0.032 A 
ATOM      5  C   UNL d   1       4.415  -2.762   9.464  0.00  0.00     0.034 A 
ATOM      6  C   UNL d   1       4.109  -3.048   8.132  0.00  0.00     0.057 A 
ENDROOT
BRANCH   1   7
ATOM      7  N   UNL d   1       4.445  -4.489   6.146  0.00  0.00    -0.306 N 
ATOM      8  C   UNL d   1       4.381  -3.505   5.166  0.00  0.00     0.325 C 
ATOM      9  N   UNL d   1       3.684  -3.843   4.005  0.00  0.00    -0.309 N 
ATOM     10  O   UNL d   1       4.894  -2.394   5.344  0.00  0.00    -0.247 OA
ATOM     11  H   UNL d   1       3.556  -4.820   3.783  0.00  0.00     0.170 HD
ATOM     12  H   UNL d   1       4.522  -5.455   5.875  0.00  0.00     0.170 HD
BRANCH   9  13
ATOM     13  C   UNL d   1       3.386  -2.889   2.972  0.00  0.00     0.036 A 
ATOM     14  C   UNL d   1       3.003  -3.306   1.692  0.00  0.00     0.030 A 
ATOM     15  C   UNL d   1       2.838  -2.364   0.654  0.00  0.00     0.009 A 
ATOM     16  C   UNL d   1       2.935  -0.988   0.905  0.00  0.00    -0.058 A 
ATOM     17  C   UNL d   1       3.285  -0.570   2.181  0.00  0.00     0.009 A 
ATOM     18  C   UNL d   1       3.482  -1.508   3.191  0.00  0.00     0.030 A 
BRANCH  16  19
ATOM     19  C   UNL d   1       2.477   0.039  -0.098  0.00  0.00     0.034 C 
ATOM     20  C   UNL d   1       0.952   0.079  -0.091  0.00  0.00     0.010 C 
ENDBRANCH  16  19
ENDBRANCH   9  13
ENDBRANCH   1   7
BRANCH   6  21
ATOM     21  N   UNL d   1       3.108  -2.286   7.564  0.00  0.00    -0.379 N 
ATOM     22  C   UNL d   1       3.308  -0.851   7.388  0.00  0.00     0.123 C 
ATOM     23  C   UNL d   1       2.090  -0.149   7.977  0.00  0.00     0.020 C 
ATOM     24  C   UNL d   1       0.791  -0.708   7.378  0.00  0.00     0.003 C 
ATOM     25  C   UNL d   1       0.725  -2.239   7.453  0.00  0.00     0.020 C 
ATOM     26  C   UNL d   1       1.980  -2.861   6.862  0.00  0.00     0.123 C 
ENDBRANCH   6  21
BRANCH   3  27
ATOM     27  N   UNL d   1       6.691  -5.524  10.457  0.00  0.00    -0.323 N 
ATOM     28  C   UNL d   1       6.773  -5.434  11.848  0.00  0.00     0.257 C 
ATOM     29  O   UNL d   1       6.225  -4.586  12.561  0.00  0.00    -0.267 OA
ATOM     30  H   UNL d   1       7.142  -6.310  10.005  0.00  0.00     0.169 HD
BRANCH  28  31
ATOM     31  C   UNL d   1       7.561  -6.424  12.618  0.00  0.00     0.054 A 
ATOM     32  C   UNL d   1       7.089  -6.715  13.920  0.00  0.00     0.019 A 
ATOM     33  C   UNL d   1       7.890  -7.386  14.842  0.00  0.00     0.001 A 
ATOM     34  C   UNL d   1       9.143  -7.841  14.452  0.00  0.00     0.002 A 
ATOM     35  C   UNL d   1       9.601  -7.599  13.154  0.00  0.00     0.025 A 
ATOM     36  C   UNL d   1       8.819  -6.888  12.233  0.00  0.00     0.049 A 
ATOM     37 CL   UNL d   1       9.505  -6.596  10.677  0.00  0.00    -0.083 Cl
ENDBRANCH  28  31
ENDBRANCH   3  27
TORSDOF 6
