@<TRIPOS>MOLECULE
*****
 54 56 0 0 0
SMALL
GASTEIGER

@<TRIPOS>ATOM
      1 C           1.1779   -0.0372    0.0857 C.3     1  UNL1        0.0820
      2 O           2.6143   -0.0224    0.0841 O.3     1  UNL1       -0.4645
      3 C           3.1760   -0.6387    1.1536 C.2     1  UNL1        0.3389
      4 O           2.5620   -1.1811    2.0707 O.2     1  UNL1       -0.2450
      5 C           4.6603   -0.5914    1.1069 C.ar    1  UNL1        0.0591
      6 C           5.4066   -1.6809    1.5702 C.ar    1  UNL1       -0.0460
      7 C           6.8061   -1.5815    1.7038 C.ar    1  UNL1       -0.0401
      8 C           7.5018   -0.4300    1.3023 C.ar    1  UNL1        0.0275
      9 N           8.8781   -0.3539    1.4419 N.pl3   1  UNL1       -0.3354
     10 C           9.6960    0.7416    0.8891 C.3     1  UNL1        0.0861
     11 C          11.1973    0.4070    1.0006 C.2     1  UNL1        0.2343
     12 O          11.5535   -0.7062    1.3953 O.2     1  UNL1       -0.2738
     13 N          12.0793    1.4411    0.6637 N.am    1  UNL1       -0.2842
     14 C          13.4857    1.2592    0.6440 C.ar    1  UNL1        0.0335
     15 C          14.3814    2.2653    1.0290 C.ar    1  UNL1       -0.0387
     16 C          15.7844    2.0461    0.9675 C.ar    1  UNL1       -0.0387
     17 C          16.2994    0.8115    0.5414 C.ar    1  UNL1        0.0338
     18 N          17.7005    0.5413    0.5742 N.am    1  UNL1       -0.2815
     19 C          18.2750   -0.6734    0.1955 C.2     1  UNL1        0.2483
     20 O          17.6904   -1.6588   -0.2473 O.2     1  UNL1       -0.2699
     21 C          19.7383   -0.8459    0.3319 C.ar    1  UNL1        0.0373
     22 C          20.4005   -1.5858   -0.6631 C.ar    1  UNL1       -0.0496
     23 C          21.7197   -1.9942   -0.4810 C.ar    1  UNL1       -0.0608
     24 C          22.4027   -1.6178    0.6717 C.ar    1  UNL1       -0.0588
     25 C          21.7521   -0.8823    1.6732 C.ar    1  UNL1       -0.0497
     26 C          22.4576   -0.5643    2.9565 C.3     1  UNL1       -0.0397
     27 C          20.4113   -0.4992    1.5027 C.ar    1  UNL1       -0.0467
     28 C          15.3822   -0.1474    0.1177 C.ar    1  UNL1       -0.0387
     29 C          14.0081    0.0628    0.1782 C.ar    1  UNL1       -0.0387
     30 C           6.7311    0.6498    0.8553 C.ar    1  UNL1       -0.0401
     31 C           5.3320    0.5770    0.7480 C.ar    1  UNL1       -0.0460
     32 H           0.8222    0.4330   -0.8368 H       1  UNL1        0.0661
     33 H           0.7884    0.5385    0.9323 H       1  UNL1        0.0661
     34 H           0.7925   -1.0628    0.1126 H       1  UNL1        0.0661
     35 H           4.9048   -2.6075    1.8442 H       1  UNL1        0.0626
     36 H           7.3447   -2.4190    2.1459 H       1  UNL1        0.0636
     37 H           9.3988   -1.2194    1.6004 H       1  UNL1        0.1466
     38 H           9.5014    1.6489    1.4675 H       1  UNL1        0.0557
     39 H           9.4634    0.9104   -0.1690 H       1  UNL1        0.0557
     40 H          11.7288    2.3775    0.5068 H       1  UNL1        0.1549
     41 H          14.0147    3.1972    1.4547 H       1  UNL1        0.0637
     42 H          16.4502    2.8536    1.2658 H       1  UNL1        0.0637
     43 H          18.3079    1.2739    0.9188 H       1  UNL1        0.1551
     44 H          19.8692   -1.8830   -1.5661 H       1  UNL1        0.0625
     45 H          22.2015   -2.6326   -1.2179 H       1  UNL1        0.0618
     46 H          23.4401   -1.9234    0.7941 H       1  UNL1        0.0620
     47 H          23.4914   -0.9242    2.9452 H       1  UNL1        0.0278
     48 H          21.9421   -1.0489    3.7919 H       1  UNL1        0.0278
     49 H          22.4737    0.5177    3.1133 H       1  UNL1        0.0278
     50 H          19.8859   -0.0009    2.3122 H       1  UNL1        0.0628
     51 H          15.6806   -1.1085   -0.2773 H       1  UNL1        0.0637
     52 H          13.3650   -0.7380   -0.1741 H       1  UNL1        0.0637
     53 H           7.2095    1.5904    0.6034 H       1  UNL1        0.0636
     54 H           4.7810    1.4525    0.4182 H       1  UNL1        0.0626
@<TRIPOS>BOND
     1     1     2    1
     2     2     3    1
     3     3     4    2
     4     3     5    1
     5     5     6   ar
     6     6     7   ar
     7     7     8   ar
     8     8     9    1
     9     9    10    1
    10    10    11    1
    11    11    12    2
    12    11    13   am
    13    13    14    1
    14    14    15   ar
    15    15    16   ar
    16    16    17   ar
    17    17    18    1
    18    18    19   am
    19    19    20    2
    20    19    21    1
    21    21    22   ar
    22    22    23   ar
    23    23    24   ar
    24    24    25   ar
    25    25    26    1
    26    25    27   ar
    27    21    27   ar
    28    17    28   ar
    29    28    29   ar
    30    14    29   ar
    31     8    30   ar
    32    30    31   ar
    33     5    31   ar
    34     1    32    1
    35     1    33    1
    36     1    34    1
    37     6    35    1
    38     7    36    1
    39     9    37    1
    40    10    38    1
    41    10    39    1
    42    13    40    1
    43    15    41    1
    44    16    42    1
    45    18    43    1
    46    22    44    1
    47    23    45    1
    48    24    46    1
    49    26    47    1
    50    26    48    1
    51    26    49    1
    52    27    50    1
    53    28    51    1
    54    29    52    1
    55    30    53    1
    56    31    54    1
