REMARK  8 active torsions:
REMARK  status: ('A' for Active; 'I' for Inactive)
REMARK    1  A    between atoms: C_6  and  C_7 
REMARK    2  A    between atoms: C_7  and  C_8 
REMARK    3  A    between atoms: C_8  and  N_9 
REMARK       I    between atoms: N_9  and  C_10 
REMARK       I    between atoms: C_10  and  N_12 
REMARK    4  A    between atoms: N_12  and  C_13 
REMARK    5  A    between atoms: C_13  and  C_14 
REMARK    6  A    between atoms: C_17  and  O_18 
REMARK    7  A    between atoms: O_18  and  C_19 
REMARK    8  A    between atoms: C_22  and  N_23 
ROOT
ATOM      1  C   UNL d   1       5.844   7.428  -0.094  0.00  0.00    -0.040 A 
ATOM      2  C   UNL d   1       6.862   8.027   0.665  0.00  0.00     0.011 A 
ATOM      3  C   UNL d   1       6.970   9.427   0.738  0.00  0.00     0.038 A 
ATOM      4  C   UNL d   1       6.131  10.242  -0.031  0.00  0.00     0.076 A 
ATOM      5  C   UNL d   1       5.161   9.639  -0.829  0.00  0.00     0.038 A 
ATOM      6  C   UNL d   1       5.021   8.255  -0.864  0.00  0.00     0.011 A 
ENDROOT
BRANCH   1   7
ATOM      7  C   UNL d   1       5.639   5.931  -0.110  0.00  0.00     0.162 C 
BRANCH   7   8
ATOM      8  N   UNL d   1       4.225   5.568  -0.089  0.00  0.00    -0.339 N 
ATOM      9  C   UNL d   1       3.820   4.273  -0.074  0.00  0.00     0.316 C 
ATOM     10  N   UNL d   1       2.448   4.120  -0.052  0.00  0.00    -0.343 N 
ATOM     11  O   UNL d   1       4.590   3.312  -0.089  0.00  0.00    -0.247 OA
ATOM     12  H   UNL d   1       1.845   4.929  -0.046  0.00  0.00     0.164 HD
ATOM     13  H   UNL d   1       3.541   6.301   0.005  0.00  0.00     0.164 HD
BRANCH  10  14
ATOM     14  C   UNL d   1       1.936   2.776  -0.048  0.00  0.00     0.132 C 
BRANCH  14  15
ATOM     15  C   UNL d   1       0.439   2.542  -0.018  0.00  0.00     0.096 C 
BRANCH  15  16
ATOM     16  C   UNL d   1       0.004   1.083  -0.008  0.00  0.00     0.084 A 
ATOM     17  N   UNL d   1      -1.278   0.663   0.006  0.00  0.00    -0.354 N 
ATOM     18  C   UNL d   1      -1.364  -0.710   0.005  0.00  0.00     0.106 A 
ATOM     19  H   UNL d   1      -2.085   1.283   0.017  0.00  0.00     0.166 HD
ATOM     20  C   UNL d   1      -0.084  -1.167  -0.008  0.00  0.00     0.108 A 
ATOM     21  N   UNL d   1       0.748  -0.053  -0.002  0.00  0.00    -0.350 N 
ATOM     22  C   UNL d   1       2.209  -0.164   0.025  0.00  0.00     0.156 C 
ENDBRANCH  15  16
ENDBRANCH  14  15
ENDBRANCH  10  14
ENDBRANCH   7   8
ENDBRANCH   1   7
BRANCH   4  23
ATOM     23  O   UNL d   1       6.369  11.603   0.019  0.00  0.00    -0.311 OA
BRANCH  23  24
ATOM     24  C   UNL d   1       5.618  12.437  -0.781  0.00  0.00     0.076 A 
ATOM     25  C   UNL d   1       6.266  13.182  -1.770  0.00  0.00     0.040 A 
ATOM     26  C   UNL d   1       5.539  14.088  -2.554  0.00  0.00     0.039 A 
ATOM     27  C   UNL d   1       4.149  14.181  -2.393  0.00  0.00     0.103 A 
ATOM     28  C   UNL d   1       3.499  13.446  -1.393  0.00  0.00     0.039 A 
ATOM     29  C   UNL d   1       4.245  12.604  -0.565  0.00  0.00     0.040 A 
BRANCH  27  30
ATOM     30  N   UNL d   1       3.359  15.006  -3.318  0.00  0.00    -0.116 N 
ATOM     31  O   UNL d   1       3.966  15.632  -4.197  0.00  0.00    -0.532 OA
ATOM     32  O   UNL d   1       2.126  14.999  -3.183  0.00  0.00    -0.532 OA
ENDBRANCH  27  30
ENDBRANCH  23  24
ENDBRANCH   4  23
TORSDOF 8
