@<TRIPOS>MOLECULE
*****
 38 39 0 0 0
SMALL
GASTEIGER

@<TRIPOS>ATOM
      1 O           1.0988   -0.0138   -0.1325 O.2     1  UNL1       -0.2693
      2 C           2.3288   -0.0523   -0.1023 C.2     1  UNL1        0.2530
      3 C           3.0377   -0.9330    0.8681 C.2     1  UNL1        0.0022
      4 C           2.3763   -1.7246    1.7320 C.2     1  UNL1       -0.0494
      5 C           3.0472   -2.5483    2.7561 C.ar    1  UNL1       -0.0185
      6 C           2.5144   -3.7953    3.1148 C.ar    1  UNL1       -0.0542
      7 C           3.0154   -4.5014    4.2168 C.ar    1  UNL1       -0.0548
      8 C           4.0999   -4.0030    4.9380 C.ar    1  UNL1        0.0156
      9 C           4.6546   -2.7736    4.5680 C.ar    1  UNL1        0.2737
     10 N           5.7480   -2.1971    5.3598 N.pl3   1  UNL1        0.0796
     11 O           6.1608   -2.8423    6.3327 O.2     1  UNL1        0.0414
     12 O           6.1916   -1.0934    5.0082 O.co2   1  UNL1       -0.5760
     13 C           4.1348   -2.0483    3.4852 C.ar    1  UNL1        0.0227
     14 N           3.0856    0.7223   -0.9576 N.am    1  UNL1       -0.2297
     15 N           4.4998    0.7862   -1.0460 N.am    1  UNL1       -0.2180
     16 C           5.0856    1.6182   -1.9888 C.2     1  UNL1        0.3160
     17 O           4.4275    2.3142   -2.7626 O.2     1  UNL1       -0.2513
     18 N           6.4672    1.5867   -1.9823 N.am    1  UNL1       -0.2980
     19 C           7.2399    2.4127   -2.9032 C.3     1  UNL1        0.0159
     20 C           8.7297    2.2417   -2.7394 C.3     1  UNL1       -0.0254
     21 C           9.5618    1.6028   -3.8306 C.3     1  UNL1       -0.0485
     22 C           9.6712    3.0794   -3.5875 C.3     1  UNL1       -0.0485
     23 H           4.1128   -0.9168    0.8727 H       1  UNL1        0.0670
     24 H           1.2861   -1.7563    1.7430 H       1  UNL1        0.0625
     25 H           1.6918   -4.2280    2.5466 H       1  UNL1        0.0623
     26 H           2.5383   -5.4284    4.5305 H       1  UNL1        0.0620
     27 H           4.4852   -4.5690    5.7841 H       1  UNL1        0.0685
     28 H           4.5506   -1.0748    3.2365 H       1  UNL1        0.0691
     29 H           2.5741    1.3115   -1.6181 H       1  UNL1        0.1731
     30 H           5.0654    0.2430   -0.4151 H       1  UNL1        0.1744
     31 H           6.9591    1.0162   -1.3132 H       1  UNL1        0.1503
     32 H           6.9730    3.4600   -2.7243 H       1  UNL1        0.0465
     33 H           6.9327    2.1594   -3.9241 H       1  UNL1        0.0465
     34 H           9.0327    2.1117   -1.7065 H       1  UNL1        0.0316
     35 H           9.0793    1.2879   -4.7500 H       1  UNL1        0.0269
     36 H          10.4020    0.9769   -3.5493 H       1  UNL1        0.0269
     37 H           9.2618    3.7469   -4.3393 H       1  UNL1        0.0269
     38 H          10.5877    3.4563   -3.1421 H       1  UNL1        0.0269
@<TRIPOS>UNITY_ATOM_ATTR
10 1
charge 1
12 1
charge -1
@<TRIPOS>BOND
     1     1     2    2
     2     2     3    1
     3     3     4    2
     4     4     5    1
     5     5     6   ar
     6     6     7   ar
     7     7     8   ar
     8     8     9   ar
     9     9    10    1
    10    10    11    2
    11    10    12    1
    12     9    13   ar
    13     5    13   ar
    14     2    14   am
    15    14    15    1
    16    15    16   am
    17    16    17    2
    18    16    18   am
    19    18    19    1
    20    19    20    1
    21    20    21    1
    22    21    22    1
    23    20    22    1
    24     3    23    1
    25     4    24    1
    26     6    25    1
    27     7    26    1
    28     8    27    1
    29    13    28    1
    30    14    29    1
    31    15    30    1
    32    18    31    1
    33    19    32    1
    34    19    33    1
    35    20    34    1
    36    21    35    1
    37    21    36    1
    38    22    37    1
    39    22    38    1
