@<TRIPOS>MOLECULE
*****
 64 68 0 0 0
SMALL
GASTEIGER

@<TRIPOS>ATOM
      1 O           1.0778   -0.0075   -0.1485 O.2     1  UNL1       -0.2754
      2 C           2.3149    0.0984   -0.0179 C.2     1  UNL1        0.2180
      3 C           2.9377    1.0536    0.9783 C.3     1  UNL1        0.0337
      4 C           1.9589    1.6115    2.0007 C.3     1  UNL1        0.0094
      5 S           2.8995    2.4445    3.3223 S.3     1  UNL1       -0.0839
      6 C           1.6624    3.1686    4.3207 C.ar    1  UNL1        0.2101
      7 N           1.7628    4.4612    4.6443 N.ar    1  UNL1       -0.1443
      8 N           0.7478    4.5998    5.5132 N.ar    1  UNL1       -0.2446
      9 C           0.0554    3.4297    5.7118 C.ar    1  UNL1        0.2317
     10 N          -0.9908    3.3453    6.6175 N.pl3   1  UNL1       -0.2054
     11 N          -1.6846    2.1576    6.7788 N.2     1  UNL1       -0.1874
     12 C          -2.3052    1.8630    7.8838 C.2     1  UNL1        0.0563
     13 C          -2.6379    0.4225    8.2290 C.ar    1  UNL1        0.0362
     14 C          -3.9807    0.1273    8.5092 C.ar    1  UNL1       -0.0496
     15 C          -4.3613   -1.1427    8.9796 C.ar    1  UNL1       -0.0609
     16 C          -3.4224   -2.1601    9.1148 C.ar    1  UNL1       -0.0583
     17 C          -2.0875   -1.8872    8.8443 C.ar    1  UNL1       -0.0193
     18 C          -1.6770   -0.6050    8.4267 C.ar    1  UNL1        0.1296
     19 O          -0.3047   -0.5504    8.3351 O.3     1  UNL1       -0.4867
     20 C           0.1964    0.6356    7.7472 C.3     1  UNL1        0.1147
     21 C           1.6724    0.7027    7.5962 C.ar    1  UNL1       -0.0104
     22 C           2.3813   -0.4655    7.3891 C.ar    1  UNL1       -0.0554
     23 C           3.7561   -0.3976    7.2980 C.ar    1  UNL1       -0.0614
     24 C           4.3976    0.8428    7.2319 C.ar    1  UNL1       -0.0617
     25 C           3.6749    2.0263    7.3283 C.ar    1  UNL1       -0.0614
     26 C           2.3144    1.9518    7.5568 C.ar    1  UNL1       -0.0554
     27 N           0.6310    2.5095    4.9487 N.ar    1  UNL1       -0.1865
     28 N           3.1209   -0.5707   -0.8945 N.am    1  UNL1       -0.2849
     29 C           4.5259   -0.7027   -0.8701 C.ar    1  UNL1        0.0411
     30 C           5.1432   -0.5943   -2.1541 C.ar    1  UNL1       -0.0399
     31 C           6.5153   -0.7287   -2.2902 C.ar    1  UNL1       -0.0594
     32 C           7.2652   -0.9258   -1.1454 C.ar    1  UNL1       -0.0539
     33 C           6.6746   -1.0436    0.1251 C.ar    1  UNL1       -0.0161
     34 C           7.5219   -1.3643    1.1737 C.ar    1  UNL1       -0.0540
     35 C           7.0248   -1.7048    2.4234 C.ar    1  UNL1       -0.0612
     36 C           5.8432   -1.1910    2.8433 C.ar    1  UNL1       -0.0611
     37 C           4.9164   -1.1488    1.7962 C.ar    1  UNL1       -0.0523
     38 C           5.2928   -0.9513    0.3585 C.ar    1  UNL1        0.0033
     39 H           3.5055    1.8158    0.4331 H       1  UNL1        0.0367
     40 H           3.6572    0.5406    1.5740 H       1  UNL1        0.0367
     41 H           1.3887    0.7904    2.4471 H       1  UNL1        0.0385
     42 H           1.2827    2.3051    1.5021 H       1  UNL1        0.0385
     43 H           0.5951    5.5085    5.9255 H       1  UNL1        0.1919
     44 H          -1.0789    4.0601    7.3399 H       1  UNL1        0.1774
     45 H          -2.5230    2.6014    8.6779 H       1  UNL1        0.0852
     46 H          -4.7523    0.8757    8.3548 H       1  UNL1        0.0625
     47 H          -5.3965   -1.3425    9.2481 H       1  UNL1        0.0618
     48 H          -3.7205   -3.1571    9.4344 H       1  UNL1        0.0619
     49 H          -1.3448   -2.6737    8.9820 H       1  UNL1        0.0654
     50 H          -0.0508    1.4576    8.4259 H       1  UNL1        0.0748
     51 H          -0.1747    0.6673    6.7232 H       1  UNL1        0.0748
     52 H           1.8471   -1.4093    7.3202 H       1  UNL1        0.0621
     53 H           4.3188   -1.3212    7.2843 H       1  UNL1        0.0618
     54 H           5.4708    0.8833    7.0958 H       1  UNL1        0.0618
     55 H           4.1575    2.9949    7.2361 H       1  UNL1        0.0618
     56 H           1.7466    2.8718    7.6559 H       1  UNL1        0.0621
     57 H           2.6312   -0.9257   -1.7131 H       1  UNL1        0.1548
     58 H           4.5803   -0.3321   -3.0529 H       1  UNL1        0.0636
     59 H           7.0114   -0.6734   -3.2585 H       1  UNL1        0.0618
     60 H           8.3463   -1.0080   -1.2418 H       1  UNL1        0.0624
     61 H           8.5839   -1.4966    1.0222 H       1  UNL1        0.0624
     62 H           6.8175   -2.8004    2.4794 H       1  UNL1        0.0618
     63 H           5.7099   -1.3253    3.9215 H       1  UNL1        0.0618
     64 H           3.8677   -1.3054    2.0636 H       1  UNL1        0.0624
@<TRIPOS>BOND
     1     1     2    2
     2     2     3    1
     3     3     4    1
     4     4     5    1
     5     5     6    1
     6     6     7   ar
     7     7     8   ar
     8     8     9   ar
     9     9    10    1
    10    10    11    1
    11    11    12    2
    12    12    13    1
    13    13    14   ar
    14    14    15   ar
    15    15    16   ar
    16    16    17   ar
    17    17    18   ar
    18    13    18   ar
    19    18    19    1
    20    19    20    1
    21    20    21    1
    22    21    22   ar
    23    22    23   ar
    24    23    24   ar
    25    24    25   ar
    26    25    26   ar
    27    21    26   ar
    28     9    27   ar
    29     6    27   ar
    30     2    28   am
    31    28    29    1
    32    29    30   ar
    33    30    31   ar
    34    31    32   ar
    35    32    33   ar
    36    33    34   ar
    37    34    35   ar
    38    35    36   ar
    39    36    37   ar
    40    37    38   ar
    41    29    38   ar
    42    33    38   ar
    43     3    39    1
    44     3    40    1
    45     4    41    1
    46     4    42    1
    47     8    43    1
    48    10    44    1
    49    12    45    1
    50    14    46    1
    51    15    47    1
    52    16    48    1
    53    17    49    1
    54    20    50    1
    55    20    51    1
    56    22    52    1
    57    23    53    1
    58    24    54    1
    59    25    55    1
    60    26    56    1
    61    28    57    1
    62    30    58    1
    63    31    59    1
    64    32    60    1
    65    34    61    1
    66    35    62    1
    67    36    63    1
    68    37    64    1
