REMARK  10 active torsions:
REMARK  status: ('A' for Active; 'I' for Inactive)
REMARK    1  A    between atoms: N_2  and  C_3 
REMARK    2  A    between atoms: N_2  and  C_28 
REMARK    3  A    between atoms: C_3  and  C_4 
REMARK    4  A    between atoms: C_4  and  C_5 
REMARK    5  A    between atoms: C_5  and  N_6 
REMARK       I    between atoms: N_6  and  C_7 
REMARK    6  A    between atoms: C_7  and  C_9 
REMARK    7  A    between atoms: C_9  and  S_10 
REMARK    8  A    between atoms: S_10  and  C_11 
REMARK    9  A    between atoms: C_14  and  C_15 
REMARK   10  A    between atoms: N_24  and  C_25 
ROOT
ATOM      1  C   UNL d   1       1.188   9.322  -4.432  0.00  0.00     0.268 C 
ATOM      2  N   UNL d   1       1.563  10.168  -5.569  0.00  0.00    -0.279 N 
ATOM      3  N   UNL d   1       1.613  11.514  -5.317  0.00  0.00    -0.158 NA
ATOM      4  C   UNL d   1       1.411  11.625  -4.048  0.00  0.00     0.157 C 
ATOM      5  N   UNL d   1       1.028  10.394  -3.420  0.00  0.00    -0.328 N 
ATOM      6  H   UNL d   1       1.229   9.875  -6.485  0.00  0.00     0.185 HD
ENDROOT
BRANCH   1   7
ATOM      7  S   UNL d   1       2.520   8.167  -4.014  0.00  0.00    -0.112 SA
BRANCH   7   8
ATOM      8  C   UNL d   1       1.634   6.687  -3.304  0.00  0.00     0.180 C 
BRANCH   8   9
ATOM      9  C   UNL d   1       2.636   5.640  -2.789  0.00  0.00     0.227 C 
ATOM     10  N   UNL d   1       2.089   4.496  -2.224  0.00  0.00    -0.360 N 
ATOM     11  H   UNL d   1       1.088   4.350  -2.165  0.00  0.00     0.162 HD
ATOM     12  O   UNL d   1       3.855   5.808  -2.819  0.00  0.00    -0.273 OA
BRANCH  10  13
ATOM     13  C   UNL d   1       2.982   3.450  -1.720  0.00  0.00     0.124 C 
BRANCH  13  14
ATOM     14  C   UNL d   1       2.230   2.251  -1.164  0.00  0.00     0.039 C 
BRANCH  14  15
ATOM     15  C   UNL d   1       3.163   1.149  -0.645  0.00  0.00     0.124 C 
BRANCH  15  16
ATOM     16  N   UNL d   1       2.454  -0.052  -0.177  0.00  0.00    -0.385 N 
ATOM     17  C   UNL d   1       0.999  -0.124  -0.081  0.00  0.00     0.149 C 
BRANCH  16  18
ATOM     18  C   UNL d   1       3.179  -1.111   0.382  0.00  0.00     0.029 A 
ATOM     19  C   UNL d   1       2.785  -2.447   0.193  0.00  0.00     0.029 A 
ATOM     20  C   UNL d   1       3.431  -3.511   0.838  0.00  0.00     0.002 A 
ATOM     21  C   UNL d   1       4.548  -3.270   1.628  0.00  0.00     0.000 A 
ATOM     22  C   UNL d   1       5.023  -1.971   1.753  0.00  0.00     0.002 A 
ATOM     23  C   UNL d   1       4.324  -0.905   1.169  0.00  0.00     0.029 A 
ENDBRANCH  16  18
ENDBRANCH  15  16
ENDBRANCH  14  15
ENDBRANCH  13  14
ENDBRANCH  10  13
ENDBRANCH   8   9
ENDBRANCH   7   8
ENDBRANCH   1   7
BRANCH   5  24
ATOM     24  C   UNL d   1       0.304  10.261  -2.189  0.00  0.00     0.089 A 
ATOM     25  C   UNL d   1      -0.449   9.001  -1.837  0.00  0.00     0.027 A 
ATOM     26  C   UNL d   1       0.825   9.335  -1.123  0.00  0.00     0.027 A 
ENDBRANCH   5  24
BRANCH   4  27
ATOM     27  C   UNL d   1       1.599  12.833  -3.232  0.00  0.00     0.019 A 
ATOM     28  C   UNL d   1       2.544  12.951  -2.292  0.00  0.00     0.002 A 
ATOM     29  C   UNL d   1       3.495  12.061  -1.710  0.00  0.00     0.014 A 
ATOM     30  C   UNL d   1       2.558  14.389  -1.928  0.00  0.00     0.039 A 
ATOM     31  C   UNL d   1       4.342  12.535  -0.784  0.00  0.00     0.001 A 
ATOM     32  C   UNL d   1       4.341  13.932  -0.377  0.00  0.00     0.002 A 
ATOM     33  C   UNL d   1       3.511  14.854  -0.902  0.00  0.00     0.030 A 
ATOM     34  N   UNL d   1       1.701  15.064  -2.607  0.00  0.00    -0.385 N 
ATOM     35  C   UNL d   1       0.991  14.163  -3.554  0.00  0.00     0.163 A 
ATOM     36  H   UNL d   1       1.570  16.067  -2.489  0.00  0.00     0.160 HD
ENDBRANCH   4  27
TORSDOF 10
