REMARK  3 active torsions:
REMARK  status: ('A' for Active; 'I' for Inactive)
REMARK       I    between atoms: C_2  and  N_3 
REMARK    1  A    between atoms: C_2  and  C_15 
REMARK    2  A    between atoms: N_3  and  N_4 
REMARK    3  A    between atoms: C_5  and  C_6 
ROOT
ATOM      1  O   UNL d   1       0.935   0.073  -0.056  0.00  0.00    -0.264 OA
ATOM      2  C   UNL d   1       2.169   0.003  -0.028  0.00  0.00     0.292 C 
ATOM      3  N   UNL d   1       2.880  -0.477   1.088  0.00  0.00    -0.242 N 
ATOM      4  H   UNL d   1       3.895  -0.446   1.080  0.00  0.00     0.192 HD
ENDROOT
BRANCH   3   5
ATOM      5  N   UNL d   1       2.177  -0.914   2.220  0.00  0.00    -0.182 NA
ATOM      6  C   UNL d   1       2.840  -1.186   3.305  0.00  0.00     0.168 C 
BRANCH   6   7
ATOM      7  C   UNL d   1       2.166  -1.627   4.524  0.00  0.00     0.052 A 
ATOM      8  C   UNL d   1       2.475  -1.344   5.854  0.00  0.00     0.040 A 
ATOM      9  C   UNL d   1       1.528  -1.993   6.694  0.00  0.00    -0.033 A 
ATOM     10  C   UNL d   1       0.693  -2.707   5.861  0.00  0.00     0.016 A 
ATOM     11  C   UNL d   1       1.345  -1.957   8.184  0.00  0.00     0.040 C 
ATOM     12  N   UNL d   1       1.050  -2.450   4.560  0.00  0.00    -0.358 N 
ATOM     13  C   UNL d   1      -0.421  -3.595   6.312  0.00  0.00     0.057 C 
ATOM     14  H   UNL d   1       0.596  -2.826   3.737  0.00  0.00     0.166 HD
ATOM     15  C   UNL d   1      -0.851  -3.187   7.736  0.00  0.00     0.006 C 
ATOM     16  C   UNL d   1       0.365  -3.047   8.670  0.00  0.00     0.005 C 
ENDBRANCH   6   7
ENDBRANCH   3   5
BRANCH   2  17
ATOM     17  C   UNL d   1       2.966   0.488  -1.188  0.00  0.00     0.154 A 
ATOM     18  N   UNL d   1       4.119  -0.095  -1.622  0.00  0.00    -0.169 NA
ATOM     19  N   UNL d   1       4.453   0.585  -2.761  0.00  0.00    -0.281 N 
ATOM     20  C   UNL d   1       3.621   1.619  -2.993  0.00  0.00     0.036 A 
ATOM     21  H   UNL d   1       5.266   0.293  -3.298  0.00  0.00     0.189 HD
ATOM     22  C   UNL d   1       2.655   1.581  -2.038  0.00  0.00     0.002 A 
ATOM     23  C   UNL d   1       3.533   2.717  -3.967  0.00  0.00     0.059 A 
ATOM     24  C   UNL d   1       1.690   2.684  -2.203  0.00  0.00     0.043 A 
ATOM     25  C   UNL d   1       2.257   3.468  -3.450  0.00  0.00     0.011 A 
ENDBRANCH   2  17
TORSDOF 3
