@<TRIPOS>MOLECULE
*****
 63 67 0 0 0
SMALL
GASTEIGER

@<TRIPOS>ATOM
      1 C           7.8934    5.4232    5.7472 C.3     1  UNL1       -0.0203
      2 C           7.1151    4.4836    4.8205 C.2     1  UNL1        0.0634
      3 N           6.1683    3.7236    5.3279 N.2     1  UNL1       -0.1843
      4 N           5.4480    2.8442    4.5292 N.am    1  UNL1       -0.2013
      5 C           4.3786    2.0545    4.9933 C.2     1  UNL1        0.2854
      6 O           3.9886    2.0453    6.1551 O.2     1  UNL1       -0.2666
      7 C           3.8133    1.1340    3.9442 C.ar    1  UNL1        0.1773
      8 N           2.5117    0.7857    3.8171 N.ar    1  UNL1       -0.1239
      9 N           2.3852   -0.0493    2.7871 N.ar    1  UNL1       -0.0581
     10 N           3.7405   -0.4035    2.1404 N.ar    1  UNL1       -0.1868
     11 C           4.1559   -1.8371    0.8124 C.ar    1  UNL1        0.2404
     12 N           4.0456   -1.8104   -0.5430 N.ar    1  UNL1       -0.0272
     13 O           4.0497   -3.0992   -1.0429 O.2     1  UNL1       -0.2388
     14 N           4.0810   -4.1340   -0.1185 N.ar    1  UNL1       -0.0319
     15 C           4.1451   -3.5887    1.0903 C.ar    1  UNL1        0.2064
     16 N           4.5697   -4.2870    2.3982 N.pl3   1  UNL1       -0.3375
     17 C           4.5283    0.4205    2.9914 C.ar    1  UNL1        0.1234
     18 C           5.9049    0.3711    2.7570 C.3     1  UNL1        0.0142
     19 N           5.9010   -0.5321    1.6256 N.4     1  UNL1        0.2416
     20 C           4.9256    0.2446    0.2079 C.3     1  UNL1       -0.0313
     21 C           2.9789    0.0449    0.2570 C.3     1  UNL1       -0.0123
     22 C           2.1835   -1.5535    1.1630 C.3     1  UNL1       -0.0432
     23 C           3.3679   -2.2897    2.6557 C.3     1  UNL1       -0.0097
     24 C           5.4353   -2.1497    2.3682 C.3     1  UNL1       -0.0234
     25 C           6.4508   -3.1002    1.0845 C.3     1  UNL1       -0.0216
     26 C           7.5120    4.5353    3.3774 C.ar    1  UNL1       -0.0019
     27 C           8.8524    4.4853    2.9826 C.ar    1  UNL1       -0.0522
     28 C           9.1725    4.4329    1.6206 C.ar    1  UNL1       -0.0534
     29 C           8.1627    4.3845    0.6452 C.ar    1  UNL1       -0.0178
     30 C           8.4627    4.2650   -0.7196 C.ar    1  UNL1       -0.0540
     31 C           7.4425    4.2170   -1.6716 C.ar    1  UNL1       -0.0612
     32 C           6.1105    4.2837   -1.2729 C.ar    1  UNL1       -0.0612
     33 C           5.7942    4.4124    0.0786 C.ar    1  UNL1       -0.0540
     34 C           6.8108    4.4663    1.0443 C.ar    1  UNL1       -0.0173
     35 C           6.5083    4.5965    2.4036 C.ar    1  UNL1       -0.0451
     36 H           7.5328    5.3522    6.7768 H       1  UNL1        0.0293
     37 H           7.7797    6.4630    5.4168 H       1  UNL1        0.0293
     38 H           8.9634    5.1881    5.7520 H       1  UNL1        0.0293
     39 H           5.6504    2.8502    3.5488 H       1  UNL1        0.1776
     40 H           5.5463   -4.5900    2.5257 H       1  UNL1        0.1439
     41 H           4.4951   -3.8037    3.3222 H       1  UNL1        0.1439
     42 H           6.4207   -0.0541    3.6220 H       1  UNL1        0.0883
     43 H           6.2862    1.3268    2.4327 H       1  UNL1        0.0883
     44 H           6.8839   -0.6350    1.3300 H       1  UNL1        0.2040
     45 H           5.4360   -0.2637   -0.6276 H       1  UNL1        0.0814
     46 H           5.2645    1.2805    0.2048 H       1  UNL1        0.0814
     47 H           2.5599    0.1938   -0.7433 H       1  UNL1        0.0317
     48 H           2.6713    0.9565    0.8065 H       1  UNL1        0.0317
     49 H           2.1335   -2.3541    0.3863 H       1  UNL1        0.0269
     50 H           1.1013   -1.5376    1.3389 H       1  UNL1        0.0269
     51 H           2.8528   -3.2620    2.7630 H       1  UNL1        0.0320
     52 H           3.1696   -1.8946    3.6629 H       1  UNL1        0.0320
     53 H           6.0326   -2.2277    3.2749 H       1  UNL1        0.0848
     54 H           6.2786   -2.7546    0.0443 H       1  UNL1        0.0284
     55 H           6.2526   -4.1919    1.0021 H       1  UNL1        0.0284
     56 H           7.5315   -3.1300    1.2074 H       1  UNL1        0.0284
     57 H           9.6656    4.4766    3.7058 H       1  UNL1        0.0624
     58 H          10.2206    4.4225    1.3209 H       1  UNL1        0.0624
     59 H           9.4971    4.2192   -1.0560 H       1  UNL1        0.0624
     60 H           7.6915    4.1500   -2.7288 H       1  UNL1        0.0618
     61 H           5.3193    4.2652   -2.0194 H       1  UNL1        0.0618
     62 H           4.7467    4.4901    0.3648 H       1  UNL1        0.0624
     63 H           5.4732    4.7286    2.7150 H       1  UNL1        0.0630
@<TRIPOS>UNITY_ATOM_ATTR
19 1
charge 1
@<TRIPOS>BOND
     1     1     2    1
     2     2     3    2
     3     3     4    1
     4     4     5   am
     5     5     6    2
     6     5     7    1
     7     7     8   ar
     8     8     9   ar
     9     9    10   ar
    10    10    11    1
    11    11    12   ar
    12    12    13   ar
    13    13    14   ar
    14    14    15   ar
    15    11    15   ar
    16    15    16    1
    17    10    17   ar
    18     7    17   ar
    19    17    18    1
    20    19    20    1
    21    20    21    1
    22    21    22    1
    23    22    23    1
    24    23    24    1
    25    19    24    1
    26    24    25    1
    27     2    26    1
    28    26    27   ar
    29    27    28   ar
    30    28    29   ar
    31    29    30   ar
    32    30    31   ar
    33    31    32   ar
    34    32    33   ar
    35    33    34   ar
    36    29    34   ar
    37    34    35   ar
    38    26    35   ar
    39    19    18    1
    40     1    36    1
    41     1    37    1
    42     1    38    1
    43     4    39    1
    44    16    40    1
    45    16    41    1
    46    18    42    1
    47    18    43    1
    48    19    44    1
    49    20    45    1
    50    20    46    1
    51    21    47    1
    52    21    48    1
    53    22    49    1
    54    22    50    1
    55    23    51    1
    56    23    52    1
    57    24    53    1
    58    25    54    1
    59    25    55    1
    60    25    56    1
    61    27    57    1
    62    28    58    1
    63    30    59    1
    64    31    60    1
    65    32    61    1
    66    33    62    1
    67    35    63    1
