REMARK  5 active torsions:
REMARK  status: ('A' for Active; 'I' for Inactive)
REMARK       I    between atoms: C_2  and  N_3 
REMARK       I    between atoms: C_2  and  N_13 
REMARK    1  A    between atoms: N_3  and  C_4 
REMARK    2  A    between atoms: C_4  and  C_5 
REMARK    3  A    between atoms: N_13  and  O_14 
REMARK    4  A    between atoms: O_14  and  C_15 
REMARK    5  A    between atoms: C_15  and  C_16 
ROOT
ATOM      1  O   UNL d   1       1.122   0.006  -0.038  0.00  0.00    -0.245 OA
ATOM      2  C   UNL d   1       2.354  -0.012  -0.028  0.00  0.00     0.340 C 
ATOM      3  N   UNL d   1       3.078  -0.959   0.634  0.00  0.00    -0.337 N 
ATOM      4  N   UNL d   1       3.052   0.940  -0.694  0.00  0.00    -0.216 N 
ATOM      5  H   UNL d   1       4.085  -0.908   0.552  0.00  0.00     0.164 HD
ATOM      6  H   UNL d   1       2.531   1.656  -1.184  0.00  0.00     0.199 HD
ENDROOT
BRANCH   3   7
ATOM      7  C   UNL d   1       2.420  -2.021   1.368  0.00  0.00     0.163 C 
BRANCH   7   8
ATOM      8  C   UNL d   1       3.359  -3.008   2.026  0.00  0.00    -0.039 A 
ATOM      9  C   UNL d   1       3.074  -4.387   1.978  0.00  0.00     0.012 A 
ATOM     10  C   UNL d   1       3.901  -5.314   2.621  0.00  0.00     0.044 A 
ATOM     11  C   UNL d   1       5.011  -4.871   3.330  0.00  0.00     0.138 A 
ATOM     12  F   UNL d   1       5.791  -5.777   3.939  0.00  0.00    -0.204 F 
ATOM     13  C   UNL d   1       5.298  -3.511   3.409  0.00  0.00     0.073 A 
ATOM     14 CL   UNL d   1       6.664  -2.958   4.301  0.00  0.00    -0.081 Cl
ATOM     15  C   UNL d   1       4.473  -2.581   2.768  0.00  0.00     0.035 A 
ENDBRANCH   7   8
ENDBRANCH   3   7
BRANCH   4  16
ATOM     16  O   UNL d   1       4.458   0.968  -0.717  0.00  0.00    -0.272 OA
BRANCH  16  17
ATOM     17  C   UNL d   1       4.911   2.084  -1.514  0.00  0.00     0.240 C 
BRANCH  17  18
ATOM     18  C   UNL d   1       6.419   2.128  -1.505  0.00  0.00    -0.032 A 
ATOM     19  C   UNL d   1       7.165   0.941  -1.496  0.00  0.00     0.009 A 
ATOM     20  C   UNL d   1       8.548   0.976  -1.327  0.00  0.00     0.001 A 
ATOM     21  C   UNL d   1       9.213   2.198  -1.279  0.00  0.00     0.000 A 
ATOM     22  C   UNL d   1       8.493   3.387  -1.369  0.00  0.00     0.001 A 
ATOM     23  C   UNL d   1       7.101   3.354  -1.481  0.00  0.00     0.009 A 
ENDBRANCH  17  18
ENDBRANCH  16  17
ENDBRANCH   4  16
TORSDOF 5
