@<TRIPOS>MOLECULE
*****
 34 35 0 0 0
SMALL
GASTEIGER

@<TRIPOS>ATOM
      1 N           0.9882    0.1765    0.1925 N.am    1  UNL1       -0.3253
      2 C           2.3569    0.1718    0.3279 C.2     1  UNL1        0.2434
      3 O           2.9400   -0.5478    1.1185 O.2     1  UNL1       -0.2704
      4 C           3.1079    1.0865   -0.5609 C.ar    1  UNL1        0.0590
      5 C           2.8013    2.4471   -0.4030 C.ar    1  UNL1       -0.0295
      6 C           3.6202    3.4108   -0.9705 C.ar    1  UNL1        0.0418
      7 CL          3.2615    5.0754   -0.7244 Cl      1  UNL1       -0.0835
      8 C           4.7468    3.0292   -1.6944 C.ar    1  UNL1       -0.0416
      9 C           5.0336    1.6630   -1.8910 C.ar    1  UNL1       -0.0384
     10 C           4.2011    0.6590   -1.3521 C.ar    1  UNL1        0.0459
     11 N           4.5283   -0.7144   -1.6183 N.am    1  UNL1       -0.2813
     12 C           3.6425   -1.7714   -1.4700 C.2     1  UNL1        0.2411
     13 O           2.4176   -1.6619   -1.4447 O.2     1  UNL1       -0.2705
     14 C           4.2203   -3.1421   -1.4897 C.2     1  UNL1        0.0010
     15 C           3.4577   -4.1288   -0.9745 C.2     1  UNL1       -0.0497
     16 C           3.7221   -5.5547   -1.1918 C.ar    1  UNL1       -0.0247
     17 C           5.0090   -6.0810   -1.0478 C.ar    1  UNL1       -0.0519
     18 C           5.2587   -7.4206   -1.3451 C.ar    1  UNL1       -0.0259
     19 C           4.2160   -8.2402   -1.7604 C.ar    1  UNL1        0.1234
     20 F           4.4658   -9.5219   -2.0578 F       1  UNL1       -0.2055
     21 C           2.9213   -7.7489   -1.8725 C.ar    1  UNL1       -0.0259
     22 C           2.6711   -6.4046   -1.5819 C.ar    1  UNL1       -0.0519
     23 H           0.5766   -0.7168    0.4407 H       1  UNL1        0.1453
     24 H           0.5520    0.6377   -0.5929 H       1  UNL1        0.1453
     25 H           1.9590    2.7431    0.2174 H       1  UNL1        0.0640
     26 H           5.4058    3.7950   -2.1018 H       1  UNL1        0.0633
     27 H           5.9177    1.4167   -2.4762 H       1  UNL1        0.0637
     28 H           5.4311   -0.9063   -2.0344 H       1  UNL1        0.1551
     29 H           5.1332   -3.3285   -2.0352 H       1  UNL1        0.0670
     30 H           2.5306   -3.9016   -0.4454 H       1  UNL1        0.0625
     31 H           5.8250   -5.4481   -0.7110 H       1  UNL1        0.0624
     32 H           6.2617   -7.8239   -1.2611 H       1  UNL1        0.0646
     33 H           2.1227   -8.4096   -2.1965 H       1  UNL1        0.0646
     34 H           1.6565   -6.0234   -1.6906 H       1  UNL1        0.0624
@<TRIPOS>BOND
     1     1     2   am
     2     2     3    2
     3     2     4    1
     4     4     5   ar
     5     5     6   ar
     6     6     7    1
     7     6     8   ar
     8     8     9   ar
     9     9    10   ar
    10     4    10   ar
    11    10    11    1
    12    11    12   am
    13    12    13    2
    14    12    14    1
    15    14    15    2
    16    15    16    1
    17    16    17   ar
    18    17    18   ar
    19    18    19   ar
    20    19    20    1
    21    19    21   ar
    22    21    22   ar
    23    16    22   ar
    24     1    23    1
    25     1    24    1
    26     5    25    1
    27     8    26    1
    28     9    27    1
    29    11    28    1
    30    14    29    1
    31    15    30    1
    32    17    31    1
    33    18    32    1
    34    21    33    1
    35    22    34    1
