@<TRIPOS>MOLECULE
*****
 53 57 0 0 0
SMALL
GASTEIGER

@<TRIPOS>ATOM
      1 C           1.0523    0.0525   -0.0442 C.3     1  UNL1       -0.0396
      2 C           2.5533    0.0578   -0.0433 C.ar    1  UNL1       -0.0480
      3 C           3.2580    1.2710   -0.0404 C.ar    1  UNL1       -0.0523
      4 C           4.6682    1.3322   -0.0251 C.ar    1  UNL1       -0.0057
      5 C           5.3610    2.6569   -0.0189 C.3     1  UNL1       -0.0362
      6 C           5.3142    0.0901   -0.0208 C.ar    1  UNL1        0.1586
      7 O           6.6633   -0.1777    0.0007 O.2     1  UNL1       -0.4350
      8 C           6.7266   -1.5525   -0.0355 C.ar    1  UNL1        0.2285
      9 C           8.0476   -2.1699   -0.0570 C.ar    1  UNL1        0.0387
     10 C           8.3931   -3.0587   -1.0763 C.ar    1  UNL1       -0.0494
     11 C           9.6229   -3.7207   -1.0440 C.ar    1  UNL1       -0.0593
     12 C          10.5164   -3.5091    0.0201 C.ar    1  UNL1       -0.0404
     13 C          10.1868   -2.6272    1.0626 C.ar    1  UNL1        0.0345
     14 N          11.0998   -2.4379    2.1448 N.am    1  UNL1       -0.2790
     15 C          10.8726   -1.6527    3.2824 C.2     1  UNL1        0.2836
     16 O           9.8278   -1.0314    3.4964 O.2     1  UNL1       -0.2665
     17 C          11.9643   -1.5671    4.2374 C.ar    1  UNL1        0.1902
     18 C          13.3240   -1.3779    4.0675 C.ar    1  UNL1       -0.0106
     19 C          13.8771   -1.2048    5.3578 C.ar    1  UNL1       -0.0151
     20 C          12.8419   -1.3247    6.2584 C.ar    1  UNL1        0.1361
     21 C          12.8093   -1.2100    7.7113 C.ar    1  UNL1        0.0237
     22 C          13.3147   -0.0448    8.3154 C.ar    1  UNL1       -0.0507
     23 C          13.4287    0.0630    9.7042 C.ar    1  UNL1       -0.0547
     24 C          13.0405   -0.9994   10.5155 C.ar    1  UNL1        0.0156
     25 C          12.5362   -2.1673    9.9249 C.ar    1  UNL1        0.2738
     26 N          12.1526   -3.2933   10.7877 N.pl3   1  UNL1        0.0796
     27 O          12.2667   -3.1455   12.0137 O.2     1  UNL1        0.0414
     28 O          11.7459   -4.3278   10.2413 O.co2   1  UNL1       -0.5760
     29 C          12.4174   -2.2794    8.5269 C.ar    1  UNL1        0.0262
     30 O          11.6716   -1.5403    5.5895 O.2     1  UNL1       -0.4502
     31 C           8.9504   -1.9665    0.9954 C.ar    1  UNL1       -0.0282
     32 N           5.5571   -2.1599   -0.0751 N.ar    1  UNL1       -0.2089
     33 C           4.6551   -1.1304   -0.0440 C.ar    1  UNL1        0.1104
     34 C           3.2546   -1.1585   -0.0455 C.ar    1  UNL1       -0.0296
     35 H           0.6487    1.0707   -0.0452 H       1  UNL1        0.0278
     36 H           0.6777   -0.4546    0.8504 H       1  UNL1        0.0278
     37 H           0.6774   -0.4571   -0.9371 H       1  UNL1        0.0278
     38 H           2.6929    2.2040   -0.0466 H       1  UNL1        0.0624
     39 H           4.6362    3.4802   -0.0242 H       1  UNL1        0.0279
     40 H           5.9876    2.7619   -0.9088 H       1  UNL1        0.0279
     41 H           5.9738    2.7595    0.8805 H       1  UNL1        0.0279
     42 H           7.6944   -3.2441   -1.8905 H       1  UNL1        0.0625
     43 H           9.8706   -4.4137   -1.8466 H       1  UNL1        0.0618
     44 H          11.4549   -4.0597    0.0098 H       1  UNL1        0.0636
     45 H          11.9642   -2.9662    2.1088 H       1  UNL1        0.1552
     46 H          13.8420   -1.2919    3.1242 H       1  UNL1        0.0657
     47 H          14.9045   -0.9986    5.6206 H       1  UNL1        0.0656
     48 H          13.6383    0.7923    7.6983 H       1  UNL1        0.0625
     49 H          13.8296    0.9715   10.1488 H       1  UNL1        0.0620
     50 H          13.1408   -0.9047   11.5955 H       1  UNL1        0.0685
     51 H          12.0607   -3.2009    8.0706 H       1  UNL1        0.0692
     52 H           8.6247   -1.2954    1.7800 H       1  UNL1        0.0644
     53 H           2.7377   -2.1117   -0.0500 H       1  UNL1        0.0643
@<TRIPOS>UNITY_ATOM_ATTR
26 1
charge 1
28 1
charge -1
@<TRIPOS>BOND
     1     1     2    1
     2     2     3   ar
     3     3     4   ar
     4     4     5    1
     5     4     6   ar
     6     6     7   ar
     7     7     8   ar
     8     8     9    1
     9     9    10   ar
    10    10    11   ar
    11    11    12   ar
    12    12    13   ar
    13    13    14    1
    14    14    15   am
    15    15    16    2
    16    15    17    1
    17    17    18   ar
    18    18    19   ar
    19    19    20   ar
    20    20    21    1
    21    21    22   ar
    22    22    23   ar
    23    23    24   ar
    24    24    25   ar
    25    25    26    1
    26    26    27    2
    27    26    28    1
    28    25    29   ar
    29    21    29   ar
    30    20    30   ar
    31    17    30   ar
    32    13    31   ar
    33     9    31   ar
    34     8    32   ar
    35    32    33   ar
    36     6    33   ar
    37    33    34   ar
    38     2    34   ar
    39     1    35    1
    40     1    36    1
    41     1    37    1
    42     3    38    1
    43     5    39    1
    44     5    40    1
    45     5    41    1
    46    10    42    1
    47    11    43    1
    48    12    44    1
    49    14    45    1
    50    18    46    1
    51    19    47    1
    52    22    48    1
    53    23    49    1
    54    24    50    1
    55    29    51    1
    56    31    52    1
    57    34    53    1
