REMARK  12 active torsions:
REMARK  status: ('A' for Active; 'I' for Inactive)
REMARK    1  A    between atoms: C_2  and  C_3 
REMARK    2  A    between atoms: C_3  and  C_4 
REMARK    3  A    between atoms: C_4  and  C_5 
REMARK    4  A    between atoms: C_5  and  O_6 
REMARK    5  A    between atoms: O_6  and  C_7 
REMARK    6  A    between atoms: C_12  and  C_13 
REMARK       I    between atoms: C_13  and  N_15 
REMARK    7  A    between atoms: N_15  and  C_16 
REMARK    8  A    between atoms: C_16  and  N_18 
REMARK    9  A    between atoms: N_18  and  N_19 
REMARK       I    between atoms: N_19  and  C_20 
REMARK   10  A    between atoms: C_22  and  C_20 
REMARK   11  A    between atoms: N_26  and  C_27 
REMARK   12  A    between atoms: C_27  and  C_28 
ROOT
ATOM      1  C   UNL d   1       1.606  -2.775   6.379  0.00  0.00     0.193 C 
ATOM      2  S   UNL d   1       2.796  -3.387   5.357  0.00  0.00    -0.039 SA
ENDROOT
BRANCH   1   3
ATOM      3  N   UNL d   1       1.660  -2.820   7.807  0.00  0.00    -0.298 N 
ATOM      4  C   UNL d   1       2.557  -3.590   8.616  0.00  0.00     0.260 C 
ATOM      5  O   UNL d   1       3.660  -3.949   8.203  0.00  0.00    -0.267 OA
ATOM      6  H   UNL d   1       0.887  -2.412   8.314  0.00  0.00     0.171 HD
BRANCH   4   7
ATOM      7  C   UNL d   1       2.257  -3.990  10.062  0.00  0.00     0.065 A 
ATOM      8  C   UNL d   1       3.383  -4.416  10.828  0.00  0.00     0.020 A 
ATOM      9  C   UNL d   1       3.303  -4.771  12.185  0.00  0.00     0.001 A 
ATOM     10  C   UNL d   1       2.079  -4.727  12.827  0.00  0.00     0.003 A 
ATOM     11  C   UNL d   1       0.941  -4.402  12.084  0.00  0.00     0.038 A 
ATOM     12  C   UNL d   1       1.019  -4.027  10.715  0.00  0.00     0.084 A 
BRANCH  12  13
ATOM     13  O   UNL d   1      -0.165  -3.585  10.201  0.00  0.00    -0.350 OA
BRANCH  13  14
ATOM     14  C   UNL d   1      -0.607  -4.192   8.995  0.00  0.00     0.175 C 
BRANCH  14  15
ATOM     15  C   UNL d   1      -1.640  -3.236   8.408  0.00  0.00     0.027 C 
BRANCH  15  16
ATOM     16  C   UNL d   1      -2.004  -3.672   7.002  0.00  0.00     0.002 C 
BRANCH  16  17
ATOM     17  C   UNL d   1      -3.013  -2.719   6.382  0.00  0.00    -0.004 C 
ATOM     18  C   UNL d   1      -3.336  -3.166   4.968  0.00  0.00     0.005 C 
ENDBRANCH  16  17
ENDBRANCH  15  16
ENDBRANCH  14  15
ENDBRANCH  13  14
ENDBRANCH  12  13
ENDBRANCH   4   7
ENDBRANCH   1   3
BRANCH   1  19
ATOM     19  N   UNL d   1       0.455  -2.167   5.812  0.00  0.00    -0.273 N 
ATOM     20  H   UNL d   1      -0.366  -1.874   6.337  0.00  0.00     0.189 HD
BRANCH  19  21
ATOM     21  N   UNL d   1       0.176  -2.363   4.374  0.00  0.00    -0.268 N 
ATOM     22  C   UNL d   1      -0.833  -1.651   3.713  0.00  0.00     0.242 C 
ATOM     23  O   UNL d   1      -1.666  -0.955   4.285  0.00  0.00    -0.271 OA
ATOM     24  H   UNL d   1       0.998  -2.660   3.846  0.00  0.00     0.190 HD
BRANCH  22  25
ATOM     25  C   UNL d   1      -0.811  -1.801   2.195  0.00  0.00     0.106 C 
ATOM     26  C   UNL d   1      -1.228  -3.158   1.643  0.00  0.00     0.118 C 
ATOM     27  C   UNL d   1      -1.396  -2.841   0.180  0.00  0.00     0.221 C 
ATOM     28  O   UNL d   1      -1.232  -3.668  -0.681  0.00  0.00    -0.273 OA
ATOM     29  N   UNL d   1      -1.785  -1.498   0.089  0.00  0.00    -0.345 N 
ATOM     30  C   UNL d   1      -1.724  -0.859   1.398  0.00  0.00     0.141 C 
BRANCH  29  31
ATOM     31  C   UNL d   1      -2.169  -0.769  -1.139  0.00  0.00     0.190 C 
BRANCH  31  32
ATOM     32  C   UNL d   1      -2.315  -1.676  -2.312  0.00  0.00     0.070 A 
ATOM     33  C   UNL d   1      -3.122  -2.780  -2.504  0.00  0.00     0.036 A 
ATOM     34  C   UNL d   1      -2.692  -3.396  -3.696  0.00  0.00     0.027 A 
ATOM     35  C   UNL d   1      -1.709  -2.583  -4.211  0.00  0.00     0.142 A 
ATOM     36  O   UNL d   1      -1.475  -1.525  -3.382  0.00  0.00    -0.325 OA
ENDBRANCH  31  32
ENDBRANCH  29  31
ENDBRANCH  22  25
ENDBRANCH  19  21
ENDBRANCH   1  19
TORSDOF 12
