REMARK  7 active torsions:
REMARK  status: ('A' for Active; 'I' for Inactive)
REMARK    1  A    between atoms: C_4  and  O_5 
REMARK    2  A    between atoms: O_5  and  C_6 
REMARK    3  A    between atoms: C_6  and  C_7 
REMARK       I    between atoms: C_7  and  N_9 
REMARK    4  A    between atoms: N_9  and  C_10 
REMARK    5  A    between atoms: C_10  and  N_12 
REMARK    6  A    between atoms: N_12  and  N_13 
REMARK       I    between atoms: N_13  and  C_14 
REMARK       I    between atoms: C_14  and  N_16 
REMARK    7  A    between atoms: N_16  and  C_17 
ROOT
ATOM      1  C   UNL d   1       9.274  -1.238   0.049  0.00  0.00     0.193 C 
ATOM      2  S   UNL d   1       9.990   0.292   0.053  0.00  0.00    -0.039 SA
ENDROOT
BRANCH   1   3
ATOM      3  N   UNL d   1       7.867  -1.484   0.039  0.00  0.00    -0.301 N 
ATOM      4  C   UNL d   1       6.844  -0.490   0.029  0.00  0.00     0.248 C 
ATOM      5  O   UNL d   1       7.095   0.717   0.029  0.00  0.00    -0.271 OA
ATOM      6  H   UNL d   1       7.567  -2.450   0.039  0.00  0.00     0.171 HD
BRANCH   4   7
ATOM      7  C   UNL d   1       5.341  -0.913   0.017  0.00  0.00     0.278 C 
BRANCH   7   8
ATOM      8  O   UNL d   1       4.518   0.287   0.001  0.00  0.00    -0.342 OA
BRANCH   8   9
ATOM      9  C   UNL d   1       3.151   0.194  -0.000  0.00  0.00     0.070 A 
ATOM     10  C   UNL d   1       2.448  -1.006  -0.001  0.00  0.00     0.044 A 
ATOM     11  C   UNL d   1       1.038  -1.037   0.001  0.00  0.00    -0.042 A 
ATOM     12  C   UNL d   1       0.354  -2.373  -0.007  0.00  0.00     0.049 C 
ATOM     13  C   UNL d   1       0.326   0.171   0.005  0.00  0.00     0.017 A 
ATOM     14  C   UNL d   1       1.014   1.384   0.003  0.00  0.00     0.022 A 
ATOM     15 BR   UNL d   1      -1.574   0.214   0.006  0.00  0.00    -0.051 Br
ATOM     16  C   UNL d   1       2.419   1.393  -0.003  0.00  0.00     0.038 A 
ENDBRANCH   8   9
ENDBRANCH   7   8
ENDBRANCH   4   7
ENDBRANCH   1   3
BRANCH   1  17
ATOM     17  N   UNL d   1      10.112  -2.371   0.052  0.00  0.00    -0.272 N 
ATOM     18  H   UNL d   1       9.826  -3.350   0.062  0.00  0.00     0.189 HD
BRANCH  17  19
ATOM     19  N   UNL d   1      11.584  -2.186   0.079  0.00  0.00    -0.249 N 
ATOM     20  C   UNL d   1      12.445  -3.275   0.075  0.00  0.00     0.339 C 
ATOM     21  O   UNL d   1      11.984  -4.424   0.050  0.00  0.00    -0.245 OA
ATOM     22  N   UNL d   1      13.807  -2.964   0.142  0.00  0.00    -0.308 N 
ATOM     23  H   UNL d   1      14.093  -2.021   0.375  0.00  0.00     0.170 HD
ATOM     24  H   UNL d   1      11.899  -1.218   0.061  0.00  0.00     0.192 HD
BRANCH  22  25
ATOM     25  C   UNL d   1      14.844  -3.949   0.093  0.00  0.00     0.036 A 
ATOM     26  C   UNL d   1      16.026  -3.821   0.844  0.00  0.00     0.029 A 
ATOM     27  C   UNL d   1      17.052  -4.784   0.739  0.00  0.00     0.002 A 
ATOM     28  C   UNL d   1      16.902  -5.886  -0.102  0.00  0.00     0.000 A 
ATOM     29  C   UNL d   1      15.745  -6.008  -0.862  0.00  0.00     0.002 A 
ATOM     30  C   UNL d   1      14.729  -5.050  -0.762  0.00  0.00     0.029 A 
ENDBRANCH  22  25
ENDBRANCH  17  19
ENDBRANCH   1  17
TORSDOF 7
