REMARK  14 active torsions:
REMARK  status: ('A' for Active; 'I' for Inactive)
REMARK    1  A    between atoms: C_2  and  C_3 
REMARK    2  A    between atoms: C_3  and  C_4 
REMARK    3  A    between atoms: C_4  and  C_5 
REMARK    4  A    between atoms: C_5  and  C_6 
REMARK    5  A    between atoms: C_6  and  N_7 
REMARK       I    between atoms: N_7  and  C_8 
REMARK    6  A    between atoms: N_7  and  C_18 
REMARK    7  A    between atoms: C_8  and  C_10 
REMARK    8  A    between atoms: C_11  and  C_12 
REMARK    9  A    between atoms: C_18  and  C_19 
REMARK   10  A    between atoms: C_18  and  C_28 
REMARK       I    between atoms: C_19  and  N_21 
REMARK   11  A    between atoms: N_21  and  C_22 
REMARK   12  A    between atoms: C_29  and  O_30 
REMARK   13  A    between atoms: C_32  and  O_33 
REMARK   14  A    between atoms: C_35  and  O_36 
ROOT
ATOM      1  C   UNL d   1       8.549   2.175   3.961  0.00  0.00     0.219 C 
ENDROOT
BRANCH   1   2
ATOM      2  N   UNL d   1       7.055   2.095   3.761  0.00  0.00    -0.324 N 
ATOM      3  C   UNL d   1       6.115   2.417   4.775  0.00  0.00     0.299 C 
ATOM      4  O   UNL d   1       5.238   1.645   5.147  0.00  0.00    -0.258 OA
BRANCH   2   5
ATOM      5  C   UNL d   1       6.579   1.343   2.596  0.00  0.00     0.128 C 
BRANCH   5   6
ATOM      6  C   UNL d   1       5.073   1.290   2.461  0.00  0.00     0.020 C 
BRANCH   6   7
ATOM      7  C   UNL d   1       4.614   0.660   1.169  0.00  0.00     0.002 C 
BRANCH   7   8
ATOM      8  C   UNL d   1       3.093   0.662   1.177  0.00  0.00    -0.000 C 
BRANCH   8   9
ATOM      9  C   UNL d   1       2.566   0.014  -0.086  0.00  0.00    -0.005 C 
ATOM     10  C   UNL d   1       1.052   0.015  -0.081  0.00  0.00     0.005 C 
ENDBRANCH   8   9
ENDBRANCH   7   8
ENDBRANCH   6   7
ENDBRANCH   5   6
ENDBRANCH   2   5
BRANCH   3  11
ATOM     11  C   UNL d   1       6.012   3.774   5.318  0.00  0.00     0.000 C 
ATOM     12  C   UNL d   1       5.985   4.867   5.817  0.00  0.00    -0.057 C 
BRANCH  12  13
ATOM     13  C   UNL d   1       6.217   6.143   6.467  0.00  0.00     0.018 A 
ATOM     14  C   UNL d   1       6.260   6.199   7.864  0.00  0.00     0.020 A 
ATOM     15  C   UNL d   1       6.520   7.406   8.519  0.00  0.00     0.001 A 
ATOM     16  C   UNL d   1       6.780   8.560   7.783  0.00  0.00     0.000 A 
ATOM     17  C   UNL d   1       6.856   8.492   6.394  0.00  0.00     0.001 A 
ATOM     18  C   UNL d   1       6.582   7.287   5.738  0.00  0.00     0.020 A 
ENDBRANCH  12  13
ENDBRANCH   3  11
ENDBRANCH   1   2
BRANCH   1  19
ATOM     19  C   UNL d   1       9.388   2.874   2.822  0.00  0.00     0.245 C 
ATOM     20  O   UNL d   1      10.320   3.643   3.077  0.00  0.00    -0.271 OA
ATOM     21  N   UNL d   1       9.174   2.499   1.508  0.00  0.00    -0.354 N 
ATOM     22  H   UNL d   1       8.769   1.602   1.286  0.00  0.00     0.162 HD
BRANCH  21  23
ATOM     23  C   UNL d   1       9.734   3.287   0.416  0.00  0.00     0.084 C 
ATOM     24  C   UNL d   1       9.400   4.779   0.605  0.00  0.00     0.025 C 
ATOM     25  C   UNL d   1      10.015   5.669  -0.455  0.00  0.00     0.002 C 
ATOM     26  C   UNL d   1      11.516   5.427  -0.562  0.00  0.00     0.000 C 
ATOM     27  C   UNL d   1      11.813   3.959  -0.849  0.00  0.00     0.002 C 
ATOM     28  C   UNL d   1      11.237   3.048   0.232  0.00  0.00     0.025 C 
ENDBRANCH  21  23
ENDBRANCH   1  19
BRANCH   1  29
ATOM     29  C   UNL d   1       8.933   2.772   5.310  0.00  0.00     0.040 A 
ATOM     30  C   UNL d   1       9.274   2.051   6.461  0.00  0.00     0.080 A 
ATOM     31  C   UNL d   1       9.413   2.696   7.700  0.00  0.00     0.073 A 
ATOM     32  C   UNL d   1       9.234   4.069   7.789  0.00  0.00     0.071 A 
ATOM     33  C   UNL d   1       9.005   4.814   6.651  0.00  0.00     0.073 A 
ATOM     34  C   UNL d   1       8.844   4.168   5.434  0.00  0.00     0.080 A 
BRANCH  30  35
ATOM     35  O   UNL d   1       9.474   0.700   6.491  0.00  0.00    -0.360 OA
ATOM     36  H   UNL d   1       9.399   0.315   5.608  0.00  0.00     0.217 HD
ENDBRANCH  30  35
BRANCH  32  37
ATOM     37  O   UNL d   1       9.245   4.747   8.972  0.00  0.00    -0.361 OA
ATOM     38  H   UNL d   1       9.502   4.142   9.684  0.00  0.00     0.217 HD
ENDBRANCH  32  37
BRANCH  34  39
ATOM     39  O   UNL d   1       8.413   4.875   4.335  0.00  0.00    -0.360 OA
ATOM     40  H   UNL d   1       8.135   5.757   4.614  0.00  0.00     0.217 HD
ENDBRANCH  34  39
ENDBRANCH   1  29
TORSDOF 14
