REMARK  13 active torsions:
REMARK  status: ('A' for Active; 'I' for Inactive)
REMARK    1  A    between atoms: S_2  and  C_4 
REMARK    2  A    between atoms: S_2  and  N_21 
REMARK    3  A    between atoms: C_4  and  C_5 
REMARK    4  A    between atoms: C_5  and  C_6 
REMARK    5  A    between atoms: C_6  and  C_7 
REMARK    6  A    between atoms: C_7  and  C_8 
REMARK    7  A    between atoms: C_8  and  C_9 
REMARK    8  A    between atoms: C_9  and  S_10 
REMARK    9  A    between atoms: S_10  and  N_13 
REMARK   10  A    between atoms: N_13  and  C_14 
REMARK   11  A    between atoms: C_18  and  O_19 
REMARK   12  A    between atoms: N_21  and  C_22 
REMARK   13  A    between atoms: C_26  and  O_27 
ROOT
ATOM      1  C   UNL d   1       3.009  -3.845  -1.345  0.00  0.00     0.001 C 
ENDROOT
BRANCH   1   2
ATOM      2  C   UNL d   1       2.474  -2.696  -0.486  0.00  0.00     0.017 C 
BRANCH   2   3
ATOM      3  C   UNL d   1       2.976  -1.363  -1.009  0.00  0.00     0.163 C 
BRANCH   3   4
ATOM      4  S   UNL d   1       2.458   0.022   0.007  0.00  0.00     0.231 S 
ATOM      5  O   UNL d   1       1.013   0.125  -0.119  0.00  0.00    -0.206 OA
ATOM      6  O   UNL d   1       3.081  -0.088   1.302  0.00  0.00    -0.206 OA
BRANCH   4   7
ATOM      7  N   UNL d   1       3.064   1.375  -0.802  0.00  0.00    -0.285 N 
ATOM      8  H   UNL d   1       2.388   2.136  -0.869  0.00  0.00     0.178 HD
BRANCH   7   9
ATOM      9  C   UNL d   1       4.457   1.698  -0.795  0.00  0.00     0.044 A 
ATOM     10  C   UNL d   1       5.366   0.796  -1.344  0.00  0.00     0.030 A 
ATOM     11  C   UNL d   1       6.731   1.055  -1.388  0.00  0.00     0.005 A 
ATOM     12  C   UNL d   1       7.207   2.280  -0.952  0.00  0.00     0.036 A 
ATOM     13  C   UNL d   1       6.302   3.223  -0.468  0.00  0.00     0.067 A 
ATOM     14  C   UNL d   1       4.931   2.941  -0.372  0.00  0.00     0.066 A 
BRANCH  13  15
ATOM     15  O   UNL d   1       6.733   4.463  -0.089  0.00  0.00    -0.361 OA
ATOM     16  H   UNL d   1       7.695   4.515  -0.220  0.00  0.00     0.217 HD
ENDBRANCH  13  15
ENDBRANCH   7   9
ENDBRANCH   4   7
ENDBRANCH   3   4
ENDBRANCH   2   3
ENDBRANCH   1   2
BRANCH   1  17
ATOM     17  C   UNL d   1       2.523  -5.186  -0.798  0.00  0.00     0.001 C 
BRANCH  17  18
ATOM     18  C   UNL d   1       3.021  -6.347  -1.650  0.00  0.00     0.017 C 
BRANCH  18  19
ATOM     19  C   UNL d   1       2.525  -7.704  -1.131  0.00  0.00     0.163 C 
BRANCH  19  20
ATOM     20  S   UNL d   1       3.164  -9.009  -2.190  0.00  0.00     0.231 S 
ATOM     21  O   UNL d   1       2.565  -8.846  -3.498  0.00  0.00    -0.206 OA
ATOM     22  O   UNL d   1       4.602  -8.983  -2.020  0.00  0.00    -0.206 OA
BRANCH  20  23
ATOM     23  N   UNL d   1       2.573 -10.440  -1.537  0.00  0.00    -0.285 N 
ATOM     24  H   UNL d   1       1.962 -10.438  -0.724  0.00  0.00     0.178 HD
BRANCH  23  25
ATOM     25  C   UNL d   1       2.954 -11.703  -2.114  0.00  0.00     0.044 A 
ATOM     26  C   UNL d   1       4.272 -11.943  -2.514  0.00  0.00     0.030 A 
ATOM     27  C   UNL d   1       4.664 -13.179  -3.029  0.00  0.00     0.005 A 
ATOM     28  C   UNL d   1       3.744 -14.215  -3.133  0.00  0.00     0.036 A 
ATOM     29  C   UNL d   1       2.435 -13.995  -2.714  0.00  0.00     0.067 A 
ATOM     30  C   UNL d   1       2.032 -12.753  -2.204  0.00  0.00     0.066 A 
BRANCH  29  31
ATOM     31  O   UNL d   1       1.505 -14.995  -2.780  0.00  0.00    -0.361 OA
ATOM     32  H   UNL d   1       1.926 -15.796  -3.138  0.00  0.00     0.217 HD
ENDBRANCH  29  31
ENDBRANCH  23  25
ENDBRANCH  20  23
ENDBRANCH  19  20
ENDBRANCH  18  19
ENDBRANCH  17  18
ENDBRANCH   1  17
TORSDOF 13
