@<TRIPOS>MOLECULE
*****
 36 36 0 0 0
SMALL
GASTEIGER

@<TRIPOS>ATOM
      1 C           1.1018   -0.0201    0.0004 C.3     1  UNL1       -0.0442
      2 C           2.6417   -0.0578    0.0038 C.3     1  UNL1        0.0262
      3 C           3.0934   -0.6143    1.3654 C.3     1  UNL1       -0.0442
      4 C           3.0912   -0.9869   -1.1364 C.3     1  UNL1       -0.0442
      5 N           3.2009    1.2871   -0.2013 N.am    1  UNL1       -0.3105
      6 C           4.5670    1.4976   -0.2425 C.2     1  UNL1        0.2137
      7 O           5.4018    0.6010   -0.1078 O.2     1  UNL1       -0.2758
      8 C           4.9844    2.9238   -0.4415 C.3     1  UNL1        0.0279
      9 C           6.5182    3.0363   -0.4445 C.3     1  UNL1       -0.0194
     10 C           7.0187    4.4453   -0.6476 C.ar    1  UNL1       -0.0452
     11 C           6.2461    5.5484   -0.2671 C.ar    1  UNL1       -0.0584
     12 C           6.6946    6.8422   -0.4866 C.ar    1  UNL1       -0.0598
     13 C           7.9405    7.0511   -1.0675 C.ar    1  UNL1       -0.0410
     14 C           8.7642    5.9741   -1.4030 C.ar    1  UNL1        0.0248
     15 N           9.9652    6.2007   -2.0570 N.pl3   1  UNL1       -0.3580
     16 C           8.2909    4.6726   -1.2001 C.ar    1  UNL1       -0.0379
     17 H           0.6920   -1.0277    0.1494 H       1  UNL1        0.0250
     18 H           0.7076    0.3586   -0.9490 H       1  UNL1        0.0250
     19 H           0.7092    0.6165    0.8010 H       1  UNL1        0.0250
     20 H           2.7023   -1.6228    1.5302 H       1  UNL1        0.0250
     21 H           2.7468    0.0283    2.1834 H       1  UNL1        0.0250
     22 H           4.1816   -0.6774    1.4505 H       1  UNL1        0.0250
     23 H           2.6995   -1.9990   -1.0015 H       1  UNL1        0.0250
     24 H           4.1793   -1.0730   -1.1996 H       1  UNL1        0.0250
     25 H           2.7457   -0.6069   -2.1051 H       1  UNL1        0.0250
     26 H           2.5696    2.0734   -0.3124 H       1  UNL1        0.1492
     27 H           4.5521    3.4973    0.3852 H       1  UNL1        0.0361
     28 H           4.5754    3.2981   -1.3875 H       1  UNL1        0.0361
     29 H           6.9187    2.3928   -1.2414 H       1  UNL1        0.0318
     30 H           6.9268    2.6549    0.5012 H       1  UNL1        0.0318
     31 H           5.2731    5.4273    0.1959 H       1  UNL1        0.0620
     32 H           6.0641    7.6807   -0.2087 H       1  UNL1        0.0618
     33 H           8.2666    8.0701   -1.2480 H       1  UNL1        0.0636
     34 H          10.3352    7.1417   -2.0918 H       1  UNL1        0.1423
     35 H          10.6117    5.4359   -2.1956 H       1  UNL1        0.1423
     36 H           8.9168    3.8266   -1.4789 H       1  UNL1        0.0639
@<TRIPOS>BOND
     1     1     2    1
     2     2     3    1
     3     2     4    1
     4     2     5    1
     5     5     6   am
     6     6     7    2
     7     6     8    1
     8     8     9    1
     9     9    10    1
    10    10    11   ar
    11    11    12   ar
    12    12    13   ar
    13    13    14   ar
    14    14    15    1
    15    14    16   ar
    16    10    16   ar
    17     1    17    1
    18     1    18    1
    19     1    19    1
    20     3    20    1
    21     3    21    1
    22     3    22    1
    23     4    23    1
    24     4    24    1
    25     4    25    1
    26     5    26    1
    27     8    27    1
    28     8    28    1
    29     9    29    1
    30     9    30    1
    31    11    31    1
    32    12    32    1
    33    13    33    1
    34    15    34    1
    35    15    35    1
    36    16    36    1
