REMARK  3 active torsions:
REMARK  status: ('A' for Active; 'I' for Inactive)
REMARK       I    between atoms: C_2  and  N_3 
REMARK    1  A    between atoms: C_2  and  C_12 
REMARK    2  A    between atoms: N_3  and  N_4 
REMARK    3  A    between atoms: N_4  and  C_5 
ROOT
ATOM      1  O   UNL d   1       1.013  -0.106  -0.095  0.00  0.00    -0.264 OA
ATOM      2  C   UNL d   1       2.242  -0.071  -0.139  0.00  0.00     0.286 C 
ATOM      3  N   UNL d   1       2.983  -0.326  -1.289  0.00  0.00    -0.264 N 
ATOM      4  H   UNL d   1       3.994  -0.293  -1.319  0.00  0.00     0.190 HD
ENDROOT
BRANCH   2   5
ATOM      5  C   UNL d   1       3.047   0.197   1.118  0.00  0.00     0.106 A 
ATOM      6  C   UNL d   1       4.097   1.034   1.114  0.00  0.00     0.048 A 
ATOM      7  C   UNL d   1       4.844   1.279   2.358  0.00  0.00    -0.018 A 
ATOM      8  C   UNL d   1       5.959   2.125   2.378  0.00  0.00     0.012 A 
ATOM      9  C   UNL d   1       4.452   0.649   3.549  0.00  0.00     0.042 A 
ATOM     10  C   UNL d   1       6.674   2.329   3.564  0.00  0.00     0.001 A 
ATOM     11  C   UNL d   1       6.282   1.691   4.741  0.00  0.00     0.001 A 
ATOM     12  C   UNL d   1       5.170   0.849   4.737  0.00  0.00     0.018 A 
ATOM     13  C   UNL d   1       3.257  -0.232   3.521  0.00  0.00     0.257 A 
ATOM     14  O   UNL d   1       2.858  -0.795   4.538  0.00  0.00    -0.267 OA
ATOM     15  N   UNL d   1       2.630  -0.385   2.301  0.00  0.00    -0.318 N 
ATOM     16  H   UNL d   1       1.790  -0.955   2.297  0.00  0.00     0.169 HD
ENDBRANCH   2   5
BRANCH   3  17
ATOM     17  N   UNL d   1       2.300  -0.535  -2.496  0.00  0.00    -0.298 N 
ATOM     18  H   UNL d   1       1.288  -0.409  -2.502  0.00  0.00     0.187 HD
BRANCH  17  19
ATOM     19  C   UNL d   1       3.002  -0.803  -3.680  0.00  0.00     0.048 A 
ATOM     20  C   UNL d   1       4.119  -1.650  -3.718  0.00  0.00     0.034 A 
ATOM     21  C   UNL d   1       4.815  -1.884  -4.913  0.00  0.00     0.044 A 
ATOM     22  C   UNL d   1       4.414  -1.250  -6.082  0.00  0.00     0.116 A 
ATOM     23  F   UNL d   1       5.090  -1.463  -7.220  0.00  0.00    -0.206 F 
ATOM     24  C   UNL d   1       3.321  -0.397  -6.078  0.00  0.00     0.044 A 
ATOM     25  C   UNL d   1       2.618  -0.179  -4.883  0.00  0.00     0.034 A 
ENDBRANCH  17  19
ENDBRANCH   3  17
TORSDOF 3
