REMARK  6 active torsions:
REMARK  status: ('A' for Active; 'I' for Inactive)
REMARK    1  A    between atoms: C_2  and  C_16 
REMARK    2  A    between atoms: C_2  and  O_3 
REMARK    3  A    between atoms: O_3  and  C_4 
REMARK    4  A    between atoms: C_4  and  C_6 
REMARK    5  A    between atoms: C_9  and  N_10 
REMARK       I    between atoms: N_10  and  C_11 
REMARK       I    between atoms: C_11  and  N_12 
REMARK       I    between atoms: C_16  and  N_18 
REMARK    6  A    between atoms: N_18  and  C_19 
ROOT
ATOM      1  C   UNL d   1       0.313  -0.316  -1.110  0.00  0.00     0.294 C 
ATOM      2  O   UNL d   1      -0.892  -0.207  -1.029  0.00  0.00    -0.259 OA
ENDROOT
BRANCH   1   3
ATOM      3  O   UNL d   1       1.159   0.020  -0.096  0.00  0.00    -0.303 OA
BRANCH   3   4
ATOM      4  C   UNL d   1       2.620   0.139  -0.017  0.00  0.00     0.220 C 
ATOM      5  C   UNL d   1       3.349   0.333  -1.333  0.00  0.00     0.050 C 
BRANCH   4   6
ATOM      6  C   UNL d   1       2.976   1.431   0.733  0.00  0.00     0.251 C 
ATOM      7  O   UNL d   1       2.127   2.288   0.965  0.00  0.00    -0.270 OA
ATOM      8  N   UNL d   1       4.347   1.601   0.968  0.00  0.00    -0.323 N 
ATOM      9  H   UNL d   1       5.023   1.041   0.465  0.00  0.00     0.169 HD
BRANCH   8  10
ATOM     10  C   UNL d   1       4.871   2.700   1.680  0.00  0.00     0.056 A 
ATOM     11  C   UNL d   1       6.057   3.309   1.219  0.00  0.00     0.031 A 
ATOM     12  C   UNL d   1       6.687   4.289   1.995  0.00  0.00     0.002 A 
ATOM     13  C   UNL d   1       6.111   4.705   3.193  0.00  0.00     0.002 A 
ATOM     14  C   UNL d   1       4.927   4.123   3.635  0.00  0.00     0.026 A 
ATOM     15  C   UNL d   1       4.314   3.115   2.899  0.00  0.00     0.060 A 
ATOM     16 CL   UNL d   1       3.008   2.303   3.700  0.00  0.00    -0.082 Cl
ENDBRANCH   8  10
ENDBRANCH   4   6
ENDBRANCH   3   4
ENDBRANCH   1   3
BRANCH   1  17
ATOM     17  C   UNL d   1       0.886  -0.907  -2.334  0.00  0.00     0.039 C 
ATOM     18  C   UNL d   1       0.639  -0.393  -3.613  0.00  0.00     0.020 C 
ATOM     19  C   UNL d   1       1.333  -0.920  -4.729  0.00  0.00     0.030 C 
ATOM     20  C   UNL d   1       2.366  -1.858  -4.542  0.00  0.00     0.036 C 
ATOM     21  C   UNL d   1       2.509  -2.395  -3.268  0.00  0.00     0.030 C 
ATOM     22  C   UNL d   1       1.737  -1.987  -2.188  0.00  0.00     0.020 C 
BRANCH  20  23
ATOM     23  N   UNL d   1       3.223  -2.212  -5.611  0.00  0.00    -0.309 N 
ATOM     24  C   UNL d   1       4.352  -2.979  -5.680  0.00  0.00     0.318 C 
ATOM     25  N   UNL d   1       4.889  -3.519  -4.564  0.00  0.00    -0.352 N 
ATOM     26  O   UNL d   1       4.890  -3.205  -6.761  0.00  0.00    -0.247 OA
ATOM     27  H   UNL d   1       4.879  -3.029  -3.687  0.00  0.00     0.160 HD
ATOM     28  H   UNL d   1       5.746  -4.038  -4.705  0.00  0.00     0.160 HD
ATOM     29  H   UNL d   1       2.976  -1.860  -6.532  0.00  0.00     0.170 HD
ENDBRANCH  20  23
ENDBRANCH   1  17
TORSDOF 6
