@<TRIPOS>MOLECULE
*****
 58 60 0 0 0
SMALL
GASTEIGER

@<TRIPOS>ATOM
      1 C          -2.4920    1.8482   -0.0218 C.3     1  UNL1       -0.0379
      2 C          -1.6562    0.6154    0.0110 C.ar    1  UNL1       -0.0279
      3 C          -0.2676    0.8783    0.0263 C.ar    1  UNL1       -0.0387
      4 C           0.6580   -0.1439    0.0115 C.ar    1  UNL1        0.0413
      5 CL          2.3337    0.2428    0.0062 Cl      1  UNL1       -0.0835
      6 C           0.2085   -1.4551   -0.0092 C.ar    1  UNL1       -0.0416
      7 C          -1.1840   -1.7346   -0.0023 C.ar    1  UNL1       -0.0388
      8 C          -2.1605   -0.7046    0.0133 C.ar    1  UNL1        0.0368
      9 N          -3.5655   -1.0729    0.0348 N.am    1  UNL1       -0.2775
     10 C          -4.7028   -0.2450    0.0483 C.2     1  UNL1        0.3048
     11 O          -4.7845    0.9816    0.0164 O.2     1  UNL1       -0.2648
     12 C          -6.1000   -0.8710    0.1093 C.2     1  UNL1        0.3184
     13 O          -6.2321   -2.0875    0.1234 O.2     1  UNL1       -0.2634
     14 N          -7.0923    0.1276    0.1365 N.am    1  UNL1       -0.1992
     15 N          -8.4200   -0.1769    0.1942 N.2     1  UNL1       -0.1873
     16 C          -9.2819    0.7923    0.1277 C.2     1  UNL1        0.0528
     17 C         -10.7344    0.4817    0.2199 C.ar    1  UNL1       -0.0052
     18 C         -11.6966    1.1799   -0.5129 C.ar    1  UNL1       -0.0496
     19 C         -13.0586    0.8570   -0.3509 C.ar    1  UNL1       -0.0193
     20 C         -13.4639   -0.1813    0.5038 C.ar    1  UNL1        0.1212
     21 O         -14.8082   -0.4430    0.5373 O.3     1  UNL1       -0.4828
     22 C         -15.2663   -1.5767    1.2829 C.3     1  UNL1        0.1651
     23 C         -16.7847   -1.7901    1.0961 C.2     1  UNL1        0.2507
     24 O         -17.4715   -1.1017    0.3447 O.2     1  UNL1       -0.2721
     25 N         -17.3378   -2.8266    1.8383 N.am    1  UNL1       -0.3100
     26 C         -18.7657   -3.1259    1.7353 C.3     1  UNL1        0.0380
     27 C         -19.2348   -4.3183    2.5818 C.3     1  UNL1        0.0742
     28 C         -18.5107   -5.6117    2.2428 C.3     1  UNL1       -0.0231
     29 C         -19.5497   -6.6683    2.5156 C.3     1  UNL1       -0.0271
     30 C         -20.8396   -5.9712    2.1492 C.3     1  UNL1        0.0482
     31 O         -20.6380   -4.5682    2.3691 O.3     1  UNL1       -0.3750
     32 C         -12.4933   -0.8605    1.2353 C.ar    1  UNL1       -0.0193
     33 C         -11.1388   -0.5339    1.0905 C.ar    1  UNL1       -0.0496
     34 H          -1.9179    2.7747   -0.0564 H       1  UNL1        0.0278
     35 H          -3.0689    1.8952    0.9058 H       1  UNL1        0.0278
     36 H          -3.0740    1.8362   -0.9483 H       1  UNL1        0.0278
     37 H           0.0777    1.9111    0.0417 H       1  UNL1        0.0635
     38 H           0.9417   -2.2596   -0.0303 H       1  UNL1        0.0633
     39 H          -1.4646   -2.7869   -0.0153 H       1  UNL1        0.0637
     40 H          -3.7711   -2.0712    0.0505 H       1  UNL1        0.1553
     41 H          -6.7740    1.1008    0.1132 H       1  UNL1        0.1777
     42 H          -9.0066    1.8603    0.0173 H       1  UNL1        0.0851
     43 H         -11.4129    1.9439   -1.2329 H       1  UNL1        0.0625
     44 H         -13.8130    1.4173   -0.9031 H       1  UNL1        0.0654
     45 H         -15.0801   -1.4128    2.3508 H       1  UNL1        0.0795
     46 H         -14.7609   -2.4896    0.9427 H       1  UNL1        0.0795
     47 H         -16.7548   -3.3902    2.4426 H       1  UNL1        0.1489
     48 H         -19.0070   -3.2990    0.6784 H       1  UNL1        0.0487
     49 H         -19.3253   -2.2269    2.0226 H       1  UNL1        0.0487
     50 H         -19.1119   -4.0874    3.6471 H       1  UNL1        0.0611
     51 H         -17.6040   -5.7453    2.8400 H       1  UNL1        0.0291
     52 H         -18.2264   -5.6354    1.1847 H       1  UNL1        0.0291
     53 H         -19.5519   -6.9250    3.5809 H       1  UNL1        0.0288
     54 H         -19.3894   -7.5884    1.9462 H       1  UNL1        0.0288
     55 H         -21.6844   -6.3238    2.7494 H       1  UNL1        0.0560
     56 H         -21.0859   -6.1145    1.0917 H       1  UNL1        0.0560
     57 H         -12.7503   -1.6474    1.9341 H       1  UNL1        0.0654
     58 H         -10.3936   -1.0751    1.6693 H       1  UNL1        0.0625
@<TRIPOS>BOND
     1     1     2    1
     2     2     3   ar
     3     3     4   ar
     4     4     5    1
     5     4     6   ar
     6     6     7   ar
     7     7     8   ar
     8     2     8   ar
     9     8     9    1
    10     9    10   am
    11    10    11    2
    12    10    12    1
    13    12    13    2
    14    12    14   am
    15    14    15    1
    16    15    16    2
    17    16    17    1
    18    17    18   ar
    19    18    19   ar
    20    19    20   ar
    21    20    21    1
    22    21    22    1
    23    22    23    1
    24    23    24    2
    25    23    25   am
    26    25    26    1
    27    26    27    1
    28    27    28    1
    29    28    29    1
    30    29    30    1
    31    30    31    1
    32    27    31    1
    33    20    32   ar
    34    32    33   ar
    35    17    33   ar
    36     1    34    1
    37     1    35    1
    38     1    36    1
    39     3    37    1
    40     6    38    1
    41     7    39    1
    42     9    40    1
    43    14    41    1
    44    16    42    1
    45    18    43    1
    46    19    44    1
    47    22    45    1
    48    22    46    1
    49    25    47    1
    50    26    48    1
    51    26    49    1
    52    27    50    1
    53    28    51    1
    54    28    52    1
    55    29    53    1
    56    29    54    1
    57    30    55    1
    58    30    56    1
    59    32    57    1
    60    33    58    1
