@<TRIPOS>MOLECULE
*****
 57 59 0 0 0
SMALL
GASTEIGER

@<TRIPOS>ATOM
      1 C           0.9802   -0.0565    0.0456 C.3     1  UNL1       -0.0307
      2 C           2.5022   -0.0625    0.0219 C.3     1  UNL1        0.0868
      3 O           2.9299   -0.9423   -1.0240 O.3     1  UNL1       -0.4922
      4 C           4.2399   -1.3364   -1.0324 C.ar    1  UNL1        0.1206
      5 C           4.7772   -1.7056   -2.2716 C.ar    1  UNL1       -0.0182
      6 C           6.0967   -2.2192   -2.3844 C.ar    1  UNL1       -0.0370
      7 C           6.9303   -2.2873   -1.2551 C.ar    1  UNL1        0.0339
      8 N           8.3361   -2.5470   -1.3935 N.am    1  UNL1       -0.2814
      9 C           9.2550   -2.4493   -0.3444 C.2     1  UNL1        0.2500
     10 O           8.9865   -2.4417    0.8563 O.2     1  UNL1       -0.2698
     11 C          10.7102   -2.3399   -0.6454 C.ar    1  UNL1        0.0582
     12 C          11.5339   -3.0562    0.2633 C.ar    1  UNL1       -0.0478
     13 C          12.9223   -2.9945    0.2093 C.ar    1  UNL1       -0.0609
     14 C          13.5158   -2.2634   -0.8076 C.ar    1  UNL1       -0.0600
     15 C          12.7178   -1.5273   -1.7105 C.ar    1  UNL1       -0.0398
     16 C          11.3004   -1.5172   -1.6271 C.ar    1  UNL1        0.0448
     17 N          10.5642   -0.6905   -2.5628 N.am    1  UNL1       -0.2960
     18 C           9.4088    0.0573   -2.2591 C.2     1  UNL1        0.1411
     19 S           9.1756    0.7922   -0.7580 S.2     1  UNL1       -0.0182
     20 N           8.5361    0.2027   -3.3654 N.am    1  UNL1       -0.2636
     21 C           7.2016    0.5672   -3.2168 C.2     1  UNL1        0.2495
     22 O           6.5991    0.4622   -2.1424 O.2     1  UNL1       -0.2698
     23 C           6.3623    1.1249   -4.3003 C.ar    1  UNL1        0.0371
     24 C           5.2487    1.8649   -3.8466 C.ar    1  UNL1       -0.0488
     25 C           4.3876    2.5097   -4.7243 C.ar    1  UNL1       -0.0471
     26 C           4.6560    2.4822   -6.0917 C.ar    1  UNL1        0.0590
     27 C           3.8536    3.3941   -6.9571 C.2     1  UNL1        0.3389
     28 O           2.9770    4.1326   -6.5124 O.2     1  UNL1       -0.2450
     29 O           4.2569    3.3520   -8.2489 O.3     1  UNL1       -0.4645
     30 C           3.5497    4.2563   -9.1091 C.3     1  UNL1        0.0820
     31 C           5.7026    1.6635   -6.5636 C.ar    1  UNL1       -0.0471
     32 C           6.5454    0.9623   -5.6711 C.ar    1  UNL1       -0.0488
     33 C           6.3734   -1.8919   -0.0347 C.ar    1  UNL1       -0.0370
     34 C           5.0555   -1.4281    0.0823 C.ar    1  UNL1       -0.0182
     35 H           0.6000    0.6720    0.7687 H       1  UNL1        0.0262
     36 H           0.5968   -1.0459    0.3199 H       1  UNL1        0.0262
     37 H           0.5761    0.1802   -0.9432 H       1  UNL1        0.0262
     38 H           2.8436   -0.3627    1.0173 H       1  UNL1        0.0694
     39 H           2.8683    0.9457   -0.1999 H       1  UNL1        0.0694
     40 H           4.2137   -1.4541   -3.1693 H       1  UNL1        0.0655
     41 H           6.4882   -2.3935   -3.3826 H       1  UNL1        0.0637
     42 H           8.7012   -2.5627   -2.3367 H       1  UNL1        0.1551
     43 H          11.0725   -3.6578    1.0480 H       1  UNL1        0.0626
     44 H          13.5225   -3.5071    0.9604 H       1  UNL1        0.0618
     45 H          14.6035   -2.2619   -0.8843 H       1  UNL1        0.0618
     46 H          13.2502   -0.9235   -2.4427 H       1  UNL1        0.0636
     47 H          11.1491   -0.2484   -3.2626 H       1  UNL1        0.1539
     48 H           8.9768    0.4577   -4.2365 H       1  UNL1        0.1568
     49 H           5.0549    1.9595   -2.7751 H       1  UNL1        0.0625
     50 H           3.5379    3.0573   -4.3192 H       1  UNL1        0.0626
     51 H           3.9356    4.1351  -10.1254 H       1  UNL1        0.0661
     52 H           3.7122    5.2965   -8.8047 H       1  UNL1        0.0661
     53 H           2.4797    4.0233   -9.1192 H       1  UNL1        0.0661
     54 H           5.8786    1.5782   -7.6335 H       1  UNL1        0.0626
     55 H           7.3149    0.3065   -6.0649 H       1  UNL1        0.0625
     56 H           6.9677   -1.8285    0.8670 H       1  UNL1        0.0637
     57 H           4.7403   -1.1075    1.0664 H       1  UNL1        0.0655
@<TRIPOS>BOND
     1     1     2    1
     2     2     3    1
     3     3     4    1
     4     4     5   ar
     5     5     6   ar
     6     6     7   ar
     7     7     8    1
     8     8     9   am
     9     9    10    2
    10     9    11    1
    11    11    12   ar
    12    12    13   ar
    13    13    14   ar
    14    14    15   ar
    15    15    16   ar
    16    11    16   ar
    17    16    17    1
    18    17    18    1
    19    18    19    2
    20    18    20    1
    21    20    21   am
    22    21    22    2
    23    21    23    1
    24    23    24   ar
    25    24    25   ar
    26    25    26   ar
    27    26    27    1
    28    27    28    2
    29    27    29    1
    30    29    30    1
    31    26    31   ar
    32    31    32   ar
    33    23    32   ar
    34     7    33   ar
    35    33    34   ar
    36     4    34   ar
    37     1    35    1
    38     1    36    1
    39     1    37    1
    40     2    38    1
    41     2    39    1
    42     5    40    1
    43     6    41    1
    44     8    42    1
    45    12    43    1
    46    13    44    1
    47    14    45    1
    48    15    46    1
    49    17    47    1
    50    20    48    1
    51    24    49    1
    52    25    50    1
    53    30    51    1
    54    30    52    1
    55    30    53    1
    56    31    54    1
    57    32    55    1
    58    33    56    1
    59    34    57    1
