@<TRIPOS>MOLECULE
*****
 36 38 0 0 0
SMALL
GASTEIGER

@<TRIPOS>ATOM
      1 C          -2.3007   -0.1037   -0.0027 C.3     1  UNL1       -0.0222
      2 C          -0.8428    0.1336   -0.0064 C.ar    1  UNL1        0.0451
      3 N           0.0355   -0.9204   -0.0061 N.ar    1  UNL1       -0.2811
      4 N           1.3192   -0.5478    0.0054 N.ar    1  UNL1       -0.1813
      5 C           1.2568    0.7867    0.0003 C.ar    1  UNL1        0.0616
      6 C          -0.0755    1.2935   -0.0169 C.ar    1  UNL1        0.0782
      7 C          -0.4742    2.7081   -0.0417 C.2     1  UNL1        0.2634
      8 O           0.3676    3.6125   -0.0632 O.2     1  UNL1       -0.2685
      9 N          -1.8355    2.9979   -0.0475 N.am    1  UNL1       -0.2300
     10 N          -2.2961    4.3450   -0.0864 N.am    1  UNL1       -0.2276
     11 C          -3.6679    4.6252   -0.0448 C.2     1  UNL1        0.2957
     12 O          -4.4882    3.7050    0.0376 O.2     1  UNL1       -0.2653
     13 C          -4.0313    6.0410   -0.1453 C.ar    1  UNL1        0.1948
     14 O          -5.0736    6.5486    0.6058 O.2     1  UNL1       -0.4499
     15 C          -5.2111    7.8778    0.2944 C.ar    1  UNL1        0.1362
     16 C          -6.1413    8.7797    0.8273 C.ar    1  UNL1       -0.0187
     17 C          -6.1072   10.0989    0.3424 C.ar    1  UNL1       -0.0582
     18 C          -5.1830   10.4865   -0.6274 C.ar    1  UNL1       -0.0610
     19 C          -4.2649    9.5636   -1.1423 C.ar    1  UNL1       -0.0507
     20 C          -4.2773    8.2342   -0.6699 C.ar    1  UNL1        0.0238
     21 C          -3.5356    7.0499   -0.9652 C.ar    1  UNL1        0.0077
     22 C          -2.4933    6.9022   -2.0058 C.3     1  UNL1       -0.0354
     23 H          -2.5479   -1.1682    0.0259 H       1  UNL1        0.0292
     24 H          -2.7443    0.3226   -0.9075 H       1  UNL1        0.0292
     25 H          -2.7492    0.3683    0.8769 H       1  UNL1        0.0292
     26 H          -0.1745   -1.9153   -0.0141 H       1  UNL1        0.1885
     27 H           2.1893    1.3388    0.0069 H       1  UNL1        0.0855
     28 H          -2.5625    2.2926   -0.0353 H       1  UNL1        0.1731
     29 H          -1.5804    5.0664   -0.0472 H       1  UNL1        0.1732
     30 H          -6.8640    8.4799    1.5775 H       1  UNL1        0.0654
     31 H          -6.8139   10.8361    0.7225 H       1  UNL1        0.0619
     32 H          -5.1739   11.5124   -0.9930 H       1  UNL1        0.0618
     33 H          -3.5535    9.8765   -1.9008 H       1  UNL1        0.0625
     34 H          -2.2970    7.8468   -2.5182 H       1  UNL1        0.0279
     35 H          -2.8189    6.1699   -2.7517 H       1  UNL1        0.0279
     36 H          -1.5547    6.5637   -1.5623 H       1  UNL1        0.0279
@<TRIPOS>BOND
     1     1     2    1
     2     2     3   ar
     3     3     4   ar
     4     4     5   ar
     5     5     6   ar
     6     2     6   ar
     7     6     7    1
     8     7     8    2
     9     7     9   am
    10     9    10    1
    11    10    11   am
    12    11    12    2
    13    11    13    1
    14    13    14   ar
    15    14    15   ar
    16    15    16   ar
    17    16    17   ar
    18    17    18   ar
    19    18    19   ar
    20    19    20   ar
    21    15    20   ar
    22    20    21   ar
    23    13    21   ar
    24    21    22    1
    25     1    23    1
    26     1    24    1
    27     1    25    1
    28     3    26    1
    29     5    27    1
    30     9    28    1
    31    10    29    1
    32    16    30    1
    33    17    31    1
    34    18    32    1
    35    19    33    1
    36    22    34    1
    37    22    35    1
    38    22    36    1
