REMARK  8 active torsions:
REMARK  status: ('A' for Active; 'I' for Inactive)
REMARK    1  A    between atoms: C_2  and  C_3 
REMARK    2  A    between atoms: C_3  and  N_4 
REMARK       I    between atoms: N_4  and  C_5 
REMARK    3  A    between atoms: C_7  and  C_5 
REMARK    4  A    between atoms: C_7  and  N_9 
REMARK       I    between atoms: N_9  and  C_10 
REMARK    5  A    between atoms: C_10  and  C_12 
REMARK    6  A    between atoms: C_16  and  C_17 
REMARK    7  A    between atoms: C_17  and  S_18 
REMARK    8  A    between atoms: S_18  and  C_19 
ROOT
ATOM      1  C   UNL d   1       9.136  -4.161  -3.680  0.00  0.00     0.081 A 
ATOM      2  S   UNL d   1      10.526  -5.095  -3.312  0.00  0.00    -0.063 SA
ATOM      3  C   UNL d   1      10.512  -5.851  -4.834  0.00  0.00     0.116 A 
ATOM      4  N   UNL d   1      11.474  -6.748  -5.189  0.00  0.00    -0.226 NA
ATOM      5  C   UNL d   1      11.359  -7.214  -6.396  0.00  0.00     0.117 A 
ATOM      6  N   UNL d   1      10.336  -6.845  -7.247  0.00  0.00    -0.310 N 
ATOM      7  C   UNL d   1       9.348  -5.956  -6.940  0.00  0.00     0.260 A 
ATOM      8  O   UNL d   1       8.468  -5.664  -7.752  0.00  0.00    -0.267 OA
ATOM      9  C   UNL d   1       9.450  -5.415  -5.604  0.00  0.00     0.075 A 
ATOM     10  C   UNL d   1       8.619  -4.450  -4.936  0.00  0.00    -0.021 A 
ATOM     11  C   UNL d   1       7.431  -3.770  -5.533  0.00  0.00     0.051 C 
ATOM     12  H   UNL d   1      10.307  -7.239  -8.180  0.00  0.00     0.170 HD
ENDROOT
BRANCH   1  13
ATOM     13  C   UNL d   1       8.719  -3.154  -2.720  0.00  0.00     0.259 C 
ATOM     14  N   UNL d   1       7.354  -3.062  -2.501  0.00  0.00    -0.344 N 
ATOM     15  H   UNL d   1       6.723  -3.656  -3.016  0.00  0.00     0.163 HD
ATOM     16  O   UNL d   1       9.518  -2.419  -2.150  0.00  0.00    -0.267 OA
BRANCH  14  17
ATOM     17  C   UNL d   1       6.808  -2.008  -1.657  0.00  0.00     0.172 C 
ATOM     18  C   UNL d   1       5.281  -1.964  -1.737  0.00  0.00     0.042 C 
BRANCH  17  19
ATOM     19  C   UNL d   1       7.279  -2.205  -0.197  0.00  0.00     0.240 C 
ATOM     20  N   UNL d   1       6.630  -3.193   0.518  0.00  0.00    -0.359 N 
ATOM     21  H   UNL d   1       5.881  -3.726   0.101  0.00  0.00     0.162 HD
ATOM     22  O   UNL d   1       8.206  -1.559   0.287  0.00  0.00    -0.271 OA
BRANCH  20  23
ATOM     23  C   UNL d   1       7.027  -3.481   1.876  0.00  0.00     0.122 C 
BRANCH  23  24
ATOM     24  C   UNL d   1       6.133  -4.531   2.518  0.00  0.00     0.015 C 
ATOM     25  C   UNL d   1       6.575  -4.810   3.944  0.00  0.00     0.006 C 
ENDBRANCH  23  24
ENDBRANCH  20  23
ENDBRANCH  17  19
ENDBRANCH  14  17
ENDBRANCH   1  13
BRANCH   5  26
ATOM     26  C   UNL d   1      12.369  -8.225  -6.934  0.00  0.00     0.158 C 
BRANCH  26  27
ATOM     27  S   UNL d   1      11.993  -8.609  -8.683  0.00  0.00    -0.122 SA
BRANCH  27  28
ATOM     28  C   UNL d   1      13.185  -9.870  -9.067  0.00  0.00     0.007 C 
ATOM     29  C   UNL d   1      14.325  -9.476  -9.776  0.00  0.00     0.025 C 
ATOM     30  C   UNL d   1      15.112 -10.420 -10.441  0.00  0.00    -0.061 C 
ATOM     31  C   UNL d   1      16.326 -10.000 -11.211  0.00  0.00     0.048 C 
ATOM     32  C   UNL d   1      14.773 -11.770 -10.347  0.00  0.00     0.007 C 
ATOM     33  C   UNL d   1      13.781 -12.178  -9.458  0.00  0.00     0.009 C 
ATOM     34  C   UNL d   1      12.922 -11.236  -8.875  0.00  0.00    -0.045 C 
ATOM     35  C   UNL d   1      11.687 -11.713  -8.166  0.00  0.00     0.049 C 
ENDBRANCH  27  28
ENDBRANCH  26  27
ENDBRANCH   5  26
TORSDOF 8
