REMARK  3 active torsions:
REMARK  status: ('A' for Active; 'I' for Inactive)
REMARK       I    between atoms: C_2  and  N_3 
REMARK    1  A    between atoms: C_2  and  C_16 
REMARK    2  A    between atoms: N_3  and  N_4 
REMARK    3  A    between atoms: N_4  and  C_5 
ROOT
ATOM      1  O   UNL d   1       1.106   0.085   0.066  0.00  0.00    -0.264 OA
ATOM      2  C   UNL d   1       2.338   0.018   0.049  0.00  0.00     0.288 C 
ATOM      3  N   UNL d   1       3.084  -0.338   1.175  0.00  0.00    -0.264 N 
ATOM      4  H   UNL d   1       4.098  -0.326   1.192  0.00  0.00     0.190 HD
ENDROOT
BRANCH   3   5
ATOM      5  N   UNL d   1       2.412  -0.525   2.394  0.00  0.00    -0.297 N 
ATOM      6  H   UNL d   1       1.397  -0.626   2.357  0.00  0.00     0.187 HD
BRANCH   5   7
ATOM      7  C   UNL d   1       3.130  -0.761   3.584  0.00  0.00     0.062 A 
ATOM      8  C   UNL d   1       2.751  -1.831   4.404  0.00  0.00     0.051 A 
ATOM      9  C   UNL d   1       3.485  -2.100   5.549  0.00  0.00     0.119 A 
ATOM     10  N   UNL d   1       4.556  -1.383   5.943  0.00  0.00    -0.260 NA
ATOM     11  C   UNL d   1       4.930  -0.346   5.181  0.00  0.00     0.070 A 
ATOM     12  C   UNL d   1       6.024   0.409   5.588  0.00  0.00     0.056 A 
ATOM     13  C   UNL d   1       4.250   0.010   3.986  0.00  0.00     0.021 A 
ATOM     14  C   UNL d   1       6.466   1.498   4.840  0.00  0.00     0.036 A 
ATOM     15 CL   UNL d   1       7.835   2.405   5.348  0.00  0.00    -0.084 Cl
ATOM     16  C   UNL d   1       5.802   1.870   3.683  0.00  0.00     0.025 A 
ATOM     17  C   UNL d   1       4.687   1.148   3.279  0.00  0.00     0.018 A 
ENDBRANCH   5   7
ENDBRANCH   3   5
BRANCH   2  18
ATOM     18  C   UNL d   1       3.119   0.296  -1.216  0.00  0.00     0.126 A 
ATOM     19  C   UNL d   1       4.184  -0.519  -1.576  0.00  0.00     0.038 A 
ATOM     20  C   UNL d   1       4.841  -0.258  -2.778  0.00  0.00     0.016 A 
ATOM     21  C   UNL d   1       4.431   0.809  -3.590  0.00  0.00    -0.007 A 
ATOM     22  C   UNL d   1       5.081   1.105  -4.806  0.00  0.00     0.014 A 
ATOM     23  C   UNL d   1       3.337   1.586  -3.151  0.00  0.00     0.068 A 
ATOM     24  C   UNL d   1       4.657   2.173  -5.595  0.00  0.00     0.001 A 
ATOM     25  C   UNL d   1       3.578   2.940  -5.177  0.00  0.00     0.002 A 
ATOM     26  C   UNL d   1       2.933   2.639  -3.969  0.00  0.00     0.032 A 
ATOM     27  N   UNL d   1       2.694   1.334  -1.988  0.00  0.00    -0.243 NA
ENDBRANCH   2  18
TORSDOF 3
