@<TRIPOS>MOLECULE
*****
 57 61 0 0 0
SMALL
GASTEIGER

@<TRIPOS>ATOM
      1 C          11.4136    3.6556   -2.4105 C.3     1  UNL1        0.0790
      2 O          10.7127    2.9552   -1.3799 O.3     1  UNL1       -0.4915
      3 C           9.4833    3.4690   -1.0640 C.ar    1  UNL1        0.1613
      4 C           8.7759    2.8354   -0.0136 C.ar    1  UNL1       -0.0160
      5 C           7.4804    3.2438    0.3824 C.ar    1  UNL1       -0.0540
      6 C           6.9428    4.3855   -0.1874 C.ar    1  UNL1       -0.0315
      7 C           5.4347    4.7925   -0.1223 C.3     1  UNL1        0.0475
      8 C           4.9798    5.3398    1.2317 C.2     1  UNL1        0.0240
      9 C           4.8420    6.6718    1.4168 C.2     1  UNL1        0.0166
     10 C           4.3074    7.2753    2.7015 C.3     1  UNL1       -0.0137
     11 C           3.4466    6.2954    3.4969 C.3     1  UNL1       -0.0409
     12 C           4.2018    4.9917    3.6782 C.3     1  UNL1        0.0106
     13 C           4.5258    4.4037    2.3137 C.2     1  UNL1        0.1616
     14 O           4.4278    3.1982    2.1096 O.2     1  UNL1       -0.2923
     15 N           5.1439    7.5433    0.3753 N.pl3   1  UNL1       -0.3035
     16 C           5.3450    7.1526   -0.9408 C.ar    1  UNL1        0.1120
     17 N           5.8217    8.0041   -1.9163 N.ar    1  UNL1       -0.3153
     18 C           6.2355    7.5655   -3.1443 C.ar    1  UNL1        0.2002
     19 N           6.7246    8.5286   -4.0056 N.pl3   1  UNL1       -0.3010
     20 C           6.1761    8.5984   -5.3619 C.3     1  UNL1        0.0148
     21 C           7.2572    8.3772   -6.4124 C.3     1  UNL1       -0.0371
     22 C           8.4126    9.3567   -6.2362 C.3     1  UNL1       -0.0502
     23 C           8.9369    9.3130   -4.7997 C.3     1  UNL1       -0.0371
     24 C           7.8100    9.4847   -3.7610 C.3     1  UNL1        0.0148
     25 N           6.0900    6.3349   -3.5305 N.ar    1  UNL1       -0.1768
     26 C           5.5722    5.3865   -2.6575 C.ar    1  UNL1        0.2804
     27 O           5.5403    4.2022   -2.9383 O.2     1  UNL1       -0.2654
     28 C           5.2493    5.8394   -1.2474 C.ar    1  UNL1        0.0688
     29 C           7.8026    5.1059   -1.0540 C.ar    1  UNL1       -0.0124
     30 C           8.9178    4.5774   -1.6498 C.ar    1  UNL1        0.1587
     31 O           9.3799    5.2183   -2.7689 O.3     1  UNL1       -0.5033
     32 H          12.4152    3.2351   -2.4974 H       1  UNL1        0.0660
     33 H          11.5455    4.7209   -2.1735 H       1  UNL1        0.0660
     34 H          10.9124    3.5136   -3.3761 H       1  UNL1        0.0660
     35 H           9.2305    1.9847    0.4852 H       1  UNL1        0.0655
     36 H           6.9201    2.6658    1.1144 H       1  UNL1        0.0622
     37 H           4.8008    3.9266   -0.3640 H       1  UNL1        0.0450
     38 H           3.7047    8.1646    2.4842 H       1  UNL1        0.0326
     39 H           5.1546    7.5991    3.3187 H       1  UNL1        0.0326
     40 H           2.5053    6.1072    2.9623 H       1  UNL1        0.0273
     41 H           3.1789    6.7255    4.4696 H       1  UNL1        0.0273
     42 H           3.5882    4.2862    4.2515 H       1  UNL1        0.0345
     43 H           5.1371    5.1457    4.2283 H       1  UNL1        0.0345
     44 H           5.0783    8.5361    0.5606 H       1  UNL1        0.1532
     45 H           5.9495    8.9708   -1.6736 H       1  UNL1        0.1698
     46 H           5.7332    9.5927   -5.4907 H       1  UNL1        0.0464
     47 H           5.3666    7.8743   -5.4995 H       1  UNL1        0.0464
     48 H           6.8226    8.4993   -7.4108 H       1  UNL1        0.0280
     49 H           7.6405    7.3521   -6.3456 H       1  UNL1        0.0280
     50 H           8.0797   10.3733   -6.4816 H       1  UNL1        0.0266
     51 H           9.2166    9.1124   -6.9420 H       1  UNL1        0.0266
     52 H           9.6915   10.1002   -4.6739 H       1  UNL1        0.0280
     53 H           9.4460    8.3548   -4.6396 H       1  UNL1        0.0280
     54 H           7.4062   10.5007   -3.8577 H       1  UNL1        0.0464
     55 H           8.2278    9.3955   -2.7528 H       1  UNL1        0.0464
     56 H           7.5668    6.0927   -1.4138 H       1  UNL1        0.0658
     57 H           8.6383    5.6673   -3.2239 H       1  UNL1        0.2923
@<TRIPOS>BOND
     1     1     2    1
     2     2     3    1
     3     3     4   ar
     4     4     5   ar
     5     5     6   ar
     6     7     8    1
     7     8     9    2
     8     9    10    1
     9    10    11    1
    10    11    12    1
    11    12    13    1
    12     8    13    1
    13    13    14    2
    14     9    15    1
    15    15    16    1
    16    16    17   ar
    17    17    18   ar
    18    18    19    1
    19    19    20    1
    20    20    21    1
    21    21    22    1
    22    22    23    1
    23    23    24    1
    24    19    24    1
    25    18    25   ar
    26    25    26   ar
    27    26    27    2
    28    26    28   ar
    29    16    28   ar
    30     7    28    1
    31     6    29   ar
    32    29    30   ar
    33     3    30   ar
    34    30    31    1
    35     7     6    1
    36     1    32    1
    37     1    33    1
    38     1    34    1
    39     4    35    1
    40     5    36    1
    41     7    37    1
    42    10    38    1
    43    10    39    1
    44    11    40    1
    45    11    41    1
    46    12    42    1
    47    12    43    1
    48    15    44    1
    49    17    45    1
    50    20    46    1
    51    20    47    1
    52    21    48    1
    53    21    49    1
    54    22    50    1
    55    22    51    1
    56    23    52    1
    57    23    53    1
    58    24    54    1
    59    24    55    1
    60    29    56    1
    61    31    57    1
