@<TRIPOS>MOLECULE
*****
 64 66 0 0 0
SMALL
GASTEIGER

@<TRIPOS>ATOM
      1 C           0.9773   -0.0465    0.0767 C.3     1  UNL1       -0.0622
      2 C           2.4935   -0.0531    0.1039 C.3     1  UNL1       -0.0215
      3 C           3.0050   -1.1989    0.9618 C.3     1  UNL1        0.0893
      4 O           4.4219   -1.0920    1.0466 O.3     1  UNL1       -0.4920
      5 C           5.0674   -2.1390    1.6424 C.ar    1  UNL1        0.1212
      6 C           6.2739   -1.8176    2.2680 C.ar    1  UNL1       -0.0199
      7 C           7.1074   -2.8283    2.7302 C.ar    1  UNL1       -0.0576
      8 C           6.7271   -4.1626    2.5504 C.ar    1  UNL1       -0.0494
      9 C           5.5319   -4.4911    1.8589 C.ar    1  UNL1        0.0405
     10 C           5.3475   -5.8856    1.3261 C.2     1  UNL1        0.2496
     11 O           6.3223   -6.6048    1.4282 O.2     1  UNL1       -0.2698
     12 N           4.0943   -6.3357    0.8135 N.am    1  UNL1       -0.2636
     13 C           3.8258   -7.6616    0.3530 C.2     1  UNL1        0.1411
     14 S           5.0095   -8.7628   -0.1148 S.2     1  UNL1       -0.0182
     15 N           2.4499   -7.9974    0.3995 N.am    1  UNL1       -0.2951
     16 C           2.0250   -9.3913    0.3386 C.ar    1  UNL1        0.0547
     17 C           1.4094   -9.8733   -0.8468 C.ar    1  UNL1       -0.0247
     18 C           0.9418  -11.2040   -0.9532 C.ar    1  UNL1        0.0609
     19 C           0.1287  -11.6123   -2.1514 C.2     1  UNL1        0.3390
     20 O          -0.0902  -10.8468   -3.0862 O.2     1  UNL1       -0.2450
     21 O          -0.3951  -12.8610   -2.0266 O.3     1  UNL1       -0.4644
     22 C          -1.2829  -13.2630   -3.0873 C.3     1  UNL1        0.0820
     23 C           1.1866  -12.0779    0.1070 C.ar    1  UNL1       -0.0459
     24 C           1.8316  -11.6163    1.2738 C.ar    1  UNL1       -0.0381
     25 C           2.2586  -10.2765    1.4327 C.ar    1  UNL1        0.0516
     26 N           2.8632   -9.8790    2.6240 N.pl3   1  UNL1       -0.3183
     27 C           2.3371   -8.7755    3.4252 C.3     1  UNL1        0.0525
     28 C           3.4346   -7.7297    3.6865 C.3     1  UNL1       -0.0160
     29 N           4.7151   -8.3239    4.2518 N.4     1  UNL1        0.2353
     30 C           5.8018   -7.2991    4.4289 C.3     1  UNL1       -0.0430
     31 C           5.2155   -9.5345    3.4413 C.3     1  UNL1       -0.0160
     32 C           4.0681  -10.5452    3.1456 C.3     1  UNL1        0.0525
     33 C           4.6743   -3.4703    1.4839 C.ar    1  UNL1       -0.0078
     34 H           0.6099    0.7837   -0.5318 H       1  UNL1        0.0231
     35 H           0.5755    0.0634    1.0891 H       1  UNL1        0.0231
     36 H           0.5890   -0.9799   -0.3445 H       1  UNL1        0.0231
     37 H           2.8752    0.8985    0.4888 H       1  UNL1        0.0295
     38 H           2.8873   -0.1513   -0.9160 H       1  UNL1        0.0295
     39 H           2.6767   -2.1319    0.4929 H       1  UNL1        0.0696
     40 H           2.5964   -1.1384    1.9758 H       1  UNL1        0.0696
     41 H           6.5788   -0.7757    2.3572 H       1  UNL1        0.0654
     42 H           8.0842   -2.5745    3.1433 H       1  UNL1        0.0619
     43 H           7.4257   -4.9296    2.8844 H       1  UNL1        0.0625
     44 H           3.3056   -5.7094    0.8598 H       1  UNL1        0.1568
     45 H           1.8638   -7.3850   -0.1623 H       1  UNL1        0.1539
     46 H           1.3473   -9.2385   -1.7305 H       1  UNL1        0.0645
     47 H          -1.6407  -14.2785   -2.8814 H       1  UNL1        0.0661
     48 H          -0.7593  -13.2768   -4.0485 H       1  UNL1        0.0661
     49 H          -2.1570  -12.6038   -3.1354 H       1  UNL1        0.0661
     50 H           0.8686  -13.1193    0.0495 H       1  UNL1        0.0626
     51 H           1.9437  -12.3246    2.0938 H       1  UNL1        0.0637
     52 H           1.9993   -9.1657    4.3919 H       1  UNL1        0.0516
     53 H           1.4658   -8.3027    2.9563 H       1  UNL1        0.0516
     54 H           3.0949   -6.9383    4.3595 H       1  UNL1        0.0830
     55 H           3.7117   -7.2642    2.7648 H       1  UNL1        0.0830
     56 H           4.4858   -8.6765    5.1826 H       1  UNL1        0.2032
     57 H           6.1224   -6.9422    3.4680 H       1  UNL1        0.0778
     58 H           6.6593   -7.7648    4.9149 H       1  UNL1        0.0778
     59 H           5.4084   -6.4597    5.0067 H       1  UNL1        0.0778
     60 H           5.9827  -10.0113    4.0604 H       1  UNL1        0.0830
     61 H           5.7113   -9.1583    2.5462 H       1  UNL1        0.0830
     62 H           3.8068  -11.0216    4.0976 H       1  UNL1        0.0516
     63 H           4.4328  -11.3333    2.4773 H       1  UNL1        0.0516
     64 H           3.7712   -3.7077    0.9488 H       1  UNL1        0.0662
@<TRIPOS>UNITY_ATOM_ATTR
29 1
charge 1
@<TRIPOS>BOND
     1     1     2    1
     2     2     3    1
     3     3     4    1
     4     4     5    1
     5     5     6   ar
     6     6     7   ar
     7     7     8   ar
     8     8     9   ar
     9     9    10    1
    10    10    11    2
    11    10    12   am
    12    12    13    1
    13    13    14    2
    14    13    15    1
    15    15    16    1
    16    16    17   ar
    17    17    18   ar
    18    18    19    1
    19    19    20    2
    20    19    21    1
    21    21    22    1
    22    18    23   ar
    23    23    24   ar
    24    24    25   ar
    25    16    25   ar
    26    25    26    1
    27    26    27    1
    28    27    28    1
    29    28    29    1
    30    29    30    1
    31    29    31    1
    32    31    32    1
    33    26    32    1
    34     9    33   ar
    35     5    33   ar
    36     1    34    1
    37     1    35    1
    38     1    36    1
    39     2    37    1
    40     2    38    1
    41     3    39    1
    42     3    40    1
    43     6    41    1
    44     7    42    1
    45     8    43    1
    46    12    44    1
    47    15    45    1
    48    17    46    1
    49    22    47    1
    50    22    48    1
    51    22    49    1
    52    23    50    1
    53    24    51    1
    54    27    52    1
    55    27    53    1
    56    28    54    1
    57    28    55    1
    58    29    56    1
    59    30    57    1
    60    30    58    1
    61    30    59    1
    62    31    60    1
    63    31    61    1
    64    32    62    1
    65    32    63    1
    66    33    64    1
