REMARK  7 active torsions:
REMARK  status: ('A' for Active; 'I' for Inactive)
REMARK    1  A    between atoms: C_5  and  N_6 
REMARK       I    between atoms: N_6  and  C_7 
REMARK    2  A    between atoms: C_7  and  C_9 
REMARK    3  A    between atoms: C_9  and  N_10 
REMARK    4  A    between atoms: N_13  and  C_14 
REMARK    5  A    between atoms: C_14  and  C_15 
REMARK    6  A    between atoms: C_26  and  C_27 
REMARK       I    between atoms: C_27  and  N_29 
REMARK    7  A    between atoms: N_29  and  N_30 
ROOT
ATOM      1  N   UNL d   1      -5.853   2.760  -0.166  0.00  0.00    -0.283 N 
ATOM      2  C   UNL d   1      -7.259   2.924  -0.271  0.00  0.00     0.333 A 
ATOM      3  O   UNL d   1      -8.003   1.939  -0.346  0.00  0.00    -0.246 OA
ATOM      4  N   UNL d   1      -7.786   4.220  -0.217  0.00  0.00    -0.261 N 
ATOM      5  C   UNL d   1      -7.060   5.387  -0.150  0.00  0.00     0.265 A 
ATOM      6  O   UNL d   1      -7.589   6.493  -0.131  0.00  0.00    -0.267 OA
ATOM      7  C   UNL d   1      -5.636   5.238  -0.114  0.00  0.00     0.074 A 
ATOM      8  C   UNL d   1      -4.666   6.319  -0.074  0.00  0.00    -0.021 A 
ATOM      9  C   UNL d   1      -5.038   7.735  -0.065  0.00  0.00     0.051 C 
ATOM     10  C   UNL d   1      -3.351   5.899  -0.063  0.00  0.00     0.083 A 
ATOM     11  S   UNL d   1      -3.392   4.242  -0.121  0.00  0.00    -0.065 SA
ATOM     12  C   UNL d   1      -5.084   3.986  -0.120  0.00  0.00     0.098 A 
ENDROOT
BRANCH   1  13
ATOM     13  C   UNL d   1      -5.457   1.272  -0.115  0.00  0.00     0.237 C 
BRANCH  13  14
ATOM     14  C   UNL d   1      -3.995   0.968  -0.045  0.00  0.00     0.240 C 
ATOM     15  N   UNL d   1      -3.289  -0.175  -0.058  0.00  0.00    -0.326 N 
ATOM     16  H   UNL d   1      -3.746  -1.076  -0.064  0.00  0.00     0.169 HD
ATOM     17  O   UNL d   1      -3.299   1.952   0.105  0.00  0.00    -0.271 OA
BRANCH  15  18
ATOM     18  C   UNL d   1      -1.827  -0.106  -0.016  0.00  0.00     0.034 A 
ATOM     19  C   UNL d   1      -1.119  -1.290  -0.002  0.00  0.00     0.030 A 
ATOM     20  C   UNL d   1       0.288  -1.270   0.005  0.00  0.00     0.009 A 
ATOM     21  C   UNL d   1       1.023  -0.073   0.003  0.00  0.00    -0.062 A 
ATOM     22  C   UNL d   1       2.515  -0.033  -0.013  0.00  0.00     0.048 C 
ATOM     23  C   UNL d   1       0.342   1.122   0.006  0.00  0.00     0.009 A 
ATOM     24  C   UNL d   1      -1.043   1.091  -0.002  0.00  0.00     0.030 A 
ENDBRANCH  15  18
ENDBRANCH  13  14
ENDBRANCH   1  13
BRANCH   4  25
ATOM     25  C   UNL d   1      -9.234   4.423  -0.159  0.00  0.00     0.175 C 
BRANCH  25  26
ATOM     26  C   UNL d   1      -9.880   3.919   1.114  0.00  0.00    -0.040 A 
ATOM     27  C   UNL d   1     -11.263   4.047   1.294  0.00  0.00     0.009 A 
ATOM     28  C   UNL d   1     -11.867   3.525   2.439  0.00  0.00     0.001 A 
ATOM     29  C   UNL d   1     -11.102   2.868   3.404  0.00  0.00     0.000 A 
ATOM     30  C   UNL d   1      -9.731   2.750   3.242  0.00  0.00     0.001 A 
ATOM     31  C   UNL d   1      -9.127   3.303   2.126  0.00  0.00     0.009 A 
ENDBRANCH  25  26
ENDBRANCH   4  25
BRANCH  10  32
ATOM     32  C   UNL d   1      -2.049   6.599  -0.034  0.00  0.00     0.273 C 
ATOM     33  O   UNL d   1      -0.946   6.045  -0.014  0.00  0.00    -0.266 OA
ATOM     34  N   UNL d   1      -2.116   7.997  -0.020  0.00  0.00    -0.289 N 
ATOM     35  H   UNL d   1      -2.996   8.472  -0.093  0.00  0.00     0.183 HD
BRANCH  34  36
ATOM     36  N   UNL d   1      -0.986   8.829  -0.053  0.00  0.00    -0.247 NA
ATOM     37  H   UNL d   1      -0.156   8.230   0.003  0.00  0.00     0.143 HD
ATOM     38  H   UNL d   1      -0.990   9.390   0.801  0.00  0.00     0.143 HD
ENDBRANCH  34  36
ENDBRANCH  10  32
TORSDOF 7
