@<TRIPOS>MOLECULE
*****
 54 55 0 0 0
SMALL
GASTEIGER

@<TRIPOS>ATOM
      1 C           1.0059    0.0711    0.0693 C.3     1  UNL1       -0.0307
      2 C           2.5232    0.0649    0.0827 C.3     1  UNL1        0.0868
      3 O           2.9598    0.7948    1.2317 O.3     1  UNL1       -0.4922
      4 C           4.3081    1.0055    1.3168 C.ar    1  UNL1        0.1205
      5 C           4.8582    1.0271    2.6002 C.ar    1  UNL1       -0.0196
      6 C           6.2114    1.3352    2.7934 C.ar    1  UNL1       -0.0527
      7 C           7.0530    1.5606    1.6958 C.ar    1  UNL1       -0.0189
      8 C           8.5462    1.7644    1.9064 C.3     1  UNL1        0.0806
      9 O           9.0804    0.6197    2.5739 O.3     1  UNL1       -0.3872
     10 C           9.3024    1.9446    0.5903 C.3     1  UNL1       -0.0144
     11 C          10.8081    2.1247    0.7106 C.3     1  UNL1        0.0282
     12 C          11.3813    2.3511   -0.6882 C.2     1  UNL1        0.2323
     13 O          10.7026    2.2187   -1.7102 O.2     1  UNL1       -0.2741
     14 N          12.7200    2.6972   -0.6714 N.am    1  UNL1       -0.2070
     15 N          13.4296    2.7815   -1.8424 N.2     1  UNL1       -0.1877
     16 C          14.7320    2.7991   -1.8016 C.2     1  UNL1        0.0540
     17 C          15.6128    2.6745   -0.6179 C.ar    1  UNL1        0.0122
     18 C          16.6704    3.5979   -0.4387 C.ar    1  UNL1       -0.0066
     19 C          17.5447    3.4886    0.6701 C.ar    1  UNL1        0.1623
     20 O          18.6402    4.3258    0.6330 O.3     1  UNL1       -0.4886
     21 C          19.6511    4.0907    1.6144 C.3     1  UNL1        0.0870
     22 C          20.9098    4.8964    1.3895 C.3     1  UNL1       -0.0307
     23 C          17.2432    2.5279    1.6454 C.ar    1  UNL1        0.1595
     24 O          17.8703    2.2941    2.8342 O.3     1  UNL1       -0.5033
     25 C          16.2149    1.6161    1.4501 C.ar    1  UNL1       -0.0019
     26 C          15.4460    1.6359    0.3011 C.ar    1  UNL1        0.0302
     27 BR         14.2687    0.1557    0.1112 Br      1  UNL1       -0.0495
     28 C           6.4719    1.5612    0.4165 C.ar    1  UNL1       -0.0527
     29 C           5.1188    1.2909    0.2270 C.ar    1  UNL1       -0.0196
     30 H           0.6240   -0.5368   -0.7557 H       1  UNL1        0.0262
     31 H           0.6290    1.0933   -0.0477 H       1  UNL1        0.0262
     32 H           0.6072   -0.3125    1.0130 H       1  UNL1        0.0262
     33 H           2.8632    0.5097   -0.8575 H       1  UNL1        0.0694
     34 H           2.8910   -0.9646    0.1545 H       1  UNL1        0.0694
     35 H           4.2339    0.7896    3.4576 H       1  UNL1        0.0654
     36 H           6.6079    1.3910    3.8058 H       1  UNL1        0.0622
     37 H           8.7086    2.6347    2.5526 H       1  UNL1        0.0643
     38 H           8.8141   -0.1578    2.0506 H       1  UNL1        0.2102
     39 H           8.8975    2.8161    0.0606 H       1  UNL1        0.0298
     40 H           9.1321    1.0594   -0.0407 H       1  UNL1        0.0298
     41 H          11.2631    1.2330    1.1573 H       1  UNL1        0.0360
     42 H          11.0325    2.9875    1.3463 H       1  UNL1        0.0360
     43 H          13.2219    2.5660    0.1965 H       1  UNL1        0.1772
     44 H          15.2518    2.9210   -2.7702 H       1  UNL1        0.0852
     45 H          16.8243    4.4009   -1.1625 H       1  UNL1        0.0662
     46 H          19.9291    3.0292    1.6483 H       1  UNL1        0.0694
     47 H          19.2701    4.4483    2.5734 H       1  UNL1        0.0694
     48 H          21.3952    4.6315    0.4486 H       1  UNL1        0.0262
     49 H          21.6082    4.7084    2.2149 H       1  UNL1        0.0262
     50 H          20.6726    5.9627    1.3735 H       1  UNL1        0.0262
     51 H          18.3426    3.0668    3.1585 H       1  UNL1        0.2923
     52 H          16.0480    0.8569    2.2090 H       1  UNL1        0.0666
     53 H           7.0515    1.7792   -0.4774 H       1  UNL1        0.0622
     54 H           4.7378    1.3343   -0.7865 H       1  UNL1        0.0654
@<TRIPOS>BOND
     1     1     2    1
     2     2     3    1
     3     3     4    1
     4     4     5   ar
     5     5     6   ar
     6     6     7   ar
     7     7     8    1
     8     8     9    1
     9     8    10    1
    10    10    11    1
    11    11    12    1
    12    12    13    2
    13    12    14   am
    14    14    15    1
    15    15    16    2
    16    16    17    1
    17    17    18   ar
    18    18    19   ar
    19    19    20    1
    20    20    21    1
    21    21    22    1
    22    19    23   ar
    23    23    24    1
    24    23    25   ar
    25    25    26   ar
    26    17    26   ar
    27    26    27    1
    28     7    28   ar
    29    28    29   ar
    30     4    29   ar
    31     1    30    1
    32     1    31    1
    33     1    32    1
    34     2    33    1
    35     2    34    1
    36     5    35    1
    37     6    36    1
    38     8    37    1
    39     9    38    1
    40    10    39    1
    41    10    40    1
    42    11    41    1
    43    11    42    1
    44    14    43    1
    45    16    44    1
    46    18    45    1
    47    21    46    1
    48    21    47    1
    49    22    48    1
    50    22    49    1
    51    22    50    1
    52    24    51    1
    53    25    52    1
    54    28    53    1
    55    29    54    1
