@<TRIPOS>MOLECULE
*****
 40 43 0 0 0
SMALL
GASTEIGER

@<TRIPOS>ATOM
      1 O           1.0913    0.0578   -0.0073 O.2     1  UNL1       -0.2684
      2 C           2.3186   -0.0422   -0.0695 C.2     1  UNL1        0.2634
      3 N           3.0173   -1.2519   -0.1614 N.am    1  UNL1       -0.2030
      4 N           2.3054   -2.4465   -0.2280 N.2     1  UNL1       -0.1874
      5 C           2.9665   -3.5629   -0.1729 C.2     1  UNL1        0.0548
      6 C           2.2640   -4.8491   -0.2196 C.ar    1  UNL1        0.0196
      7 C           1.1714   -5.1499   -1.0124 C.ar    1  UNL1        0.0114
      8 N           0.8114   -6.4563   -0.7990 N.ar    1  UNL1       -0.3595
      9 C           1.6347   -7.0433    0.1376 C.ar    1  UNL1        0.0549
     10 C           2.5583   -6.0576    0.5154 C.ar    1  UNL1        0.0089
     11 C           3.5170   -6.3974    1.4926 C.ar    1  UNL1       -0.0514
     12 C           3.5180   -7.6781    2.0682 C.ar    1  UNL1       -0.0533
     13 C           2.6050   -8.6613    1.6714 C.ar    1  UNL1       -0.0159
     14 C           2.6347   -9.9514    2.2304 C.ar    1  UNL1       -0.0540
     15 C           1.7545  -10.9452    1.7954 C.ar    1  UNL1       -0.0612
     16 C           0.8131  -10.6589    0.8099 C.ar    1  UNL1       -0.0611
     17 C           0.7403   -9.3741    0.2615 C.ar    1  UNL1       -0.0520
     18 C           1.6403   -8.3660    0.6796 C.ar    1  UNL1        0.0060
     19 C           3.1181    1.2242   -0.0151 C.ar    1  UNL1        0.0418
     20 C           2.7092    2.2622    0.8434 C.ar    1  UNL1       -0.0494
     21 C           3.3962    3.4857    0.8718 C.ar    1  UNL1       -0.0576
     22 C           4.4909    3.6921    0.0322 C.ar    1  UNL1       -0.0201
     23 C           4.8823    2.6690   -0.8289 C.ar    1  UNL1        0.1176
     24 O           5.9424    2.8208   -1.6765 O.3     1  UNL1       -0.5067
     25 C           4.2047    1.4458   -0.8660 C.ar    1  UNL1       -0.0080
     26 H           4.0299   -1.2741   -0.1085 H       1  UNL1        0.1776
     27 H           4.0654   -3.6020   -0.0755 H       1  UNL1        0.0852
     28 H           0.6258   -4.5450   -1.7248 H       1  UNL1        0.0813
     29 H           0.0422   -6.9283   -1.2541 H       1  UNL1        0.1654
     30 H           4.2502   -5.6674    1.8202 H       1  UNL1        0.0624
     31 H           4.2579   -7.9029    2.8339 H       1  UNL1        0.0624
     32 H           3.3577  -10.1986    3.0052 H       1  UNL1        0.0624
     33 H           1.8101  -11.9437    2.2235 H       1  UNL1        0.0618
     34 H           0.1375  -11.4396    0.4674 H       1  UNL1        0.0618
     35 H          -0.0104   -9.1799   -0.4982 H       1  UNL1        0.0624
     36 H           1.8429    2.1265    1.4896 H       1  UNL1        0.0625
     37 H           3.0695    4.2791    1.5427 H       1  UNL1        0.0619
     38 H           5.0084    4.6482    0.0561 H       1  UNL1        0.0654
     39 H           6.3365    3.7001   -1.5468 H       1  UNL1        0.2921
     40 H           4.5062    0.7014   -1.5945 H       1  UNL1        0.0661
@<TRIPOS>BOND
     1     1     2    2
     2     2     3   am
     3     3     4    1
     4     4     5    2
     5     5     6    1
     6     6     7   ar
     7     7     8   ar
     8     8     9   ar
     9     9    10   ar
    10     6    10   ar
    11    10    11   ar
    12    11    12   ar
    13    12    13   ar
    14    13    14   ar
    15    14    15   ar
    16    15    16   ar
    17    16    17   ar
    18    17    18   ar
    19    13    18   ar
    20     9    18   ar
    21     2    19    1
    22    19    20   ar
    23    20    21   ar
    24    21    22   ar
    25    22    23   ar
    26    23    24    1
    27    23    25   ar
    28    19    25   ar
    29     3    26    1
    30     5    27    1
    31     7    28    1
    32     8    29    1
    33    11    30    1
    34    12    31    1
    35    14    32    1
    36    15    33    1
    37    16    34    1
    38    17    35    1
    39    20    36    1
    40    21    37    1
    41    22    38    1
    42    24    39    1
    43    25    40    1
