@<TRIPOS>MOLECULE
*****
 40 41 0 0 0
SMALL
GASTEIGER

@<TRIPOS>ATOM
      1 C           1.1114   -0.0668   -0.0032 C.3     1  UNL1        0.0789
      2 O           2.5364   -0.1589   -0.0152 O.3     1  UNL1       -0.4922
      3 C           3.1845    0.7397   -0.8174 C.ar    1  UNL1        0.1552
      4 C           4.3599    0.2994   -1.4365 C.ar    1  UNL1       -0.0153
      5 C           5.1391    1.1726   -2.2348 C.ar    1  UNL1       -0.0368
      6 C           4.7573    2.5141   -2.4045 C.ar    1  UNL1        0.0364
      7 N           5.5374    3.4196   -3.1931 N.am    1  UNL1       -0.2839
      8 C           5.2211    4.7698   -3.4035 C.2     1  UNL1        0.2373
      9 O           4.2486    5.3538   -2.9152 O.2     1  UNL1       -0.2734
     10 C           6.1564    5.6014   -4.3186 C.3     1  UNL1        0.0972
     11 C           6.1930    4.9947   -5.7144 C.3     1  UNL1       -0.0381
     12 N           5.6370    6.9933   -4.3566 N.am    1  UNL1       -0.3003
     13 C           6.2335    8.0048   -5.0760 C.2     1  UNL1        0.2447
     14 O           7.2674    7.8495   -5.7255 O.2     1  UNL1       -0.2702
     15 C           5.5714    9.3386   -5.0970 C.ar    1  UNL1        0.0368
     16 C           5.1102    9.9460   -3.9244 C.ar    1  UNL1       -0.0483
     17 C           4.5562   11.2338   -3.9745 C.ar    1  UNL1       -0.0427
     18 C           4.4577   11.9101   -5.1918 C.ar    1  UNL1        0.0410
     19 CL          3.7506   13.4789   -5.2464 Cl      1  UNL1       -0.0835
     20 C           4.9311   11.3213   -6.3620 C.ar    1  UNL1       -0.0427
     21 C           5.4951   10.0400   -6.3129 C.ar    1  UNL1       -0.0483
     22 C           3.5880    2.9252   -1.7658 C.ar    1  UNL1       -0.0016
     23 C           2.8173    2.0640   -0.9938 C.ar    1  UNL1        0.1665
     24 F           1.7367    2.5908   -0.4034 F       1  UNL1       -0.2016
     25 H           0.7385   -0.8029    0.7158 H       1  UNL1        0.0660
     26 H           0.7087   -0.3212   -0.9886 H       1  UNL1        0.0660
     27 H           0.7320    0.9013    0.3321 H       1  UNL1        0.0660
     28 H           4.6688   -0.7358   -1.2951 H       1  UNL1        0.0656
     29 H           6.0386    0.7681   -2.6953 H       1  UNL1        0.0637
     30 H           6.3730    3.0385   -3.6253 H       1  UNL1        0.1549
     31 H           7.1537    5.6395   -3.8685 H       1  UNL1        0.0592
     32 H           5.1857    4.9489   -6.1432 H       1  UNL1        0.0252
     33 H           6.6033    3.9818   -5.6989 H       1  UNL1        0.0252
     34 H           6.8120    5.5843   -6.3954 H       1  UNL1        0.0252
     35 H           4.7541    7.1485   -3.8711 H       1  UNL1        0.1498
     36 H           5.2142    9.4477   -2.9651 H       1  UNL1        0.0625
     37 H           4.2135   11.7110   -3.0594 H       1  UNL1        0.0632
     38 H           4.8725   11.8547   -7.3084 H       1  UNL1        0.0632
     39 H           5.8804    9.5921   -7.2273 H       1  UNL1        0.0625
     40 H           3.2150    3.9365   -1.8128 H       1  UNL1        0.0666
@<TRIPOS>BOND
     1     1     2    1
     2     2     3    1
     3     3     4   ar
     4     4     5   ar
     5     5     6   ar
     6     6     7    1
     7     7     8   am
     8     8     9    2
     9     8    10    1
    10    10    11    1
    11    10    12    1
    12    12    13   am
    13    13    14    2
    14    13    15    1
    15    15    16   ar
    16    16    17   ar
    17    17    18   ar
    18    18    19    1
    19    18    20   ar
    20    20    21   ar
    21    15    21   ar
    22     6    22   ar
    23    22    23   ar
    24     3    23   ar
    25    23    24    1
    26     1    25    1
    27     1    26    1
    28     1    27    1
    29     4    28    1
    30     5    29    1
    31     7    30    1
    32    10    31    1
    33    11    32    1
    34    11    33    1
    35    11    34    1
    36    12    35    1
    37    16    36    1
    38    17    37    1
    39    20    38    1
    40    21    39    1
    41    22    40    1
