REMARK  6 active torsions:
REMARK  status: ('A' for Active; 'I' for Inactive)
REMARK    1  A    between atoms: C_2  and  C_3 
REMARK       I    between atoms: C_2  and  N_22 
REMARK    2  A    between atoms: C_3  and  S_4 
REMARK    3  A    between atoms: S_4  and  C_5 
REMARK    4  A    between atoms: C_7  and  C_8 
REMARK    5  A    between atoms: C_14  and  C_15 
REMARK    6  A    between atoms: N_22  and  C_23 
ROOT
ATOM      1  C   UNL d   1       2.813  -0.323  -4.095  0.00  0.00     0.168 A 
ATOM      2  N   UNL d   1       3.071  -1.457  -4.710  0.00  0.00    -0.222 NA
ATOM      3  C   UNL d   1       3.754  -1.102  -5.859  0.00  0.00     0.097 A 
ATOM      4  C   UNL d   1       3.889   0.278  -5.959  0.00  0.00     0.074 A 
ATOM      5  N   UNL d   1       3.231   0.752  -4.839  0.00  0.00    -0.333 N 
ATOM      6  H   UNL d   1       3.044   1.720  -4.623  0.00  0.00     0.168 HD
ENDROOT
BRANCH   1   7
ATOM      7  S   UNL d   1       1.903  -0.104  -2.619  0.00  0.00    -0.083 SA
BRANCH   7   8
ATOM      8  C   UNL d   1       3.198  -0.060  -1.290  0.00  0.00     0.185 C 
BRANCH   8   9
ATOM      9  C   UNL d   1       2.663   0.123   0.124  0.00  0.00     0.231 C 
ATOM     10  O   UNL d   1       1.445  -0.001   0.353  0.00  0.00    -0.272 OA
ATOM     11  N   UNL d   1       3.463   0.291   1.255  0.00  0.00    -0.333 N 
ATOM     12  H   UNL d   1       2.789   0.015   1.981  0.00  0.00     0.168 HD
BRANCH  11  13
ATOM     13  C   UNL d   1       4.795   0.403   1.876  0.00  0.00     0.002 C 
ATOM     14  C   UNL d   1       4.841  -0.603   2.782  0.00  0.00     0.052 C 
ATOM     15  C   UNL d   1       6.042  -1.278   2.776  0.00  0.00     0.054 C 
ATOM     16  C   UNL d   1       6.848  -0.561   3.534  0.00  0.00     0.023 C 
ATOM     17  N   UNL d   1       6.855  -0.695   4.900  0.00  0.00    -0.318 N 
ATOM     18  C   UNL d   1       7.253   0.636   3.023  0.00  0.00     0.095 C 
ATOM     19  C   UNL d   1       7.720   0.202   5.387  0.00  0.00     0.299 C 
ATOM     20  H   UNL d   1       6.424  -1.474   5.373  0.00  0.00     0.169 HD
ATOM     21  O   UNL d   1       8.308   0.028   6.495  0.00  0.00    -0.254 OA
ATOM     22  N   UNL d   1       7.901   1.205   4.336  0.00  0.00    -0.226 NA
ATOM     23  H   UNL d   1       8.905   1.424   4.388  0.00  0.00     0.133 HD
ATOM     24  C   UNL d   1       6.146   1.051   1.917  0.00  0.00     0.075 C 
ENDBRANCH  11  13
ENDBRANCH   8   9
ENDBRANCH   7   8
ENDBRANCH   1   7
BRANCH   3  25
ATOM     25  C   UNL d   1       4.321  -2.037  -6.824  0.00  0.00    -0.005 A 
ATOM     26  C   UNL d   1       5.707  -2.027  -7.048  0.00  0.00     0.014 A 
ATOM     27  C   UNL d   1       6.279  -2.825  -8.039  0.00  0.00     0.001 A 
ATOM     28  C   UNL d   1       5.483  -3.706  -8.763  0.00  0.00     0.000 A 
ATOM     29  C   UNL d   1       4.103  -3.726  -8.555  0.00  0.00     0.001 A 
ATOM     30  C   UNL d   1       3.518  -2.883  -7.598  0.00  0.00     0.014 A 
ENDBRANCH   3  25
BRANCH   4  31
ATOM     31  C   UNL d   1       4.469   1.103  -7.022  0.00  0.00    -0.007 A 
ATOM     32  C   UNL d   1       5.562   1.949  -6.802  0.00  0.00     0.014 A 
ATOM     33  C   UNL d   1       6.101   2.697  -7.859  0.00  0.00     0.001 A 
ATOM     34  C   UNL d   1       5.612   2.539  -9.156  0.00  0.00     0.000 A 
ATOM     35  C   UNL d   1       4.544   1.680  -9.390  0.00  0.00     0.001 A 
ATOM     36  C   UNL d   1       3.971   0.978  -8.328  0.00  0.00     0.014 A 
ENDBRANCH   4  31
TORSDOF 6
