@<TRIPOS>MOLECULE
*****
 64 66 0 0 0
SMALL
GASTEIGER

@<TRIPOS>ATOM
      1 C           0.9461   -0.0455   -0.0388 C.3     1  UNL1       -0.0645
      2 C           2.4675   -0.0352   -0.0301 C.3     1  UNL1       -0.0464
      3 C           3.0250    0.9352    1.0134 C.3     1  UNL1        0.0009
      4 S           4.8465    0.8912    0.9294 S.3     1  UNL1       -0.0860
      5 C           5.2454    2.0425    2.2057 C.ar    1  UNL1        0.1896
      6 N           4.9991    3.3486    2.0179 N.ar    1  UNL1       -0.2295
      7 C           5.3085    4.1837    3.0397 C.ar    1  UNL1        0.0455
      8 C           5.8291    3.7508    4.2427 C.ar    1  UNL1        0.0916
      9 C           5.9637    4.7079    5.3667 C.2     1  UNL1        0.2487
     10 O           5.8322    5.8960    5.1751 O.2     1  UNL1       -0.2700
     11 N           6.2640    4.1799    6.6382 N.am    1  UNL1       -0.3055
     12 C           6.6892    5.1312    7.6439 C.3     1  UNL1        0.0593
     13 C           7.4948    4.6349    8.9048 C.3     1  UNL1        0.0244
     14 C           8.8551    4.0024    8.4901 C.ar    1  UNL1        0.0466
     15 C           8.9569    2.5690    8.4899 C.ar    1  UNL1       -0.0079
     16 C          10.1854    1.9063    8.2672 C.ar    1  UNL1        0.1208
     17 O          10.2122    0.5385    8.3785 O.3     1  UNL1       -0.4951
     18 C          11.5298   -0.0379    8.3785 C.3     1  UNL1        0.0788
     19 C          11.3174    2.6548    7.9920 C.ar    1  UNL1       -0.0165
     20 C          11.2352    4.0273    7.9399 C.ar    1  UNL1       -0.0160
     21 C          10.0169    4.6966    8.0582 C.ar    1  UNL1        0.1289
     22 O          10.2474    5.9641    7.5701 O.3     1  UNL1       -0.4946
     23 C           9.2276    6.8964    7.4531 C.3     1  UNL1        0.0788
     24 N           7.5883    5.7997   10.1636 N.4     1  UNL1        0.2419
     25 C           8.2438    7.1545    9.9040 C.3     1  UNL1       -0.0313
     26 C           8.2214    8.2650   10.9082 C.3     1  UNL1       -0.0123
     27 C           6.7766    8.4680   11.2483 C.3     1  UNL1       -0.0434
     28 C           6.3102    7.1458   11.8489 C.3     1  UNL1       -0.0123
     29 C           6.2371    6.0185   10.8062 C.3     1  UNL1       -0.0313
     30 C           6.1024    2.4032    4.2790 C.ar    1  UNL1        0.1456
     31 CL          6.8584    1.5807    5.5961 Cl      1  UNL1       -0.0611
     32 N           5.8212    1.5354    3.2965 N.ar    1  UNL1       -0.2095
     33 H           0.5771   -0.7443   -0.7972 H       1  UNL1        0.0230
     34 H           0.5483    0.9470   -0.2717 H       1  UNL1        0.0230
     35 H           0.5494   -0.3596    0.9316 H       1  UNL1        0.0230
     36 H           2.8192    0.2428   -1.0313 H       1  UNL1        0.0271
     37 H           2.8210   -1.0547    0.1695 H       1  UNL1        0.0271
     38 H           2.6832    0.6470    2.0146 H       1  UNL1        0.0381
     39 H           2.6729    1.9518    0.8101 H       1  UNL1        0.0381
     40 H           5.0849    5.2325    2.8448 H       1  UNL1        0.0839
     41 H           6.7488    3.2897    6.6136 H       1  UNL1        0.1492
     42 H           5.8516    5.7835    7.8935 H       1  UNL1        0.0522
     43 H           7.3528    5.6810    7.0141 H       1  UNL1        0.0522
     44 H           6.8858    3.8541    9.3881 H       1  UNL1        0.0921
     45 H           8.0791    1.9290    8.6282 H       1  UNL1        0.0660
     46 H          11.4586   -1.1004    8.6211 H       1  UNL1        0.0660
     47 H          12.1732    0.4265    9.1393 H       1  UNL1        0.0660
     48 H          11.9869    0.0506    7.3853 H       1  UNL1        0.0660
     49 H          12.2827    2.2162    7.7640 H       1  UNL1        0.0655
     50 H          12.1380    4.6001    7.7350 H       1  UNL1        0.0655
     51 H           9.5284    7.8817    7.8165 H       1  UNL1        0.0660
     52 H           8.5498    6.4559    8.1115 H       1  UNL1        0.0660
     53 H           8.5509    7.0052    6.6073 H       1  UNL1        0.0660
     54 H           8.2016    5.3291   10.8437 H       1  UNL1        0.2040
     55 H           7.6617    7.5880    9.0750 H       1  UNL1        0.0814
     56 H           9.3096    6.9719    9.7661 H       1  UNL1        0.0814
     57 H           8.6425    9.1682   10.4356 H       1  UNL1        0.0317
     58 H           8.8650    8.0280   11.7596 H       1  UNL1        0.0317
     59 H           6.2057    8.7019   10.3358 H       1  UNL1        0.0269
     60 H           6.6704    9.3213   11.9201 H       1  UNL1        0.0269
     61 H           5.3337    7.2967   12.3066 H       1  UNL1        0.0317
     62 H           7.0178    6.8517   12.6354 H       1  UNL1        0.0317
     63 H           5.5382    6.2765   10.0067 H       1  UNL1        0.0814
     64 H           5.9428    5.0718   11.2661 H       1  UNL1        0.0814
@<TRIPOS>UNITY_ATOM_ATTR
24 1
charge 1
@<TRIPOS>BOND
     1     1     2    1
     2     2     3    1
     3     3     4    1
     4     4     5    1
     5     5     6   ar
     6     6     7   ar
     7     7     8   ar
     8     8     9    1
     9     9    10    2
    10     9    11   am
    11    11    12    1
    12    12    13    1
    13    13    14    1
    14    14    15   ar
    15    15    16   ar
    16    16    17    1
    17    17    18    1
    18    16    19   ar
    19    19    20   ar
    20    20    21   ar
    21    14    21   ar
    22    21    22    1
    23    22    23    1
    24    13    24    1
    25    24    25    1
    26    25    26    1
    27    26    27    1
    28    27    28    1
    29    28    29    1
    30    24    29    1
    31     8    30   ar
    32    30    31    1
    33    30    32   ar
    34     5    32   ar
    35     1    33    1
    36     1    34    1
    37     1    35    1
    38     2    36    1
    39     2    37    1
    40     3    38    1
    41     3    39    1
    42     7    40    1
    43    11    41    1
    44    12    42    1
    45    12    43    1
    46    13    44    1
    47    15    45    1
    48    18    46    1
    49    18    47    1
    50    18    48    1
    51    19    49    1
    52    20    50    1
    53    23    51    1
    54    23    52    1
    55    23    53    1
    56    24    54    1
    57    25    55    1
    58    25    56    1
    59    26    57    1
    60    26    58    1
    61    27    59    1
    62    27    60    1
    63    28    61    1
    64    28    62    1
    65    29    63    1
    66    29    64    1
