@<TRIPOS>MOLECULE
*****
 55 56 0 0 0
SMALL
GASTEIGER

@<TRIPOS>ATOM
      1 C           1.0773   -0.0234    0.0741 C.3     1  UNL1       -0.0442
      2 C           2.6201   -0.0423    0.0621 C.3     1  UNL1        0.0265
      3 C           3.0796   -1.1636    1.0100 C.3     1  UNL1       -0.0442
      4 C           3.0712   -0.3452   -1.3764 C.3     1  UNL1       -0.0442
      5 N           3.1569    1.2611    0.5108 N.am    1  UNL1       -0.3066
      6 C           4.5147    1.5355    0.5547 C.2     1  UNL1        0.2445
      7 O           5.3933    0.7407    0.2154 O.2     1  UNL1       -0.2702
      8 C           4.9530    2.8541    1.0781 C.ar    1  UNL1        0.0367
      9 C           6.1026    3.4613    0.5539 C.ar    1  UNL1       -0.0489
     10 C           6.6589    4.5915    1.1818 C.ar    1  UNL1       -0.0489
     11 C           6.0394    5.1752    2.3035 C.ar    1  UNL1        0.0382
     12 C           6.6039    6.4558    2.8771 C.2     1  UNL1        0.2601
     13 O           7.6080    6.9699    2.3803 O.2     1  UNL1       -0.2687
     14 N           5.9368    7.0431    3.9434 N.am    1  UNL1       -0.2304
     15 N           6.3807    8.2813    4.4716 N.am    1  UNL1       -0.2342
     16 C           5.6726    8.8251    5.5283 C.2     1  UNL1        0.2291
     17 O           4.6830    8.2574    5.9953 O.2     1  UNL1       -0.2743
     18 C           6.2052   10.1546    6.0636 C.3     1  UNL1        0.0257
     19 C           5.3439   10.6386    7.2309 C.3     1  UNL1       -0.0408
     20 C           5.8009   11.9649    7.8483 C.3     1  UNL1       -0.0272
     21 C           4.9523   12.4025    9.0273 C.ar    1  UNL1       -0.0473
     22 C           4.8659   13.7596    9.3680 C.ar    1  UNL1       -0.0586
     23 C           4.2349   14.1518   10.5530 C.ar    1  UNL1       -0.0615
     24 C           3.6176   13.2051   11.3695 C.ar    1  UNL1       -0.0617
     25 C           3.6591   11.8616   11.0226 C.ar    1  UNL1       -0.0615
     26 C           4.3320   11.4662    9.8704 C.ar    1  UNL1       -0.0586
     27 C           4.8913    4.5509    2.8167 C.ar    1  UNL1       -0.0489
     28 C           4.3514    3.4029    2.2102 C.ar    1  UNL1       -0.0489
     29 H           0.6716   -0.9880   -0.2592 H       1  UNL1        0.0250
     30 H           0.6787    0.7485   -0.5936 H       1  UNL1        0.0250
     31 H           0.6821    0.1700    1.0775 H       1  UNL1        0.0250
     32 H           2.6921   -2.1374    0.6904 H       1  UNL1        0.0250
     33 H           2.7288   -0.9795    2.0323 H       1  UNL1        0.0250
     34 H           4.1693   -1.2464    1.0514 H       1  UNL1        0.0250
     35 H           2.6792   -1.3075   -1.7225 H       1  UNL1        0.0250
     36 H           4.1594   -0.3946   -1.4671 H       1  UNL1        0.0250
     37 H           2.7236    0.4337   -2.0647 H       1  UNL1        0.0250
     38 H           2.4972    1.9944    0.7394 H       1  UNL1        0.1495
     39 H           6.5805    3.0429   -0.3330 H       1  UNL1        0.0625
     40 H           7.5931    4.9983    0.7937 H       1  UNL1        0.0625
     41 H           5.0918    6.6792    4.3758 H       1  UNL1        0.1731
     42 H           7.2054    8.7001    4.0466 H       1  UNL1        0.1728
     43 H           6.2026   10.9020    5.2646 H       1  UNL1        0.0359
     44 H           7.2348   10.0112    6.4110 H       1  UNL1        0.0359
     45 H           5.3723    9.8488    7.9899 H       1  UNL1        0.0273
     46 H           4.2972   10.7369    6.9141 H       1  UNL1        0.0273
     47 H           5.7970   12.7463    7.0778 H       1  UNL1        0.0313
     48 H           6.8336   11.8690    8.2081 H       1  UNL1        0.0313
     49 H           5.3008   14.5220    8.7250 H       1  UNL1        0.0620
     50 H           4.2394   15.1967   10.8514 H       1  UNL1        0.0618
     51 H           3.1066   13.5109   12.2772 H       1  UNL1        0.0618
     52 H           3.1943   11.1091   11.6533 H       1  UNL1        0.0618
     53 H           4.3639   10.4024    9.6580 H       1  UNL1        0.0620
     54 H           4.3999    4.9111    3.7127 H       1  UNL1        0.0625
     55 H           3.4926    2.9162    2.6632 H       1  UNL1        0.0625
@<TRIPOS>BOND
     1     1     2    1
     2     2     3    1
     3     2     4    1
     4     2     5    1
     5     5     6   am
     6     6     7    2
     7     6     8    1
     8     8     9   ar
     9     9    10   ar
    10    10    11   ar
    11    11    12    1
    12    12    13    2
    13    12    14   am
    14    14    15    1
    15    15    16   am
    16    16    17    2
    17    16    18    1
    18    18    19    1
    19    19    20    1
    20    20    21    1
    21    21    22   ar
    22    22    23   ar
    23    23    24   ar
    24    24    25   ar
    25    25    26   ar
    26    21    26   ar
    27    11    27   ar
    28    27    28   ar
    29     8    28   ar
    30     1    29    1
    31     1    30    1
    32     1    31    1
    33     3    32    1
    34     3    33    1
    35     3    34    1
    36     4    35    1
    37     4    36    1
    38     4    37    1
    39     5    38    1
    40     9    39    1
    41    10    40    1
    42    14    41    1
    43    15    42    1
    44    18    43    1
    45    18    44    1
    46    19    45    1
    47    19    46    1
    48    20    47    1
    49    20    48    1
    50    22    49    1
    51    23    50    1
    52    24    51    1
    53    25    52    1
    54    26    53    1
    55    27    54    1
    56    28    55    1
