@<TRIPOS>MOLECULE
*****
 50 53 0 0 0
SMALL
GASTEIGER

@<TRIPOS>ATOM
      1 N           1.0887   -0.0337   -0.0315 N.1     1  UNL1       -0.1907
      2 C           2.3497   -0.0337   -0.0315 C.1     1  UNL1        0.1044
      3 C           3.8697   -0.0337   -0.0315 C.2     1  UNL1        0.1142
      4 C           4.5069   -0.1720    1.1495 C.2     1  UNL1       -0.0301
      5 C           3.8430   -0.3565    2.4000 C.ar    1  UNL1        0.0016
      6 C           4.1720    0.3271    3.5383 C.ar    1  UNL1        0.0133
      7 N           3.2541    0.0147    4.5187 N.ar    1  UNL1       -0.3417
      8 C           3.2075    0.5746    5.8807 C.3     1  UNL1        0.0484
      9 C           4.2979    1.5925    6.1468 C.ar    1  UNL1       -0.0264
     10 C           4.3403    2.7937    5.4142 C.ar    1  UNL1       -0.0568
     11 C           5.4554    3.6276    5.4776 C.ar    1  UNL1       -0.0601
     12 C           6.5541    3.2535    6.2479 C.ar    1  UNL1       -0.0434
     13 C           6.4926    2.0997    7.0277 C.ar    1  UNL1        0.0413
     14 CL          7.8639    1.6242    7.9526 Cl      1  UNL1       -0.0835
     15 C           5.3512    1.2972    7.0234 C.ar    1  UNL1       -0.0385
     16 C           2.3630   -0.9301    4.0245 C.ar    1  UNL1        0.0499
     17 C           1.2539   -1.5762    4.5987 C.ar    1  UNL1       -0.0376
     18 C           0.5281   -2.4827    3.8084 C.ar    1  UNL1       -0.0598
     19 C           0.9002   -2.7649    2.5029 C.ar    1  UNL1       -0.0611
     20 C           2.0312   -2.1681    1.9677 C.ar    1  UNL1       -0.0520
     21 C           2.7509   -1.2079    2.7099 C.ar    1  UNL1        0.0070
     22 C           4.5805    0.1779   -1.3425 C.2     1  UNL1        0.2587
     23 O           3.9038    0.2622   -2.3733 O.2     1  UNL1       -0.2691
     24 N           5.9764    0.1922   -1.3511 N.am    1  UNL1       -0.2756
     25 C           6.7372    0.2566   -2.5635 C.ar    1  UNL1        0.1118
     26 C           6.3370    1.1487   -3.5684 C.ar    1  UNL1       -0.0338
     27 C           6.9319    1.1334   -4.8340 C.ar    1  UNL1       -0.0596
     28 C           8.0189    0.3055   -5.0877 C.ar    1  UNL1       -0.0552
     29 C           8.5317   -0.4897   -4.0639 C.ar    1  UNL1        0.0175
     30 C           7.8723   -0.5456   -2.8156 C.ar    1  UNL1        0.2941
     31 N           8.3356   -1.5567   -1.8531 N.pl3   1  UNL1        0.0815
     32 O           9.2846   -2.2789   -2.1759 O.2     1  UNL1        0.0415
     33 O           7.7427   -1.6317   -0.7599 O.co2   1  UNL1       -0.5760
     34 H           5.5869   -0.1100    1.2183 H       1  UNL1        0.0638
     35 H           4.9655    1.0435    3.6969 H       1  UNL1        0.0815
     36 H           3.2984   -0.2807    6.5612 H       1  UNL1        0.0541
     37 H           2.2226    1.0335    6.0208 H       1  UNL1        0.0541
     38 H           3.5462    3.0276    4.7046 H       1  UNL1        0.0621
     39 H           5.4829    4.5410    4.8891 H       1  UNL1        0.0618
     40 H           7.4558    3.8594    6.2303 H       1  UNL1        0.0632
     41 H           5.3091    0.4186    7.6630 H       1  UNL1        0.0635
     42 H           0.9447   -1.3834    5.6197 H       1  UNL1        0.0638
     43 H          -0.3447   -2.9834    4.2179 H       1  UNL1        0.0618
     44 H           0.3180   -3.4379    1.8796 H       1  UNL1        0.0618
     45 H           2.3059   -2.4023    0.9430 H       1  UNL1        0.0624
     46 H           6.4668   -0.2272   -0.5638 H       1  UNL1        0.1553
     47 H           5.5414    1.8674   -3.3816 H       1  UNL1        0.0638
     48 H           6.5323    1.7670   -5.6233 H       1  UNL1        0.0618
     49 H           8.4618    0.2788   -6.0817 H       1  UNL1        0.0620
     50 H           9.4202   -1.0855   -4.2688 H       1  UNL1        0.0686
@<TRIPOS>UNITY_ATOM_ATTR
31 1
charge 1
33 1
charge -1
@<TRIPOS>BOND
     1     1     2    3
     2     2     3    1
     3     3     4    2
     4     4     5    1
     5     5     6   ar
     6     6     7   ar
     7     7     8    1
     8     8     9    1
     9     9    10   ar
    10    10    11   ar
    11    11    12   ar
    12    12    13   ar
    13    13    14    1
    14    13    15   ar
    15     9    15   ar
    16     7    16   ar
    17    16    17   ar
    18    17    18   ar
    19    18    19   ar
    20    19    20   ar
    21    20    21   ar
    22     5    21   ar
    23    16    21   ar
    24     3    22    1
    25    22    23    2
    26    22    24   am
    27    24    25    1
    28    25    26   ar
    29    26    27   ar
    30    27    28   ar
    31    28    29   ar
    32    29    30   ar
    33    25    30   ar
    34    30    31    1
    35    31    32    2
    36    31    33    1
    37     4    34    1
    38     6    35    1
    39     8    36    1
    40     8    37    1
    41    10    38    1
    42    11    39    1
    43    12    40    1
    44    15    41    1
    45    17    42    1
    46    18    43    1
    47    19    44    1
    48    20    45    1
    49    24    46    1
    50    26    47    1
    51    27    48    1
    52    28    49    1
    53    29    50    1
