@<TRIPOS>MOLECULE
*****
 66 69 0 0 0
SMALL
GASTEIGER

@<TRIPOS>ATOM
      1 C           5.3090   14.9317  -10.0428 C.3     1  UNL1       -0.0307
      2 C           6.1511   13.6956  -10.2557 C.3     1  UNL1        0.0870
      3 O           5.6736   12.4883   -9.6656 O.3     1  UNL1       -0.4886
      4 C           6.4839   11.3612   -9.6351 C.ar    1  UNL1        0.1619
      5 C           5.8170   10.2156  -10.1389 C.ar    1  UNL1       -0.0160
      6 C           6.3439    8.9207  -10.0152 C.ar    1  UNL1       -0.0548
      7 C           7.6008    8.7416   -9.4592 C.ar    1  UNL1       -0.0422
      8 C           8.2438    7.3829   -9.4515 C.3     1  UNL1       -0.0119
      9 C           9.6290    7.4677   -8.8583 C.3     1  UNL1        0.0156
     10 N          10.3036    6.2335   -8.7513 N.am    1  UNL1       -0.3148
     11 C          11.5269    6.3212   -8.1516 C.2     1  UNL1        0.2162
     12 O          12.0538    7.3620   -7.7510 O.2     1  UNL1       -0.2755
     13 C          12.2440    5.0458   -8.1357 C.3     1  UNL1        0.0379
     14 C          11.2471    3.8198   -7.6080 C.3     1  UNL1       -0.0286
     15 C          11.6293    3.4822   -6.1868 C.3     1  UNL1        0.0117
     16 N          13.2681    3.4149   -6.1662 N.3     1  UNL1       -0.1843
     17 C          14.2293    2.0612   -6.4811 C.3     1  UNL1        0.4121
     18 N          15.3493    1.5782   -7.7915 N.2     1  UNL1       -0.1606
     19 C          14.6694    1.1596   -8.8235 C.ar    1  UNL1        0.2788
     20 C          14.7107    1.0355  -10.3651 C.ar    1  UNL1        0.0176
     21 C          13.8506    1.8137  -11.0859 C.ar    1  UNL1       -0.0367
     22 C          13.0055    2.7268  -10.3981 C.ar    1  UNL1        0.0476
     23 CL         12.0309    3.8724  -11.2437 Cl      1  UNL1       -0.0833
     24 C          12.9230    2.5064   -9.1232 C.ar    1  UNL1        0.0345
     25 C          13.3136    1.3236   -8.3266 C.ar    1  UNL1        0.2801
     26 N          13.2068    1.1654   -7.0685 N.2     1  UNL1       -0.1605
     27 C          13.7034    4.8672   -6.1035 C.3     1  UNL1        0.0117
     28 C          13.7286    5.2459   -7.5451 C.3     1  UNL1       -0.0286
     29 C           8.2585    9.8664   -8.9458 C.ar    1  UNL1       -0.0131
     30 C           7.7339   11.1571   -8.9965 C.ar    1  UNL1        0.1621
     31 O           8.6253   11.9817   -8.3107 O.3     1  UNL1       -0.4886
     32 C           8.2883   13.3106   -8.4915 C.3     1  UNL1        0.0870
     33 C           9.0657   14.4880   -7.9844 C.3     1  UNL1       -0.0307
     34 H           5.9458   15.8112  -10.2433 H       1  UNL1        0.0262
     35 H           5.0252   15.0060   -8.9832 H       1  UNL1        0.0262
     36 H           4.4317   14.9621  -10.6740 H       1  UNL1        0.0262
     37 H           6.8887   14.1238   -9.6362 H       1  UNL1        0.0694
     38 H           6.6266   13.5595  -11.2308 H       1  UNL1        0.0694
     39 H           4.8514   10.3233  -10.6304 H       1  UNL1        0.0655
     40 H           5.7679    8.0597  -10.3497 H       1  UNL1        0.0621
     41 H           8.3222    7.0119  -10.4814 H       1  UNL1        0.0328
     42 H           7.6407    6.6658   -8.8829 H       1  UNL1        0.0328
     43 H           9.5863    7.8418   -7.8276 H       1  UNL1        0.0465
     44 H          10.2774    8.1305   -9.4494 H       1  UNL1        0.0465
     45 H           9.9753    5.4296   -9.2763 H       1  UNL1        0.1487
     46 H          12.4501    4.9707   -9.1957 H       1  UNL1        0.0395
     47 H          11.3148    2.8156   -8.0274 H       1  UNL1        0.0285
     48 H          10.1970    3.9203   -7.9115 H       1  UNL1        0.0285
     49 H          11.1940    2.5677   -5.7738 H       1  UNL1        0.0431
     50 H          11.2513    4.3405   -5.6119 H       1  UNL1        0.0431
     51 H          14.6280    1.6850   -5.5275 H       1  UNL1        0.2157
     52 H          16.0659    0.8701   -7.5135 H       1  UNL1        0.4544
     53 H          15.1733    0.2302  -10.9256 H       1  UNL1        0.0686
     54 H          13.7223    1.8676  -12.1654 H       1  UNL1        0.0634
     55 H          13.1340    3.3298   -8.4794 H       1  UNL1        0.0700
     56 H          13.4666    0.2857   -6.5938 H       1  UNL1        0.4544
     57 H          14.6094    5.0012   -5.5189 H       1  UNL1        0.0431
     58 H          12.9213    5.4959   -5.6293 H       1  UNL1        0.0431
     59 H          14.4773    4.5708   -7.9842 H       1  UNL1        0.0285
     60 H          14.1365    6.2365   -7.7669 H       1  UNL1        0.0285
     61 H           9.2263    9.7897   -8.4526 H       1  UNL1        0.0658
     62 H           7.3057   13.4119   -8.0117 H       1  UNL1        0.0694
     63 H           8.4109   13.4290   -9.5752 H       1  UNL1        0.0694
     64 H           9.2350   14.4239   -6.9149 H       1  UNL1        0.0262
     65 H           8.4725   15.3927   -8.2032 H       1  UNL1        0.0262
     66 H          10.0039   14.5822   -8.5322 H       1  UNL1        0.0262
@<TRIPOS>UNITY_ATOM_ATTR
18 1
charge 1
26 1
charge 1
@<TRIPOS>BOND
     1     1     2    1
     2     2     3    1
     3     3     4    1
     4     4     5   ar
     5     5     6   ar
     6     6     7   ar
     7     7     8    1
     8     8     9    1
     9     9    10    1
    10    10    11   am
    11    11    12    2
    12    11    13    1
    13    13    14    1
    14    14    15    1
    15    15    16    1
    16    17    18    1
    17    18    19    2
    18    19    20   ar
    19    20    21   ar
    20    21    22   ar
    21    22    23    1
    22    22    24   ar
    23    24    25   ar
    24    19    25   ar
    25    25    26    2
    26    17    26    1
    27    16    27    1
    28    27    28    1
    29    13    28    1
    30     7    29   ar
    31    29    30   ar
    32     4    30   ar
    33    30    31    1
    34    31    32    1
    35    32    33    1
    36    17    16    1
    37     1    34    1
    38     1    35    1
    39     1    36    1
    40     2    37    1
    41     2    38    1
    42     5    39    1
    43     6    40    1
    44     8    41    1
    45     8    42    1
    46     9    43    1
    47     9    44    1
    48    10    45    1
    49    13    46    1
    50    14    47    1
    51    14    48    1
    52    15    49    1
    53    15    50    1
    54    17    51    1
    55    18    52    1
    56    20    53    1
    57    21    54    1
    58    24    55    1
    59    26    56    1
    60    27    57    1
    61    27    58    1
    62    28    59    1
    63    28    60    1
    64    29    61    1
    65    32    62    1
    66    32    63    1
    67    33    64    1
    68    33    65    1
    69    33    66    1
