REMARK  4 active torsions:
REMARK  status: ('A' for Active; 'I' for Inactive)
REMARK    1  A    between atoms: O_2  and  C_3 
REMARK    2  A    between atoms: C_9  and  N_10 
REMARK    3  A    between atoms: C_11  and  C_12 
REMARK    4  A    between atoms: C_12  and  C_13 
ROOT
ATOM      1  N   UNL d   1       4.628  -1.809  -0.206  0.00  0.00    -0.246 N 
ATOM      2  C   UNL d   1       3.957  -2.688   0.565  0.00  0.00     0.139 A 
ATOM      3  N   UNL d   1       4.694  -3.321   1.440  0.00  0.00    -0.156 NA
ATOM      4  N   UNL d   1       5.944  -2.822   1.235  0.00  0.00    -0.226 N 
ATOM      5  C   UNL d   1       5.936  -1.885   0.207  0.00  0.00     0.349 A 
ATOM      6  O   UNL d   1       6.917  -1.268  -0.188  0.00  0.00    -0.245 OA
ATOM      7  H   UNL d   1       6.760  -3.104   1.762  0.00  0.00     0.194 HD
ENDROOT
BRANCH   2   8
ATOM      8  C   UNL d   1       2.486  -2.958   0.386  0.00  0.00     0.117 C 
BRANCH   8   9
ATOM      9  C   UNL d   1       2.027  -4.077   1.234  0.00  0.00    -0.043 A 
ATOM     10  C   UNL d   1       1.589  -5.252   0.794  0.00  0.00    -0.005 A 
ATOM     11  C   UNL d   1       1.377  -5.782  -0.507  0.00  0.00     0.014 A 
ATOM     12  C   UNL d   1       1.396  -6.048   2.014  0.00  0.00     0.038 A 
ATOM     13  C   UNL d   1       0.998  -7.062  -0.608  0.00  0.00     0.001 A 
ATOM     14  C   UNL d   1       0.815  -7.892   0.574  0.00  0.00     0.002 A 
ATOM     15  C   UNL d   1       0.994  -7.454   1.837  0.00  0.00     0.030 A 
ATOM     16  N   UNL d   1       1.644  -5.378   3.077  0.00  0.00    -0.385 N 
ATOM     17  C   UNL d   1       2.053  -4.003   2.731  0.00  0.00     0.155 A 
ATOM     18  H   UNL d   1       1.603  -5.761   4.018  0.00  0.00     0.160 HD
ENDBRANCH   8   9
ENDBRANCH   2   8
BRANCH   1  19
ATOM     19  C   UNL d   1       4.166  -1.070  -1.305  0.00  0.00     0.079 A 
ATOM     20  C   UNL d   1       4.858  -1.206  -2.519  0.00  0.00     0.039 A 
ATOM     21  C   UNL d   1       4.450  -0.509  -3.658  0.00  0.00    -0.060 A 
ATOM     22  C   UNL d   1       3.362   0.361  -3.562  0.00  0.00     0.009 A 
ATOM     23  C   UNL d   1       5.176  -0.693  -4.957  0.00  0.00     0.048 C 
ATOM     24  C   UNL d   1       2.668   0.507  -2.359  0.00  0.00     0.039 A 
ATOM     25  C   UNL d   1       3.039  -0.230  -1.234  0.00  0.00     0.095 A 
BRANCH  25  26
ATOM     26  O   UNL d   1       2.422  -0.034  -0.023  0.00  0.00    -0.354 OA
ATOM     27  C   UNL d   1       0.990  -0.007  -0.076  0.00  0.00     0.210 C 
ENDBRANCH  25  26
ENDBRANCH   1  19
TORSDOF 4
