@<TRIPOS>MOLECULE
*****
 39 42 0 0 0
SMALL
GASTEIGER

@<TRIPOS>ATOM
      1 O           2.2329   -0.0880    0.0080 O.3     1  UNL1       -0.5068
      2 C           0.8708   -0.0220    0.0104 C.ar    1  UNL1        0.1169
      3 C           0.1995    1.1975    0.0109 C.ar    1  UNL1       -0.0196
      4 C          -1.2026    1.2151    0.0016 C.ar    1  UNL1       -0.0497
      5 C          -1.9220    0.0111   -0.0062 C.ar    1  UNL1       -0.0067
      6 C          -3.4082    0.0405   -0.0252 C.2     1  UNL1        0.0354
      7 N          -4.1185   -1.0476   -0.0478 N.2     1  UNL1       -0.2550
      8 C          -5.5251   -0.9698   -0.0830 C.ar    1  UNL1        0.0648
      9 C          -6.2212   -0.1285   -0.9587 C.ar    1  UNL1       -0.0328
     10 C          -7.6221   -0.1253   -0.9974 C.ar    1  UNL1       -0.0174
     11 C          -8.3440   -0.9848   -0.1679 C.ar    1  UNL1        0.1292
     12 O          -9.7124   -0.9582   -0.1793 O.3     1  UNL1       -0.5060
     13 C          -7.6795   -1.8436    0.7140 C.ar    1  UNL1        0.0802
     14 C          -8.4080   -2.6151    1.7121 C.ar    1  UNL1        0.2320
     15 N          -8.3387   -2.4701    3.0218 N.ar    1  UNL1       -0.2089
     16 C          -9.2866   -3.3325    3.4921 C.ar    1  UNL1        0.1099
     17 C          -9.7109   -3.5748    4.8027 C.ar    1  UNL1       -0.0326
     18 C         -10.7056   -4.5371    5.0106 C.ar    1  UNL1       -0.0595
     19 C         -11.2601   -5.2412    3.9342 C.ar    1  UNL1       -0.0582
     20 C         -10.8535   -5.0008    2.6104 C.ar    1  UNL1       -0.0171
     21 C          -9.8680   -4.0297    2.4445 C.ar    1  UNL1        0.1557
     22 O          -9.3011   -3.5716    1.2810 O.2     1  UNL1       -0.4352
     23 C          -6.2699   -1.8257    0.7421 C.ar    1  UNL1       -0.0205
     24 C          -1.2328   -1.2056    0.0003 C.ar    1  UNL1       -0.0497
     25 C           0.1652   -1.2204    0.0102 C.ar    1  UNL1       -0.0196
     26 H           2.5962    0.8124   -0.0156 H       1  UNL1        0.2921
     27 H           0.7476    2.1353    0.0200 H       1  UNL1        0.0654
     28 H          -1.7165    2.1724    0.0004 H       1  UNL1        0.0625
     29 H          -3.8755    1.0412   -0.0210 H       1  UNL1        0.0836
     30 H          -5.6730    0.5305   -1.6261 H       1  UNL1        0.0640
     31 H          -8.1277    0.5630   -1.6679 H       1  UNL1        0.0655
     32 H         -10.0274   -0.3230   -0.8412 H       1  UNL1        0.2922
     33 H          -9.2734   -3.0194    5.6237 H       1  UNL1        0.0640
     34 H         -11.0455   -4.7361    6.0249 H       1  UNL1        0.0618
     35 H         -12.0269   -5.9887    4.1334 H       1  UNL1        0.0619
     36 H         -11.2840   -5.5366    1.7734 H       1  UNL1        0.0655
     37 H          -5.7399   -2.4785    1.4334 H       1  UNL1        0.0647
     38 H          -1.7784   -2.1462   -0.0025 H       1  UNL1        0.0625
     39 H           0.7005   -2.1661    0.0169 H       1  UNL1        0.0654
@<TRIPOS>BOND
     1     1     2    1
     2     2     3   ar
     3     3     4   ar
     4     4     5   ar
     5     5     6    1
     6     6     7    2
     7     7     8    1
     8     8     9   ar
     9     9    10   ar
    10    10    11   ar
    11    11    12    1
    12    11    13   ar
    13    13    14    1
    14    14    15   ar
    15    15    16   ar
    16    16    17   ar
    17    17    18   ar
    18    18    19   ar
    19    19    20   ar
    20    20    21   ar
    21    16    21   ar
    22    21    22   ar
    23    14    22   ar
    24    13    23   ar
    25     8    23   ar
    26     5    24   ar
    27    24    25   ar
    28     2    25   ar
    29     1    26    1
    30     3    27    1
    31     4    28    1
    32     6    29    1
    33     9    30    1
    34    10    31    1
    35    12    32    1
    36    17    33    1
    37    18    34    1
    38    19    35    1
    39    20    36    1
    40    23    37    1
    41    24    38    1
    42    25    39    1
