REMARK  9 active torsions:
REMARK  status: ('A' for Active; 'I' for Inactive)
REMARK       I    between atoms: C_2  and  N_3 
REMARK       I    between atoms: C_2  and  N_12 
REMARK    1  A    between atoms: N_3  and  C_4 
REMARK    2  A    between atoms: C_4  and  C_5 
REMARK    3  A    between atoms: C_5  and  C_6 
REMARK    4  A    between atoms: C_6  and  N_7 
REMARK    5  A    between atoms: N_12  and  N_13 
REMARK       I    between atoms: N_13  and  C_14 
REMARK    6  A    between atoms: C_14  and  C_16 
REMARK    7  A    between atoms: C_20  and  C_21 
REMARK    8  A    between atoms: C_21  and  O_22 
REMARK    9  A    between atoms: O_22  and  C_23 
ROOT
ATOM      1  N   UNL d   1       4.530   0.579   1.148  0.00  0.00    -0.260 N 
ATOM      2  C   UNL d   1       5.114   1.017   2.336  0.00  0.00     0.294 C 
ATOM      3  O   UNL d   1       4.405   1.465   3.247  0.00  0.00    -0.264 OA
ATOM      4  H   UNL d   1       5.106   0.155   0.439  0.00  0.00     0.190 HD
ENDROOT
BRANCH   1   5
ATOM      5  N   UNL d   1       3.116   0.452   1.108  0.00  0.00    -0.249 N 
ATOM      6  C   UNL d   1       2.349   0.084   0.032  0.00  0.00     0.334 C 
ATOM      7  O   UNL d   1       1.122   0.085   0.085  0.00  0.00    -0.246 OA
ATOM      8  N   UNL d   1       3.025  -0.293  -1.099  0.00  0.00    -0.342 N 
ATOM      9  H   UNL d   1       4.028  -0.289  -1.067  0.00  0.00     0.164 HD
ATOM     10  H   UNL d   1       2.619   0.746   1.955  0.00  0.00     0.192 HD
BRANCH   8  11
ATOM     11  C   UNL d   1       2.321  -0.708  -2.300  0.00  0.00     0.126 C 
BRANCH  11  12
ATOM     12  C   UNL d   1       3.281  -1.087  -3.426  0.00  0.00     0.040 C 
BRANCH  12  13
ATOM     13  C   UNL d   1       2.538  -1.508  -4.690  0.00  0.00     0.130 C 
BRANCH  13  14
ATOM     14  N   UNL d   1       3.475  -1.888  -5.763  0.00  0.00    -0.352 N 
ATOM     15  C   UNL d   1       3.716  -3.182  -6.217  0.00  0.00     0.108 A 
ATOM     16  C   UNL d   1       4.625  -3.084  -7.233  0.00  0.00     0.106 A 
ATOM     17  N   UNL d   1       4.909  -1.746  -7.367  0.00  0.00    -0.361 N 
ATOM     18  C   UNL d   1       4.210  -1.025  -6.485  0.00  0.00     0.182 A 
ATOM     19  H   UNL d   1       5.555  -1.349  -8.046  0.00  0.00     0.166 HD
ENDBRANCH  13  14
ENDBRANCH  12  13
ENDBRANCH  11  12
ENDBRANCH   8  11
ENDBRANCH   1   5
BRANCH   2  20
ATOM     20  C   UNL d   1       6.565   0.870   2.437  0.00  0.00     0.152 A 
ATOM     21  O   UNL d   1       7.381   1.312   1.421  0.00  0.00    -0.316 OA
ATOM     22  C   UNL d   1       8.669   1.157   1.840  0.00  0.00     0.143 A 
ATOM     23  C   UNL d   1       8.712   0.565   3.076  0.00  0.00     0.037 A 
ATOM     24  C   UNL d   1       7.360   0.361   3.462  0.00  0.00     0.007 A 
BRANCH  24  25
ATOM     25  C   UNL d   1       6.911  -0.280   4.730  0.00  0.00     0.217 C 
BRANCH  25  26
ATOM     26  O   UNL d   1       5.525  -0.562   4.665  0.00  0.00    -0.347 OA
BRANCH  26  27
ATOM     27  C   UNL d   1       4.852  -0.795   5.820  0.00  0.00     0.069 A 
ATOM     28  C   UNL d   1       3.629  -1.442   5.637  0.00  0.00     0.037 A 
ATOM     29  C   UNL d   1       2.802  -1.700   6.725  0.00  0.00     0.003 A 
ATOM     30  C   UNL d   1       3.226  -1.359   8.007  0.00  0.00     0.000 A 
ATOM     31  C   UNL d   1       4.444  -0.705   8.191  0.00  0.00     0.003 A 
ATOM     32  C   UNL d   1       5.251  -0.407   7.095  0.00  0.00     0.037 A 
ENDBRANCH  26  27
ENDBRANCH  25  26
ENDBRANCH  24  25
ENDBRANCH   2  20
TORSDOF 9
