@<TRIPOS>MOLECULE
*****
 53 56 0 0 0
SMALL
GASTEIGER

@<TRIPOS>ATOM
      1 N           0.9688    0.0262   -0.0913 N.1     1  UNL1       -0.1907
      2 C           2.2298    0.0262   -0.0913 C.1     1  UNL1        0.1044
      3 C           3.7498    0.0262   -0.0913 C.2     1  UNL1        0.1142
      4 C           4.3902    0.9731   -0.8094 C.2     1  UNL1       -0.0301
      5 C           3.7293    2.0491   -1.4788 C.ar    1  UNL1        0.0016
      6 C           4.0552    2.5132   -2.7250 C.ar    1  UNL1        0.0133
      7 N           3.1488    3.4953   -3.0761 N.ar    1  UNL1       -0.3417
      8 C           3.1214    4.2577   -4.3364 C.3     1  UNL1        0.0483
      9 C           4.2200    3.8579   -5.2980 C.ar    1  UNL1       -0.0272
     10 C           4.2540    2.5626   -5.8425 C.ar    1  UNL1       -0.0568
     11 C           5.3827    2.1069   -6.5189 C.ar    1  UNL1       -0.0609
     12 C           6.5039    2.9266   -6.6188 C.ar    1  UNL1       -0.0501
     13 C           6.4701    4.2430   -6.1333 C.ar    1  UNL1        0.0551
     14 C           7.7128    5.0948   -6.1909 C.3     1  UNL1        0.4174
     15 F           8.7385    4.5524   -5.4757 F       1  UNL1       -0.1659
     16 F           8.1800    5.2550   -7.4575 F       1  UNL1       -0.1659
     17 F           7.5362    6.3490   -5.6898 F       1  UNL1       -0.1659
     18 C           5.2963    4.7225   -5.5337 C.ar    1  UNL1       -0.0452
     19 C           2.2567    3.6908   -2.0294 C.ar    1  UNL1        0.0499
     20 C           1.1565    4.5511   -1.8657 C.ar    1  UNL1       -0.0376
     21 C           0.4169    4.4707   -0.6730 C.ar    1  UNL1       -0.0598
     22 C           0.7798    3.6081    0.3466 C.ar    1  UNL1       -0.0611
     23 C           1.9280    2.8486    0.2145 C.ar    1  UNL1       -0.0520
     24 C           2.6417    2.8278   -1.0024 C.ar    1  UNL1        0.0070
     25 C           4.4723   -1.0782    0.6654 C.2     1  UNL1        0.2586
     26 O           3.7910   -1.9004    1.2928 O.2     1  UNL1       -0.2691
     27 N           5.8714   -1.0775    0.7021 N.am    1  UNL1       -0.2809
     28 C           6.6558   -2.0247    1.4314 C.ar    1  UNL1        0.0341
     29 C           6.2846   -3.3691    1.5508 C.ar    1  UNL1       -0.0341
     30 C           6.9958   -4.2488    2.3844 C.ar    1  UNL1        0.0173
     31 C           8.1389   -3.8003    3.0535 C.ar    1  UNL1        0.2733
     32 N           8.8254   -4.6877    4.0081 N.pl3   1  UNL1        0.0796
     33 O           8.3519   -5.8145    4.1962 O.2     1  UNL1        0.0414
     34 O           9.8333   -4.2438    4.5834 O.co2   1  UNL1       -0.5760
     35 C           8.6005   -2.4960    2.8425 C.ar    1  UNL1        0.0173
     36 C           7.8450   -1.6073    2.0523 C.ar    1  UNL1       -0.0341
     37 H           5.4679    0.9647   -0.9188 H       1  UNL1        0.0638
     38 H           4.8450    2.1947   -3.3917 H       1  UNL1        0.0815
     39 H           3.2260    5.3114   -4.0480 H       1  UNL1        0.0541
     40 H           2.1387    4.1162   -4.7982 H       1  UNL1        0.0541
     41 H           3.4403    1.8654   -5.6435 H       1  UNL1        0.0621
     42 H           5.4060    1.0951   -6.9162 H       1  UNL1        0.0618
     43 H           7.4166    2.5330   -7.0638 H       1  UNL1        0.0623
     44 H           5.2504    5.7566   -5.1919 H       1  UNL1        0.0626
     45 H           0.8605    5.2543   -2.6351 H       1  UNL1        0.0638
     46 H          -0.4562    5.0993   -0.5272 H       1  UNL1        0.0618
     47 H           0.1862    3.5018    1.2503 H       1  UNL1        0.0618
     48 H           2.2044    2.2003    1.0407 H       1  UNL1        0.0624
     49 H           6.3764   -0.2590    0.3902 H       1  UNL1        0.1552
     50 H           5.4404   -3.7598    0.9873 H       1  UNL1        0.0638
     51 H           6.6351   -5.2684    2.5076 H       1  UNL1        0.0686
     52 H           9.5232   -2.1506    3.3084 H       1  UNL1        0.0686
     53 H           8.1708   -0.5708    1.9995 H       1  UNL1        0.0638
@<TRIPOS>UNITY_ATOM_ATTR
32 1
charge 1
34 1
charge -1
@<TRIPOS>BOND
     1     1     2    3
     2     2     3    1
     3     3     4    2
     4     4     5    1
     5     5     6   ar
     6     6     7   ar
     7     7     8    1
     8     8     9    1
     9     9    10   ar
    10    10    11   ar
    11    11    12   ar
    12    12    13   ar
    13    13    14    1
    14    14    15    1
    15    14    16    1
    16    14    17    1
    17    13    18   ar
    18     9    18   ar
    19     7    19   ar
    20    19    20   ar
    21    20    21   ar
    22    21    22   ar
    23    22    23   ar
    24    23    24   ar
    25     5    24   ar
    26    19    24   ar
    27     3    25    1
    28    25    26    2
    29    25    27   am
    30    27    28    1
    31    28    29   ar
    32    29    30   ar
    33    30    31   ar
    34    31    32    1
    35    32    33    2
    36    32    34    1
    37    31    35   ar
    38    35    36   ar
    39    28    36   ar
    40     4    37    1
    41     6    38    1
    42     8    39    1
    43     8    40    1
    44    10    41    1
    45    11    42    1
    46    12    43    1
    47    18    44    1
    48    20    45    1
    49    21    46    1
    50    22    47    1
    51    23    48    1
    52    27    49    1
    53    29    50    1
    54    30    51    1
    55    35    52    1
    56    36    53    1
