REMARK  3 active torsions:
REMARK  status: ('A' for Active; 'I' for Inactive)
REMARK    1  A    between atoms: C_2  and  C_3 
REMARK       I    between atoms: C_2  and  N_14 
REMARK    2  A    between atoms: C_8  and  O_9 
REMARK    3  A    between atoms: N_17  and  C_18 
ROOT
ATOM      1  O   UNL d   1       1.089  -0.034  -0.200  0.00  0.00    -0.267 OA
ATOM      2  C   UNL d   1       2.317   0.001  -0.086  0.00  0.00     0.256 C 
ATOM      3  N   UNL d   1       3.097  -1.147   0.035  0.00  0.00    -0.345 N 
ATOM      4  C   UNL d   1       4.386  -1.143   0.726  0.00  0.00     0.146 C 
ATOM      5  C   UNL d   1       4.520  -2.370   1.647  0.00  0.00     0.143 C 
ATOM      6  N   UNL d   1       4.336  -3.589   0.843  0.00  0.00    -0.378 N 
ATOM      7  C   UNL d   1       3.023  -3.648   0.150  0.00  0.00     0.143 C 
ATOM      8  C   UNL d   1       2.805  -2.383  -0.713  0.00  0.00     0.146 C 
ENDROOT
BRANCH   2   9
ATOM      9  C   UNL d   1       3.021   1.323  -0.081  0.00  0.00     0.065 A 
ATOM     10  C   UNL d   1       2.609   2.359   0.773  0.00  0.00     0.027 A 
ATOM     11  C   UNL d   1       3.310   3.586   0.806  0.00  0.00    -0.051 A 
ATOM     12  C   UNL d   1       4.399   3.789  -0.068  0.00  0.00    -0.049 A 
ATOM     13  C   UNL d   1       2.850   4.688   1.739  0.00  0.00     0.039 C 
ATOM     14  C   UNL d   1       4.800   2.754  -0.925  0.00  0.00     0.045 A 
ATOM     15  C   UNL d   1       5.177   5.088  -0.081  0.00  0.00     0.039 C 
ATOM     16  C   UNL d   1       4.108   1.542  -0.940  0.00  0.00     0.082 A 
ATOM     17  C   UNL d   1       4.418   6.238   0.577  0.00  0.00     0.005 C 
ATOM     18  C   UNL d   1       3.902   5.783   1.935  0.00  0.00     0.005 C 
BRANCH  16  19
ATOM     19  O   UNL d   1       4.506   0.560  -1.810  0.00  0.00    -0.360 OA
ATOM     20  H   UNL d   1       5.254   0.878  -2.339  0.00  0.00     0.217 HD
ENDBRANCH  16  19
ENDBRANCH   2   9
BRANCH   6  21
ATOM     21  C   UNL d   1       5.254  -4.606   0.797  0.00  0.00     0.032 A 
ATOM     22  C   UNL d   1       5.753  -5.071  -0.422  0.00  0.00     0.046 A 
ATOM     23  C   UNL d   1       6.578  -6.191  -0.469  0.00  0.00     0.089 A 
ATOM     24  N   UNL d   1       6.972  -6.777   0.671  0.00  0.00    -0.375 N 
ATOM     25  C   UNL d   1       6.616  -6.297   1.871  0.00  0.00     0.089 A 
ATOM     26  H   UNL d   1       7.560  -7.611   0.622  0.00  0.00     0.164 HD
ATOM     27  C   UNL d   1       5.728  -5.226   1.956  0.00  0.00     0.046 A 
ENDBRANCH   6  21
TORSDOF 3
