@<TRIPOS>MOLECULE
*****
 36 37 0 0 0
SMALL
GASTEIGER

@<TRIPOS>ATOM
      1 C           1.0207    0.1047   -0.0418 C.3     1  UNL1       -0.0191
      2 C           2.5504   -0.0665   -0.0831 C.3     1  UNL1        0.1729
      3 O           3.0169   -1.3204   -0.6284 O.3     1  UNL1       -0.4798
      4 C           2.6153   -2.4985   -0.0410 C.ar    1  UNL1        0.1228
      5 C           1.2953   -2.8026    0.2978 C.ar    1  UNL1       -0.0198
      6 C           0.9236   -4.0024    0.8961 C.ar    1  UNL1       -0.0571
      7 C           1.8599   -5.0075    1.0266 C.ar    1  UNL1       -0.0441
      8 C           3.1656   -4.7894    0.5746 C.ar    1  UNL1        0.0552
      9 C           4.0773   -5.8982    0.5758 C.1     1  UNL1        0.0993
     10 N           4.7723   -6.8218    0.5654 N.1     1  UNL1       -0.1909
     11 C           3.5532   -3.5287    0.0732 C.ar    1  UNL1       -0.0025
     12 C           3.0480    1.1325   -0.9453 C.2     1  UNL1        0.2577
     13 O           2.2309    1.8825   -1.4926 O.2     1  UNL1       -0.2714
     14 N           4.4227    1.3403   -1.0671 N.am    1  UNL1       -0.2824
     15 C           4.8891    2.4346   -1.8528 C.ar    1  UNL1        0.0364
     16 C           4.3096    3.6948   -1.6676 C.ar    1  UNL1       -0.0202
     17 C           4.6370    4.7728   -2.4890 C.ar    1  UNL1        0.0647
     18 CL          3.8667    6.2916   -2.1757 Cl      1  UNL1       -0.0815
     19 C           5.5405    4.6265   -3.5491 C.ar    1  UNL1        0.0618
     20 N           5.8958    5.7223   -4.3416 N.pl3   1  UNL1       -0.3557
     21 C           6.1664    3.3701   -3.6886 C.ar    1  UNL1        0.0647
     22 CL          7.3018    3.1190   -4.9780 Cl      1  UNL1       -0.0815
     23 C           5.8672    2.2842   -2.8374 C.ar    1  UNL1       -0.0202
     24 H           0.5653   -0.4895    0.7479 H       1  UNL1        0.0270
     25 H           0.5800   -0.1594   -1.0139 H       1  UNL1        0.0270
     26 H           0.7099    1.1199    0.2182 H       1  UNL1        0.0270
     27 H           2.9548    0.0586    0.9284 H       1  UNL1        0.0829
     28 H           0.4601   -2.1726    0.0410 H       1  UNL1        0.0654
     29 H          -0.1130   -4.1523    1.1878 H       1  UNL1        0.0619
     30 H           1.5452   -5.9701    1.4233 H       1  UNL1        0.0630
     31 H           4.5758   -3.3746   -0.2657 H       1  UNL1        0.0667
     32 H           5.0526    0.5779   -0.8488 H       1  UNL1        0.1549
     33 H           3.5816    3.8412   -0.8735 H       1  UNL1        0.0651
     34 H           5.3413    6.5701   -4.2691 H       1  UNL1        0.1424
     35 H           6.4441    5.5700   -5.1801 H       1  UNL1        0.1424
     36 H           6.3436    1.3251   -3.0209 H       1  UNL1        0.0651
@<TRIPOS>BOND
     1     1     2    1
     2     2     3    1
     3     3     4    1
     4     4     5   ar
     5     5     6   ar
     6     6     7   ar
     7     7     8   ar
     8     8     9    1
     9     9    10    3
    10     8    11   ar
    11     4    11   ar
    12     2    12    1
    13    12    13    2
    14    12    14   am
    15    14    15    1
    16    15    16   ar
    17    16    17   ar
    18    17    18    1
    19    17    19   ar
    20    19    20    1
    21    19    21   ar
    22    21    22    1
    23    21    23   ar
    24    15    23   ar
    25     1    24    1
    26     1    25    1
    27     1    26    1
    28     2    27    1
    29     5    28    1
    30     6    29    1
    31     7    30    1
    32    11    31    1
    33    14    32    1
    34    16    33    1
    35    20    34    1
    36    20    35    1
    37    23    36    1
