@<TRIPOS>MOLECULE
*****
 49 51 0 0 0
SMALL
GASTEIGER

@<TRIPOS>ATOM
      1 C           0.9787    0.5892    0.5692 C.3     1  UNL1        0.0789
      2 O           2.3762    0.4377    0.3696 O.3     1  UNL1       -0.4933
      3 C           3.0333   -0.6338    0.9057 C.ar    1  UNL1        0.1412
      4 C           4.2804   -0.2544    1.4403 C.ar    1  UNL1       -0.0174
      5 C           5.1363   -1.1650    2.0627 C.ar    1  UNL1       -0.0475
      6 C           4.7240   -2.4803    2.2568 C.ar    1  UNL1        0.0192
      7 C           5.6235   -3.4064    2.9735 C.ar    1  UNL1        0.1354
      8 C           6.2078   -4.6030    2.6142 C.ar    1  UNL1       -0.0155
      9 C           7.0235   -5.0163    3.6901 C.ar    1  UNL1       -0.0178
     10 C           6.9040   -4.0645    4.6809 C.ar    1  UNL1        0.1310
     11 C           7.5114   -3.9822    6.0443 C.3     1  UNL1        0.1019
     12 O           8.3392   -5.1381    6.2358 O.3     1  UNL1       -0.3873
     13 O           6.0618   -3.0598    4.2431 O.2     1  UNL1       -0.4574
     14 C           3.4869   -2.8862    1.6555 C.ar    1  UNL1       -0.0263
     15 C           2.6508   -1.9861    0.9073 C.ar    1  UNL1        0.0755
     16 N           1.4692   -2.4891    0.2091 N.am    1  UNL1       -0.2937
     17 C           0.9146   -1.9794   -1.0084 C.2     1  UNL1        0.1412
     18 S           1.7628   -1.2567   -2.2605 S.2     1  UNL1       -0.0182
     19 N          -0.4858   -2.1539   -1.1119 N.am    1  UNL1       -0.2635
     20 C          -1.4745   -1.2001   -1.4818 C.2     1  UNL1        0.2531
     21 O          -1.3294    0.0099   -1.4630 O.2     1  UNL1       -0.2697
     22 C          -2.8616   -1.6958   -1.7634 C.ar    1  UNL1        0.0800
     23 C          -3.4252   -1.2323   -2.9796 C.ar    1  UNL1       -0.0277
     24 C          -4.7544   -1.5117   -3.3132 C.ar    1  UNL1        0.0419
     25 CL         -5.4754   -0.8043   -4.7085 Cl      1  UNL1       -0.0835
     26 C          -5.5229   -2.3199   -2.4896 C.ar    1  UNL1       -0.0399
     27 C          -4.9888   -2.7523   -1.2733 C.ar    1  UNL1       -0.0178
     28 C          -3.6769   -2.4158   -0.8694 C.ar    1  UNL1        0.1323
     29 O          -3.4391   -2.8309    0.4164 O.3     1  UNL1       -0.4944
     30 C          -2.1927   -2.5570    1.0253 C.3     1  UNL1        0.0788
     31 H           0.6347    1.3240   -0.1668 H       1  UNL1        0.0660
     32 H           0.7486    0.9324    1.5763 H       1  UNL1        0.0660
     33 H           0.3903   -0.3043    0.4234 H       1  UNL1        0.0660
     34 H           4.5860    0.7879    1.3652 H       1  UNL1        0.0655
     35 H           6.1263   -0.8352    2.3763 H       1  UNL1        0.0626
     36 H           6.0869   -5.1030    1.6666 H       1  UNL1        0.0655
     37 H           7.6432   -5.9002    3.7513 H       1  UNL1        0.0653
     38 H           6.7588   -3.9843    6.8380 H       1  UNL1        0.0638
     39 H           8.1542   -3.1055    6.1590 H       1  UNL1        0.0638
     40 H           7.7641   -5.9182    6.1558 H       1  UNL1        0.2100
     41 H           3.2226   -3.9389    1.7397 H       1  UNL1        0.0644
     42 H           1.1219   -3.3747    0.5585 H       1  UNL1        0.1539
     43 H          -0.7798   -3.1141   -1.1782 H       1  UNL1        0.1568
     44 H          -2.8332   -0.6188   -3.6584 H       1  UNL1        0.0641
     45 H          -6.5415   -2.5870   -2.7657 H       1  UNL1        0.0633
     46 H          -5.6274   -3.3302   -0.6050 H       1  UNL1        0.0655
     47 H          -2.1879   -2.8529    2.0748 H       1  UNL1        0.0660
     48 H          -1.9395   -1.4928    0.9815 H       1  UNL1        0.0660
     49 H          -1.4542   -3.2213    0.5853 H       1  UNL1        0.0660
@<TRIPOS>BOND
     1     1     2    1
     2     2     3    1
     3     3     4   ar
     4     4     5   ar
     5     5     6   ar
     6     6     7    1
     7     7     8   ar
     8     8     9   ar
     9     9    10   ar
    10    10    11    1
    11    11    12    1
    12    10    13   ar
    13     7    13   ar
    14     6    14   ar
    15    14    15   ar
    16     3    15   ar
    17    15    16    1
    18    16    17    1
    19    17    18    2
    20    17    19    1
    21    19    20   am
    22    20    21    2
    23    20    22    1
    24    22    23   ar
    25    23    24   ar
    26    24    25    1
    27    24    26   ar
    28    26    27   ar
    29    27    28   ar
    30    22    28   ar
    31    28    29    1
    32    29    30    1
    33     1    31    1
    34     1    32    1
    35     1    33    1
    36     4    34    1
    37     5    35    1
    38     8    36    1
    39     9    37    1
    40    11    38    1
    41    11    39    1
    42    12    40    1
    43    14    41    1
    44    16    42    1
    45    19    43    1
    46    23    44    1
    47    26    45    1
    48    27    46    1
    49    30    47    1
    50    30    48    1
    51    30    49    1
