REMARK  10 active torsions:
REMARK  status: ('A' for Active; 'I' for Inactive)
REMARK    1  A    between atoms: O_2  and  C_3 
REMARK    2  A    between atoms: C_9  and  C_10 
REMARK    3  A    between atoms: C_10  and  N_11 
REMARK    4  A    between atoms: N_14  and  C_15 
REMARK    5  A    between atoms: C_17  and  N_18 
REMARK    6  A    between atoms: N_18  and  C_19 
REMARK    7  A    between atoms: C_19  and  C_20 
REMARK    8  A    between atoms: C_20  and  C_21 
REMARK    9  A    between atoms: C_21  and  O_22 
REMARK   10  A    between atoms: C_23  and  N_24 
ROOT
ATOM      1  C   UNL d   1      -0.012  -0.909   1.640  0.00  0.00     0.066 C 
ATOM      2  C   UNL d   1       0.258   0.433   2.151  0.00  0.00     0.063 C 
ATOM      3  C   UNL d   1      -0.689   1.465   2.561  0.00  0.00     0.066 C 
ATOM      4  C   UNL d   1      -2.059   1.126   2.659  0.00  0.00     0.162 C 
ATOM      5  C   UNL d   1      -2.418  -0.178   2.236  0.00  0.00     0.155 A 
ATOM      6  N   UNL d   1      -3.614  -0.780   2.177  0.00  0.00    -0.100 NA
ATOM      7  O   UNL d   1      -3.410  -2.034   1.655  0.00  0.00    -0.106 OA
ATOM      8  N   UNL d   1      -2.087  -2.245   1.320  0.00  0.00    -0.101 NA
ATOM      9  C   UNL d   1      -1.418  -1.151   1.712  0.00  0.00     0.146 A 
ENDROOT
BRANCH   1  10
ATOM     10  N   UNL d   1       0.981  -1.686   0.982  0.00  0.00    -0.376 N 
ATOM     11  C   UNL d   1       2.283  -1.923   1.616  0.00  0.00     0.150 C 
ATOM     12  C   UNL d   1       3.468  -1.311   0.836  0.00  0.00     0.255 C 
ATOM     13  N   UNL d   1       3.455  -1.618  -0.701  0.00  0.00    -0.064 N 
ATOM     14  C   UNL d   1       2.067  -1.708  -1.389  0.00  0.00     0.255 C 
ATOM     15  H   UNL d   1       3.837  -2.565  -0.793  0.00  0.00     0.280 HD
ATOM     16  C   UNL d   1       0.904  -2.210  -0.434  0.00  0.00     0.150 C 
BRANCH  13  17
ATOM     17  C   UNL d   1       4.411  -0.678  -1.467  0.00  0.00     0.276 C 
BRANCH  17  18
ATOM     18  C   UNL d   1       4.120   0.818  -1.425  0.00  0.00     0.003 A 
ATOM     19  C   UNL d   1       5.012   1.737  -2.019  0.00  0.00     0.035 A 
ATOM     20  C   UNL d   1       4.765   3.123  -1.943  0.00  0.00     0.034 A 
ATOM     21  C   UNL d   1       3.671   3.621  -1.258  0.00  0.00     0.026 A 
ATOM     22 CL   UNL d   1       5.794   4.252  -2.721  0.00  0.00    -0.084 Cl
ATOM     23  C   UNL d   1       2.782   2.736  -0.718  0.00  0.00     0.039 A 
ATOM     24  C   UNL d   1       2.968   1.377  -0.844  0.00  0.00     0.076 A 
BRANCH  24  25
ATOM     25  O   UNL d   1       2.000   0.620  -0.274  0.00  0.00    -0.355 OA
ATOM     26  C   UNL d   1       0.664   0.912  -0.690  0.00  0.00     0.210 C 
ENDBRANCH  24  25
ENDBRANCH  17  18
ENDBRANCH  13  17
ENDBRANCH   1  10
BRANCH   3  27
ATOM     27  N   UNL d   1      -0.278   2.794   2.740  0.00  0.00    -0.388 N 
ATOM     28  H   UNL d   1      -0.975   3.454   3.113  0.00  0.00     0.159 HD
BRANCH  27  29
ATOM     29  C   UNL d   1       1.049   3.333   2.542  0.00  0.00     0.122 C 
BRANCH  29  30
ATOM     30  C   UNL d   1       1.189   4.785   2.987  0.00  0.00     0.045 C 
BRANCH  30  31
ATOM     31  C   UNL d   1       2.613   5.267   2.717  0.00  0.00     0.165 C 
BRANCH  31  32
ATOM     32  O   UNL d   1       2.786   6.598   3.171  0.00  0.00    -0.401 OA
ATOM     33  H   UNL d   1       2.160   7.172   2.696  0.00  0.00     0.209 HD
ENDBRANCH  31  32
ENDBRANCH  30  31
ENDBRANCH  29  30
ENDBRANCH  27  29
ENDBRANCH   3  27
BRANCH   4  34
ATOM     34  N   UNL d   1      -3.090   2.045   3.161  0.00  0.00    -0.111 N 
ATOM     35  O   UNL d   1      -4.237   1.651   3.307  0.00  0.00    -0.532 OA
ATOM     36  O   UNL d   1      -2.725   3.215   3.440  0.00  0.00    -0.532 OA
ENDBRANCH   4  34
TORSDOF 10
