REMARK  3 active torsions:
REMARK  status: ('A' for Active; 'I' for Inactive)
REMARK    1  A    between atoms: C_5  and  C_6 
REMARK       I    between atoms: C_6  and  N_8 
REMARK    2  A    between atoms: N_8  and  N_9 
REMARK    3  A    between atoms: N_9  and  C_10 
ROOT
ATOM      1  C   UNL d   1      -3.387   0.049  -0.074  0.00  0.00     0.270 C 
ATOM      2  O   UNL d   1      -3.993  -1.025  -0.040  0.00  0.00    -0.266 OA
ATOM      3  N   UNL d   1      -4.045   1.278  -0.178  0.00  0.00    -0.265 N 
ATOM      4  H   UNL d   1      -3.581   2.161  -0.013  0.00  0.00     0.190 HD
ENDROOT
BRANCH   3   5
ATOM      5  N   UNL d   1      -5.431   1.299   0.003  0.00  0.00    -0.298 N 
ATOM      6  H   UNL d   1      -5.924   0.405  -0.010  0.00  0.00     0.187 HD
BRANCH   5   7
ATOM      7  C   UNL d   1      -6.140   2.506  -0.112  0.00  0.00     0.048 A 
ATOM      8  C   UNL d   1      -5.739   3.565  -0.935  0.00  0.00     0.031 A 
ATOM      9  C   UNL d   1      -6.459   4.768  -0.970  0.00  0.00     0.003 A 
ATOM     10  C   UNL d   1      -7.572   4.949  -0.152  0.00  0.00     0.007 A 
ATOM     11  C   UNL d   1      -7.986   3.922   0.699  0.00  0.00    -0.060 A 
ATOM     12  C   UNL d   1      -9.161   4.127   1.612  0.00  0.00     0.048 C 
ATOM     13  C   UNL d   1      -7.273   2.707   0.700  0.00  0.00     0.037 A 
ENDBRANCH   5   7
ENDBRANCH   3   5
BRANCH   1  14
ATOM     14  C   UNL d   1      -1.878   0.059  -0.019  0.00  0.00     0.033 A 
ATOM     15  C   UNL d   1      -1.176  -1.161  -0.003  0.00  0.00     0.017 A 
ATOM     16  C   UNL d   1       0.230  -1.192   0.006  0.00  0.00     0.007 A 
ATOM     17  C   UNL d   1       0.965  -0.003   0.003  0.00  0.00    -0.062 A 
ATOM     18  C   UNL d   1       2.467  -0.005  -0.012  0.00  0.00     0.048 C 
ATOM     19  C   UNL d   1       0.272   1.211   0.006  0.00  0.00     0.007 A 
ATOM     20  C   UNL d   1      -1.130   1.243  -0.003  0.00  0.00     0.017 A 
ENDBRANCH   1  14
TORSDOF 3
