REMARK  9 active torsions:
REMARK  status: ('A' for Active; 'I' for Inactive)
REMARK    1  A    between atoms: C_2  and  O_3 
REMARK    2  A    between atoms: O_3  and  C_4 
REMARK    3  A    between atoms: C_6  and  C_7 
REMARK    4  A    between atoms: C_7  and  N_8 
REMARK    5  A    between atoms: C_10  and  S_11 
REMARK    6  A    between atoms: S_11  and  C_12 
REMARK    7  A    between atoms: C_19  and  C_20 
REMARK       I    between atoms: C_20  and  N_22 
REMARK    8  A    between atoms: N_22  and  C_23 
REMARK    9  A    between atoms: C_35  and  O_36 
ROOT
ATOM      1  N   UNL d   1       5.274   2.006   6.307  0.00  0.00    -0.053 N 
ATOM      2  C   UNL d   1       4.236   3.051   6.737  0.00  0.00     0.252 C 
ATOM      3  C   UNL d   1       4.194   4.159   5.674  0.00  0.00     0.082 C 
ATOM      4  C   UNL d   1       5.707   4.193   5.167  0.00  0.00     0.060 C 
ATOM      5  C   UNL d   1       6.398   2.813   5.541  0.00  0.00     0.281 C 
ATOM      6  H   UNL d   1       5.713   1.652   7.178  0.00  0.00     0.281 HD
ENDROOT
BRANCH   5   7
ATOM      7  C   UNL d   1       7.712   3.008   6.281  0.00  0.00     0.253 C 
ATOM      8  O   UNL d   1       7.796   2.620   7.426  0.00  0.00    -0.271 OA
ATOM      9  N   UNL d   1       8.706   3.642   5.511  0.00  0.00    -0.325 N 
ATOM     10  H   UNL d   1       8.501   4.054   4.605  0.00  0.00     0.169 HD
BRANCH   9  11
ATOM     11  C   UNL d   1       9.959   3.979   6.069  0.00  0.00     0.037 A 
ATOM     12  C   UNL d   1      10.607   3.077   6.905  0.00  0.00     0.031 A 
ATOM     13  C   UNL d   1      11.801   3.405   7.543  0.00  0.00     0.023 A 
ATOM     14  C   UNL d   1      12.339   4.679   7.324  0.00  0.00     0.035 A 
ATOM     15  S   UNL d   1      13.761   5.373   7.993  0.00  0.00    -0.073 SA
ATOM     16  C   UNL d   1      11.733   5.598   6.466  0.00  0.00     0.077 A 
ATOM     17  C   UNL d   1      13.461   6.822   7.128  0.00  0.00     0.072 A 
ATOM     18  C   UNL d   1      14.400   7.974   7.253  0.00  0.00     0.079 C 
ATOM     19  N   UNL d   1      12.380   6.822   6.374  0.00  0.00    -0.245 NA
ATOM     20  C   UNL d   1      10.538   5.229   5.798  0.00  0.00     0.062 A 
ENDBRANCH   9  11
ENDBRANCH   5   7
BRANCH   1  21
ATOM     21  C   UNL d   1       4.737   0.674   5.547  0.00  0.00     0.274 C 
BRANCH  21  22
ATOM     22  C   UNL d   1       4.394   0.807   4.071  0.00  0.00    -0.030 C 
ATOM     23  C   UNL d   1       3.801  -0.043   3.182  0.00  0.00     0.048 C 
ATOM     24  C   UNL d   1       3.417   0.452   1.882  0.00  0.00     0.102 C 
ATOM     25  C   UNL d   1       3.592   1.800   1.487  0.00  0.00     0.099 C 
ATOM     26  C   UNL d   1       4.368   2.567   2.254  0.00  0.00     0.040 C 
ATOM     27  C   UNL d   1       4.668   2.003   3.465  0.00  0.00     0.012 C 
BRANCH  24  28
ATOM     28  O   UNL d   1       2.915  -0.532   1.088  0.00  0.00    -0.349 OA
BRANCH  28  29
ATOM     29  C   UNL d   1       2.487  -0.133  -0.204  0.00  0.00     0.171 C 
ATOM     30  C   UNL d   1       0.988   0.026  -0.130  0.00  0.00     0.034 C 
ENDBRANCH  28  29
ENDBRANCH  24  28
BRANCH  25  31
ATOM     31  O   UNL d   1       2.985   2.451   0.457  0.00  0.00    -0.358 OA
ATOM     32  H   UNL d   1       3.253   3.388   0.427  0.00  0.00     0.217 HD
ENDBRANCH  25  31
ENDBRANCH  21  22
ENDBRANCH   1  21
BRANCH   3  33
ATOM     33  S   UNL d   1       2.789   4.123   4.359  0.00  0.00    -0.104 SA
BRANCH  33  34
ATOM     34  C   UNL d   1       1.322   3.377   5.071  0.00  0.00     0.093 A 
ATOM     35  C   UNL d   1       0.977   3.838   6.320  0.00  0.00     0.039 A 
ATOM     36  C   UNL d   1      -0.341   3.746   6.726  0.00  0.00     0.004 A 
ATOM     37  C   UNL d   1      -1.278   3.151   5.892  0.00  0.00     0.019 A 
ATOM     38  C   UNL d   1      -0.839   2.618   4.691  0.00  0.00     0.118 A 
ATOM     39  N   UNL d   1       0.451   2.713   4.265  0.00  0.00    -0.254 NA
ENDBRANCH  33  34
ENDBRANCH   3  33
TORSDOF 9
