@<TRIPOS>MOLECULE
*****
 93 93 0 0 0
SMALL
GASTEIGER

@<TRIPOS>ATOM
      1 C           9.4005    0.9838    0.2049 C.3     1  UNL1       -0.0620
      2 C           8.9899    1.9413    1.3085 C.3     1  UNL1       -0.0351
      3 C           9.2710    3.4295    0.8972 C.3     1  UNL1        0.0269
      4 C           9.9906    3.5834   -0.4679 C.2     1  UNL1        0.2196
      5 O          10.1912    2.6641   -1.2293 O.2     1  UNL1       -0.2754
      6 N          10.4776    4.8066   -0.8271 N.am    1  UNL1       -0.2543
      7 C          11.1754    4.8197   -2.0458 C.ar    1  UNL1        0.2274
      8 N          10.7074    4.1951   -3.1148 N.ar    1  UNL1       -0.1804
      9 C          11.4125    4.2097   -4.2283 C.ar    1  UNL1        0.2274
     10 N          10.8858    3.5501   -5.3682 N.am    1  UNL1       -0.2543
     11 C           9.8444    2.6468   -5.2598 C.2     1  UNL1        0.2196
     12 O           9.3953    2.2573   -4.1856 O.2     1  UNL1       -0.2754
     13 C           9.2489    2.0789   -6.5652 C.3     1  UNL1        0.0269
     14 C           7.9570    1.2797   -6.2236 C.3     1  UNL1       -0.0351
     15 C           6.9541    2.2417   -5.5680 C.3     1  UNL1       -0.0620
     16 C           7.3333    0.5396   -7.4418 C.3     1  UNL1       -0.0451
     17 C           6.0984   -0.3797   -7.1317 C.3     1  UNL1       -0.0374
     18 C           6.5045   -1.4701   -6.1259 C.3     1  UNL1       -0.0601
     19 C           4.8655    0.3771   -6.6055 C.3     1  UNL1       -0.0601
     20 C           5.6167   -1.0529   -8.4303 C.3     1  UNL1       -0.0601
     21 N          12.5628    4.8756   -4.3265 N.ar    1  UNL1       -0.1804
     22 C          12.9692    5.4380   -3.1713 C.ar    1  UNL1        0.2274
     23 N          14.2248    6.0407   -3.1592 N.am    1  UNL1       -0.2543
     24 C          14.8125    6.5765   -2.0282 C.2     1  UNL1        0.2196
     25 O          14.3299    6.5445   -0.8931 O.2     1  UNL1       -0.2754
     26 C          16.1718    7.2628   -2.1706 C.3     1  UNL1        0.0269
     27 C          16.6951    7.5181   -3.5853 C.3     1  UNL1       -0.0351
     28 C          18.0790    6.8867   -3.6787 C.3     1  UNL1       -0.0620
     29 C          16.6965    9.0065   -4.0019 C.3     1  UNL1       -0.0451
     30 C          15.3085    9.7253   -3.9983 C.3     1  UNL1       -0.0374
     31 C          14.3305    9.0110   -4.9416 C.3     1  UNL1       -0.0601
     32 C          14.6789    9.8447   -2.6015 C.3     1  UNL1       -0.0601
     33 C          15.4905   11.1659   -4.4950 C.3     1  UNL1       -0.0601
     34 N          12.2925    5.4832   -2.0427 N.ar    1  UNL1       -0.1804
     35 C           9.6398    1.5414    2.6621 C.3     1  UNL1       -0.0451
     36 C           9.4577    0.0388    3.0759 C.3     1  UNL1       -0.0374
     37 C           7.9553   -0.2818    3.1475 C.3     1  UNL1       -0.0601
     38 C          10.1793   -0.9791    2.1656 C.3     1  UNL1       -0.0601
     39 C          10.0975   -0.1921    4.4533 C.3     1  UNL1       -0.0601
     40 H           9.0305   -0.0199    0.2485 H       1  UNL1        0.0233
     41 H          10.5025    0.9693    0.1366 H       1  UNL1        0.0233
     42 H           8.8948    1.2529   -0.7214 H       1  UNL1        0.0233
     43 H           7.9029    1.8506    1.4254 H       1  UNL1        0.0303
     44 H           8.2963    3.9320    0.8122 H       1  UNL1        0.0361
     45 H           9.8186    3.9563    1.6870 H       1  UNL1        0.0361
     46 H          10.8072    5.4434   -0.1254 H       1  UNL1        0.1577
     47 H          11.3542    3.6992   -6.2450 H       1  UNL1        0.1577
     48 H           9.9879    1.4123   -7.0233 H       1  UNL1        0.0361
     49 H           9.0050    2.8787   -7.2718 H       1  UNL1        0.0361
     50 H           8.2509    0.5140   -5.4941 H       1  UNL1        0.0303
     51 H           6.4673    2.8684   -6.3189 H       1  UNL1        0.0233
     52 H           7.3757    2.9129   -4.8219 H       1  UNL1        0.0233
     53 H           6.2321    1.7027   -4.9686 H       1  UNL1        0.0233
     54 H           8.1140   -0.0878   -7.9016 H       1  UNL1        0.0273
     55 H           7.0596    1.2730   -8.2115 H       1  UNL1        0.0273
     56 H           6.8645   -1.0438   -5.1843 H       1  UNL1        0.0235
     57 H           7.3038   -2.1005   -6.5323 H       1  UNL1        0.0235
     58 H           5.6567   -2.1144   -5.8745 H       1  UNL1        0.0235
     59 H           4.9411    0.6470   -5.5577 H       1  UNL1        0.0235
     60 H           3.9682   -0.2484   -6.6162 H       1  UNL1        0.0235
     61 H           4.6696    1.2731   -7.2053 H       1  UNL1        0.0235
     62 H           6.3863   -1.6864   -8.8779 H       1  UNL1        0.0235
     63 H           5.3122   -0.3004   -9.1670 H       1  UNL1        0.0235
     64 H           4.7405   -1.6833   -8.2291 H       1  UNL1        0.0235
     65 H          14.6332    6.0614   -4.0747 H       1  UNL1        0.1577
     66 H          16.8741    6.6708   -1.5723 H       1  UNL1        0.0361
     67 H          16.1480    8.2037   -1.6085 H       1  UNL1        0.0361
     68 H          16.1203    6.9990   -4.3470 H       1  UNL1        0.0303
     69 H          18.7920    7.3982   -3.0267 H       1  UNL1        0.0233
     70 H          18.4453    6.9077   -4.7071 H       1  UNL1        0.0233
     71 H          18.0188    5.8354   -3.3684 H       1  UNL1        0.0233
     72 H          17.1014    9.0546   -5.0257 H       1  UNL1        0.0273
     73 H          17.4111    9.5634   -3.3814 H       1  UNL1        0.0273
     74 H          14.1648    7.9787   -4.6501 H       1  UNL1        0.0235
     75 H          14.7056    8.9939   -5.9699 H       1  UNL1        0.0235
     76 H          13.3468    9.4888   -4.9322 H       1  UNL1        0.0235
     77 H          14.3200    8.8919   -2.2282 H       1  UNL1        0.0235
     78 H          13.7821   10.4689   -2.5990 H       1  UNL1        0.0235
     79 H          15.3931   10.2669   -1.8846 H       1  UNL1        0.0235
     80 H          15.8675   11.1930   -5.5209 H       1  UNL1        0.0235
     81 H          16.1885   11.7139   -3.8527 H       1  UNL1        0.0235
     82 H          14.5313   11.6968   -4.4730 H       1  UNL1        0.0235
     83 H           9.2001    2.1755    3.4507 H       1  UNL1        0.0273
     84 H          10.7081    1.7954    2.6511 H       1  UNL1        0.0273
     85 H           7.4517   -0.1078    2.1906 H       1  UNL1        0.0235
     86 H           7.4573    0.3448    3.8968 H       1  UNL1        0.0235
     87 H           7.7848   -1.3298    3.4055 H       1  UNL1        0.0235
     88 H           9.6521   -1.2290    1.2544 H       1  UNL1        0.0235
     89 H          10.2401   -1.9674    2.6259 H       1  UNL1        0.0235
     90 H          11.1898   -0.6368    1.9161 H       1  UNL1        0.0235
     91 H           9.6395    0.4199    5.2324 H       1  UNL1        0.0235
     92 H          11.1712    0.0283    4.4179 H       1  UNL1        0.0235
     93 H           9.9909   -1.2452    4.7433 H       1  UNL1        0.0235
@<TRIPOS>BOND
     1     3     4    1
     2     4     5    2
     3     4     6   am
     4     6     7    1
     5     7     8   ar
     6     8     9   ar
     7     9    10    1
     8    10    11   am
     9    11    12    2
    10    11    13    1
    11    13    14    1
    12    14    15    1
    13    14    16    1
    14    16    17    1
    15    17    18    1
    16    17    19    1
    17    17    20    1
    18     9    21   ar
    19    21    22   ar
    20    22    23    1
    21    23    24   am
    22    24    25    2
    23    24    26    1
    24    27    29    1
    25    29    30    1
    26    30    31    1
    27    30    32    1
    28    30    33    1
    29    22    34   ar
    30     7    34   ar
    31     2    35    1
    32    35    36    1
    33    36    37    1
    34    36    38    1
    35    36    39    1
    36    27    28    1
    37    27    26    1
    38     2     3    1
    39     2     1    1
    40     1    40    1
    41     1    41    1
    42     1    42    1
    43     2    43    1
    44     3    44    1
    45     3    45    1
    46     6    46    1
    47    10    47    1
    48    13    48    1
    49    13    49    1
    50    14    50    1
    51    15    51    1
    52    15    52    1
    53    15    53    1
    54    16    54    1
    55    16    55    1
    56    18    56    1
    57    18    57    1
    58    18    58    1
    59    19    59    1
    60    19    60    1
    61    19    61    1
    62    20    62    1
    63    20    63    1
    64    20    64    1
    65    23    65    1
    66    26    66    1
    67    26    67    1
    68    27    68    1
    69    28    69    1
    70    28    70    1
    71    28    71    1
    72    29    72    1
    73    29    73    1
    74    31    74    1
    75    31    75    1
    76    31    76    1
    77    32    77    1
    78    32    78    1
    79    32    79    1
    80    33    80    1
    81    33    81    1
    82    33    82    1
    83    35    83    1
    84    35    84    1
    85    37    85    1
    86    37    86    1
    87    37    87    1
    88    38    88    1
    89    38    89    1
    90    38    90    1
    91    39    91    1
    92    39    92    1
    93    39    93    1
