@<TRIPOS>MOLECULE
*****
 37 38 0 0 0
SMALL
GASTEIGER

@<TRIPOS>ATOM
      1 C           2.4446   -0.4046   -0.0045 C.3     1  UNL1       -0.0380
      2 C           0.9854   -0.1077    0.0033 C.ar    1  UNL1       -0.0292
      3 C           0.2081   -1.2712    0.0074 C.ar    1  UNL1       -0.0564
      4 C          -1.1658   -1.2176    0.0010 C.ar    1  UNL1       -0.0493
      5 C          -1.8069    0.0172   -0.0100 C.ar    1  UNL1        0.0383
      6 C          -3.3060    0.0563   -0.0381 C.2     1  UNL1        0.2416
      7 N          -3.9963   -1.1355   -0.0548 N.am    1  UNL1       -0.3253
      8 O          -3.9174    1.1173   -0.0511 O.2     1  UNL1       -0.2704
      9 C          -1.0258    1.2145   -0.0031 C.ar    1  UNL1       -0.0281
     10 C           0.3985    1.1785    0.0005 C.ar    1  UNL1        0.0373
     11 N           1.1483    2.4265   -0.0014 N.am    1  UNL1       -0.2817
     12 C           2.5294    2.5849   -0.0149 C.2     1  UNL1        0.2411
     13 O           3.4002    1.7210   -0.0404 O.2     1  UNL1       -0.2705
     14 C           3.1058    3.9391   -0.0043 C.2     1  UNL1        0.0010
     15 C           4.4631    3.9918    0.0009 C.2     1  UNL1       -0.0496
     16 C           5.2791    5.2014    0.0085 C.ar    1  UNL1       -0.0235
     17 C           6.6840    5.1502    0.0006 C.ar    1  UNL1       -0.0545
     18 C           7.4215    6.3378    0.0243 C.ar    1  UNL1       -0.0598
     19 C           6.7603    7.5679    0.0547 C.ar    1  UNL1       -0.0434
     20 C           5.3726    7.6084    0.0534 C.ar    1  UNL1        0.0415
     21 CL          4.5189    9.0977    0.0794 Cl      1  UNL1       -0.0835
     22 C           4.6413    6.4373    0.0315 C.ar    1  UNL1       -0.0362
     23 H           2.7134   -1.4592   -0.0016 H       1  UNL1        0.0278
     24 H           2.8650   -0.0111    0.9278 H       1  UNL1        0.0278
     25 H           2.8478   -0.0246   -0.9499 H       1  UNL1        0.0278
     26 H           0.7005   -2.2414    0.0101 H       1  UNL1        0.0621
     27 H          -1.6813   -2.1675    0.0014 H       1  UNL1        0.0625
     28 H          -3.5899   -2.0581   -0.0531 H       1  UNL1        0.1453
     29 H          -5.0071   -1.0965   -0.0805 H       1  UNL1        0.1453
     30 H          -1.5635    2.1635   -0.0049 H       1  UNL1        0.0644
     31 H           0.5862    3.2712    0.0028 H       1  UNL1        0.1551
     32 H           2.4457    4.7865   -0.0073 H       1  UNL1        0.0670
     33 H           5.0648    3.0761    0.0030 H       1  UNL1        0.0625
     34 H           7.2210    4.2004   -0.0212 H       1  UNL1        0.0623
     35 H           8.5089    6.3090    0.0205 H       1  UNL1        0.0618
     36 H           7.3253    8.4928    0.0796 H       1  UNL1        0.0632
     37 H           3.5616    6.5037    0.0359 H       1  UNL1        0.0638
@<TRIPOS>BOND
     1     1     2    1
     2     2     3   ar
     3     3     4   ar
     4     4     5   ar
     5     5     6    1
     6     6     7   am
     7     6     8    2
     8     5     9   ar
     9     9    10   ar
    10     2    10   ar
    11    10    11    1
    12    11    12   am
    13    12    13    2
    14    12    14    1
    15    14    15    2
    16    15    16    1
    17    16    17   ar
    18    17    18   ar
    19    18    19   ar
    20    19    20   ar
    21    20    21    1
    22    20    22   ar
    23    16    22   ar
    24     1    23    1
    25     1    24    1
    26     1    25    1
    27     3    26    1
    28     4    27    1
    29     7    28    1
    30     7    29    1
    31     9    30    1
    32    11    31    1
    33    14    32    1
    34    15    33    1
    35    17    34    1
    36    18    35    1
    37    19    36    1
    38    22    37    1
