@<TRIPOS>MOLECULE
*****
 46 48 0 0 0
SMALL
GASTEIGER

@<TRIPOS>ATOM
      1 C           2.5071   -0.0871   -0.0129 C.3     1  UNL1       -0.0333
      2 C           1.0047    0.0040    0.0017 C.ar    1  UNL1        0.0273
      3 C           0.2528   -1.1955    0.0066 C.ar    1  UNL1       -0.0403
      4 C          -1.1603   -1.2056    0.0046 C.ar    1  UNL1        0.0377
      5 C          -1.8567   -2.5377    0.0248 C.2     1  UNL1        0.2483
      6 O          -1.1535   -3.5477    0.0536 O.2     1  UNL1       -0.2699
      7 N          -3.2468   -2.5708   -0.0433 N.am    1  UNL1       -0.2814
      8 C          -3.9919   -3.7721    0.0319 C.ar    1  UNL1        0.0356
      9 C          -5.1640   -3.9102   -0.7220 C.ar    1  UNL1       -0.0404
     10 C          -5.9488   -5.0646   -0.5987 C.ar    1  UNL1       -0.0581
     11 C          -5.5551   -6.0921    0.2644 C.ar    1  UNL1       -0.0327
     12 C          -4.3888   -5.9427    1.0261 C.ar    1  UNL1        0.1364
     13 S          -3.9481   -7.2012    2.2183 S.O2    1  UNL1        0.1785
     14 O          -5.0309   -7.2103    3.1790 O.2     1  UNL1       -0.1251
     15 O          -3.6676   -8.3956    1.4311 O.2     1  UNL1       -0.1251
     16 N          -2.5927   -6.6809    2.9661 N.2     1  UNL1        0.0899
     17 C          -1.6709   -7.5115    3.3057 C.2     1  UNL1        0.3132
     18 C          -0.4269   -7.0549    4.0615 C.3     1  UNL1        0.0561
     19 C           0.5462   -8.2142    3.7981 C.3     1  UNL1       -0.0059
     20 C          -0.3553   -9.4372    3.6289 C.3     1  UNL1        0.0785
     21 N          -1.5714   -8.8600    3.1226 N.pl3   1  UNL1       -0.2358
     22 C          -3.6081   -4.7942    0.9039 C.ar    1  UNL1       -0.0116
     23 C          -1.8291    0.0196   -0.0026 C.ar    1  UNL1       -0.0432
     24 C          -1.1042    1.2221   -0.0006 C.ar    1  UNL1        0.0166
     25 C           0.3049    1.2259    0.0017 C.ar    1  UNL1        0.2760
     26 N           0.9885    2.5439   -0.0010 N.pl3   1  UNL1        0.0799
     27 O           0.2721    3.5552   -0.0069 O.2     1  UNL1        0.0414
     28 O           2.2249    2.5839    0.0017 O.co2   1  UNL1       -0.5760
     29 H           2.8632   -1.1213   -0.0043 H       1  UNL1        0.0280
     30 H           2.9242    0.4006    0.8746 H       1  UNL1        0.0280
     31 H           2.8997    0.3798   -0.9228 H       1  UNL1        0.0280
     32 H           0.7829   -2.1511    0.0095 H       1  UNL1        0.0630
     33 H          -3.7718   -1.7387   -0.2681 H       1  UNL1        0.1551
     34 H          -5.4501   -3.1592   -1.4554 H       1  UNL1        0.0636
     35 H          -6.8695   -5.1606   -1.1724 H       1  UNL1        0.0619
     36 H          -6.1582   -6.9951    0.3414 H       1  UNL1        0.0638
     37 H          -0.6582   -6.9905    5.1303 H       1  UNL1        0.0389
     38 H          -0.0397   -6.0962    3.7094 H       1  UNL1        0.0389
     39 H           1.2774   -8.3501    4.6019 H       1  UNL1        0.0307
     40 H           1.1059   -8.0289    2.8720 H       1  UNL1        0.0307
     41 H          -0.5511   -9.9120    4.5950 H       1  UNL1        0.0724
     42 H           0.0708  -10.1743    2.9429 H       1  UNL1        0.0724
     43 H          -2.2375   -9.3790    2.5545 H       1  UNL1        0.2911
     44 H          -2.7270   -4.6733    1.5252 H       1  UNL1        0.0656
     45 H          -2.9112    0.0849   -0.0046 H       1  UNL1        0.0627
     46 H          -1.6614    2.1585   -0.0007 H       1  UNL1        0.0685
@<TRIPOS>UNITY_ATOM_ATTR
26 1
charge 1
28 1
charge -1
@<TRIPOS>BOND
     1     1     2    1
     2     2     3   ar
     3     3     4   ar
     4     4     5    1
     5     5     6    2
     6     5     7   am
     7     7     8    1
     8     8     9   ar
     9     9    10   ar
    10    10    11   ar
    11    11    12   ar
    12    12    13    1
    13    13    14    2
    14    13    15    2
    15    13    16    1
    16    16    17    2
    17    17    18    1
    18    18    19    1
    19    19    20    1
    20    20    21    1
    21    17    21    1
    22    12    22   ar
    23     8    22   ar
    24     4    23   ar
    25    23    24   ar
    26    24    25   ar
    27     2    25   ar
    28    25    26    1
    29    26    27    2
    30    26    28    1
    31     1    29    1
    32     1    30    1
    33     1    31    1
    34     3    32    1
    35     7    33    1
    36     9    34    1
    37    10    35    1
    38    11    36    1
    39    18    37    1
    40    18    38    1
    41    19    39    1
    42    19    40    1
    43    20    41    1
    44    20    42    1
    45    21    43    1
    46    22    44    1
    47    23    45    1
    48    24    46    1
