@<TRIPOS>MOLECULE
*****
 59 62 0 0 0
SMALL
GASTEIGER

@<TRIPOS>ATOM
      1 O           1.2807   -0.6887   -0.7030 O.2     1  UNL1       -0.2683
      2 C           2.4123   -0.3856   -0.3095 C.2     1  UNL1        0.2668
      3 N           3.0975   -1.1474    0.6350 N.am    1  UNL1       -0.2029
      4 N           2.3588   -2.0945    1.3255 N.2     1  UNL1       -0.1875
      5 C           2.9754   -2.9031    2.1242 C.2     1  UNL1        0.0529
      6 C           2.2343   -3.8819    2.9670 C.ar    1  UNL1       -0.0018
      7 C           1.1224   -4.6017    2.5001 C.ar    1  UNL1       -0.0494
      8 C           0.4300   -5.4768    3.3609 C.ar    1  UNL1       -0.0159
      9 C           0.8513   -5.6153    4.6817 C.ar    1  UNL1        0.1582
     10 O           0.2071   -6.4243    5.5778 O.3     1  UNL1       -0.5033
     11 C           1.9656   -4.9088    5.1309 C.ar    1  UNL1        0.1588
     12 O           2.3957   -5.0310    6.4228 O.3     1  UNL1       -0.5033
     13 C           2.6637   -4.0525    4.2852 C.ar    1  UNL1       -0.0079
     14 C           3.0572    0.8505   -0.8634 C.ar    1  UNL1        0.0802
     15 C           4.1619    0.6600   -1.6995 C.ar    1  UNL1       -0.0426
     16 C           4.7873    1.7506   -2.3296 C.ar    1  UNL1       -0.0190
     17 C           4.2812    3.0468   -2.2124 C.ar    1  UNL1        0.1245
     18 O           4.9205    4.0010   -2.9609 O.3     1  UNL1       -0.4873
     19 C           4.3456    5.3143   -2.9873 C.3     1  UNL1        0.1146
     20 C           5.0815    6.2576   -3.9219 C.ar    1  UNL1       -0.0104
     21 C           6.1118    5.8408   -4.7747 C.ar    1  UNL1       -0.0554
     22 C           6.8150    6.7717   -5.5459 C.ar    1  UNL1       -0.0614
     23 C           6.4412    8.1144   -5.5403 C.ar    1  UNL1       -0.0617
     24 C           5.3939    8.5382   -4.7273 C.ar    1  UNL1       -0.0614
     25 C           4.7249    7.6180   -3.9180 C.ar    1  UNL1       -0.0554
     26 C           3.1836    3.2502   -1.3829 C.ar    1  UNL1        0.0226
     27 C           2.5627    2.1690   -0.7097 C.ar    1  UNL1        0.1366
     28 O           1.5075    2.6129    0.0502 O.3     1  UNL1       -0.4865
     29 C           0.6882    1.6055    0.6231 C.3     1  UNL1        0.1147
     30 C          -0.4378    2.1266    1.4499 C.ar    1  UNL1       -0.0104
     31 C          -0.6176    3.4906    1.6430 C.ar    1  UNL1       -0.0554
     32 C          -1.5998    3.9253    2.5141 C.ar    1  UNL1       -0.0614
     33 C          -2.4615    3.0026    3.1112 C.ar    1  UNL1       -0.0617
     34 C          -2.3191    1.6352    2.8766 C.ar    1  UNL1       -0.0614
     35 C          -1.2966    1.1927    2.0531 C.ar    1  UNL1       -0.0554
     36 H           4.0836   -1.0165    0.8358 H       1  UNL1        0.1776
     37 H           4.0729   -2.8871    2.2428 H       1  UNL1        0.0851
     38 H           0.7935   -4.4934    1.4679 H       1  UNL1        0.0625
     39 H          -0.4294   -6.0264    2.9852 H       1  UNL1        0.0655
     40 H          -0.5601   -6.8345    5.1411 H       1  UNL1        0.2923
     41 H           1.7743   -5.6542    6.8481 H       1  UNL1        0.2923
     42 H           3.5093   -3.4980    4.6764 H       1  UNL1        0.0662
     43 H           4.5117   -0.3459   -1.9140 H       1  UNL1        0.0627
     44 H           5.6685    1.5799   -2.9436 H       1  UNL1        0.0654
     45 H           4.4135    5.7433   -1.9799 H       1  UNL1        0.0748
     46 H           3.2985    5.2702   -3.3132 H       1  UNL1        0.0748
     47 H           6.3847    4.7900   -4.8402 H       1  UNL1        0.0621
     48 H           7.6621    6.4494   -6.1462 H       1  UNL1        0.0618
     49 H           6.9639    8.8281   -6.1717 H       1  UNL1        0.0618
     50 H           5.1068    9.5865   -4.7110 H       1  UNL1        0.0618
     51 H           3.9205    7.9698   -3.2753 H       1  UNL1        0.0621
     52 H           2.7693    4.2459   -1.2388 H       1  UNL1        0.0691
     53 H           1.2973    1.0124    1.3128 H       1  UNL1        0.0748
     54 H           0.1953    1.0655   -0.1833 H       1  UNL1        0.0748
     55 H           0.0183    4.2032    1.1250 H       1  UNL1        0.0621
     56 H          -1.6787    4.9847    2.7292 H       1  UNL1        0.0618
     57 H          -3.2526    3.3573    3.7617 H       1  UNL1        0.0618
     58 H          -2.9865    0.9176    3.3444 H       1  UNL1        0.0618
     59 H          -1.1582    0.1248    1.8750 H       1  UNL1        0.0621
@<TRIPOS>BOND
     1     1     2    2
     2     2     3   am
     3     3     4    1
     4     4     5    2
     5     5     6    1
     6     6     7   ar
     7     7     8   ar
     8     8     9   ar
     9     9    10    1
    10     9    11   ar
    11    11    12    1
    12    11    13   ar
    13     6    13   ar
    14     2    14    1
    15    14    15   ar
    16    15    16   ar
    17    16    17   ar
    18    17    18    1
    19    18    19    1
    20    19    20    1
    21    20    21   ar
    22    21    22   ar
    23    22    23   ar
    24    23    24   ar
    25    24    25   ar
    26    20    25   ar
    27    17    26   ar
    28    26    27   ar
    29    14    27   ar
    30    27    28    1
    31    28    29    1
    32    29    30    1
    33    30    31   ar
    34    31    32   ar
    35    32    33   ar
    36    33    34   ar
    37    34    35   ar
    38    30    35   ar
    39     3    36    1
    40     5    37    1
    41     7    38    1
    42     8    39    1
    43    10    40    1
    44    12    41    1
    45    13    42    1
    46    15    43    1
    47    16    44    1
    48    19    45    1
    49    19    46    1
    50    21    47    1
    51    22    48    1
    52    23    49    1
    53    24    50    1
    54    25    51    1
    55    26    52    1
    56    29    53    1
    57    29    54    1
    58    31    55    1
    59    32    56    1
    60    33    57    1
    61    34    58    1
    62    35    59    1
