@<TRIPOS>MOLECULE
*****
 55 58 0 0 0
SMALL
GASTEIGER

@<TRIPOS>ATOM
      1 C           1.0035   -0.0423    0.0647 C.3     1  UNL1       -0.0307
      2 C           2.5286   -0.0358    0.0675 C.3     1  UNL1        0.0868
      3 O           3.0004    0.9889   -0.8157 O.3     1  UNL1       -0.4922
      4 C           4.3555    1.0502   -1.0255 C.ar    1  UNL1        0.1205
      5 C           4.8986    2.3255   -1.2089 C.ar    1  UNL1       -0.0193
      6 C           6.2586    2.4937   -1.5377 C.ar    1  UNL1       -0.0476
      7 C           7.1087    1.3844   -1.6449 C.ar    1  UNL1        0.0195
      8 C           8.5955    1.5787   -1.8078 C.ar    1  UNL1        0.1648
      9 N           9.1878    0.9636   -2.9241 N.ar    1  UNL1       -0.2021
     10 C          10.4768    1.1396   -3.0686 C.ar    1  UNL1        0.1920
     11 S          11.3542    0.4544   -4.4236 S.3     1  UNL1       -0.0766
     12 C          10.1481   -0.4713   -5.4541 C.3     1  UNL1        0.0779
     13 C          10.9027   -1.1103   -6.6520 C.2     1  UNL1        0.2275
     14 O          12.1190   -0.9693   -6.7992 O.2     1  UNL1       -0.2746
     15 N          10.1238   -1.8162   -7.5771 N.am    1  UNL1       -0.2848
     16 C          10.7066   -2.4435   -8.7149 C.ar    1  UNL1        0.0334
     17 C          10.0964   -2.3854   -9.9735 C.ar    1  UNL1       -0.0402
     18 C          10.6977   -3.0027  -11.0904 C.ar    1  UNL1       -0.0568
     19 C          11.9315   -3.6593  -10.9698 C.ar    1  UNL1       -0.0475
     20 C          12.6504   -4.1751  -12.2007 C.3     1  UNL1       -0.0305
     21 C          14.0130   -4.8009  -11.9084 C.3     1  UNL1       -0.0613
     22 C          12.4947   -3.7576   -9.6931 C.ar    1  UNL1       -0.0568
     23 C          11.8977   -3.1542   -8.5885 C.ar    1  UNL1       -0.0402
     24 N          11.2055    1.8565   -2.1540 N.ar    1  UNL1       -0.2102
     25 N          12.5141    2.2643   -2.1831 N.ar    1  UNL1       -0.2555
     26 C          12.6757    3.1948   -1.1677 C.ar    1  UNL1        0.2671
     27 O          13.6326    3.9002   -0.9442 O.2     1  UNL1       -0.2664
     28 C          11.3998    3.2068   -0.3929 C.ar    1  UNL1        0.0483
     29 C          10.5556    2.4552   -1.1161 C.ar    1  UNL1        0.1623
     30 N           9.2173    2.2979   -0.9043 N.ar    1  UNL1       -0.2082
     31 C           6.5613    0.1069   -1.4823 C.ar    1  UNL1       -0.0476
     32 C           5.1924   -0.0567   -1.1760 C.ar    1  UNL1       -0.0193
     33 H           0.6163   -0.7771    0.7791 H       1  UNL1        0.0262
     34 H           0.6164   -0.2954   -0.9287 H       1  UNL1        0.0262
     35 H           0.6019    0.9424    0.3237 H       1  UNL1        0.0262
     36 H           2.8638   -1.0313   -0.2371 H       1  UNL1        0.0694
     37 H           2.8835    0.1781    1.0814 H       1  UNL1        0.0694
     38 H           4.2636    3.2004   -1.0799 H       1  UNL1        0.0654
     39 H           6.6407    3.4956   -1.7184 H       1  UNL1        0.0626
     40 H           9.3837    0.2109   -5.8372 H       1  UNL1        0.0475
     41 H           9.6826   -1.2665   -4.8647 H       1  UNL1        0.0475
     42 H           9.1164   -1.7289   -7.5671 H       1  UNL1        0.1548
     43 H           9.2021   -1.7896  -10.1338 H       1  UNL1        0.0636
     44 H          10.2121   -2.9420  -12.0640 H       1  UNL1        0.0621
     45 H          12.8076   -3.3330  -12.8882 H       1  UNL1        0.0311
     46 H          12.0214   -4.9098  -12.7169 H       1  UNL1        0.0311
     47 H          14.6770   -4.0756  -11.4218 H       1  UNL1        0.0233
     48 H          14.5056   -5.1382  -12.8231 H       1  UNL1        0.0233
     49 H          13.9058   -5.6663  -11.2446 H       1  UNL1        0.0233
     50 H          13.4268   -4.2868   -9.5188 H       1  UNL1        0.0621
     51 H          12.3893   -3.2568   -7.6253 H       1  UNL1        0.0636
     52 H          13.2047    1.9334   -2.8429 H       1  UNL1        0.1906
     53 H          11.2433    3.7658    0.5091 H       1  UNL1        0.0709
     54 H           7.1905   -0.7735   -1.5757 H       1  UNL1        0.0626
     55 H           4.8034   -1.0644   -1.0761 H       1  UNL1        0.0654
@<TRIPOS>BOND
     1     1     2    1
     2     2     3    1
     3     3     4    1
     4     4     5   ar
     5     5     6   ar
     6     6     7   ar
     7     7     8    1
     8     8     9   ar
     9     9    10   ar
    10    10    11    1
    11    11    12    1
    12    12    13    1
    13    13    14    2
    14    13    15   am
    15    15    16    1
    16    16    17   ar
    17    17    18   ar
    18    18    19   ar
    19    19    20    1
    20    20    21    1
    21    19    22   ar
    22    22    23   ar
    23    16    23   ar
    24    10    24   ar
    25    24    25   ar
    26    25    26   ar
    27    26    27    2
    28    26    28   ar
    29    28    29   ar
    30    24    29   ar
    31    29    30   ar
    32     8    30   ar
    33     7    31   ar
    34    31    32   ar
    35     4    32   ar
    36     1    33    1
    37     1    34    1
    38     1    35    1
    39     2    36    1
    40     2    37    1
    41     5    38    1
    42     6    39    1
    43    12    40    1
    44    12    41    1
    45    15    42    1
    46    17    43    1
    47    18    44    1
    48    20    45    1
    49    20    46    1
    50    21    47    1
    51    21    48    1
    52    21    49    1
    53    22    50    1
    54    23    51    1
    55    25    52    1
    56    28    53    1
    57    31    54    1
    58    32    55    1
