@<TRIPOS>MOLECULE
*****
 39 41 0 0 0
SMALL
GASTEIGER

@<TRIPOS>ATOM
      1 O           4.5169    1.4503    0.8536 O.2     1  UNL1       -0.2507
      2 C           5.4051    1.1205    0.0620 C.2     1  UNL1        0.3231
      3 N           6.3595    1.9960   -0.4609 N.am    1  UNL1       -0.1781
      4 O           6.2775    3.3443    0.0117 O.3     1  UNL1       -0.2740
      5 C           7.2986    4.1884   -0.5481 C.3     1  UNL1        0.0983
      6 C           7.3170    5.5611    0.1084 C.ar    1  UNL1       -0.0197
      7 C           7.4871    6.7281   -0.6580 C.ar    1  UNL1       -0.0563
      8 C           7.6773    7.9713   -0.0415 C.ar    1  UNL1       -0.0614
      9 C           7.6301    8.0782    1.3462 C.ar    1  UNL1       -0.0617
     10 C           7.4327    6.9364    2.1194 C.ar    1  UNL1       -0.0614
     11 C           7.2907    5.6865    1.5059 C.ar    1  UNL1       -0.0563
     12 N           5.5542   -0.1845   -0.3578 N.am    1  UNL1       -0.2910
     13 C           4.5123   -1.2395   -0.2909 C.3     1  UNL1        0.0504
     14 C           3.8644   -1.7912    1.0337 C.3     1  UNL1       -0.0263
     15 C           3.7049   -3.3361    0.9062 C.3     1  UNL1       -0.0253
     16 C           4.5154   -3.6628   -0.3003 C.ar    1  UNL1       -0.0410
     17 C           4.8132   -4.9414   -0.7610 C.ar    1  UNL1       -0.0399
     18 C           5.7494   -5.0720   -1.7825 C.ar    1  UNL1        0.0413
     19 CL          6.3178   -6.6339   -2.2281 Cl      1  UNL1       -0.0835
     20 C           6.2950   -3.9420   -2.3962 C.ar    1  UNL1       -0.0431
     21 C           5.9316   -2.6623   -1.9692 C.ar    1  UNL1       -0.0552
     22 C           5.0391   -2.5211   -0.9107 C.ar    1  UNL1       -0.0239
     23 H           6.9860    1.8007   -1.2325 H       1  UNL1        0.1841
     24 H           7.1219    4.2951   -1.6248 H       1  UNL1        0.0634
     25 H           8.2913    3.7427   -0.3993 H       1  UNL1        0.0634
     26 H           7.4830    6.6834   -1.7446 H       1  UNL1        0.0621
     27 H           7.8750    8.8560   -0.6428 H       1  UNL1        0.0618
     28 H           7.7453    9.0483    1.8241 H       1  UNL1        0.0618
     29 H           7.4063    7.0146    3.2036 H       1  UNL1        0.0618
     30 H           7.1622    4.8030    2.1282 H       1  UNL1        0.0621
     31 H           6.0594   -0.2083   -1.2275 H       1  UNL1        0.1509
     32 H           3.6816   -0.8545   -0.8930 H       1  UNL1        0.0549
     33 H           2.8470   -1.3906    1.1575 H       1  UNL1        0.0289
     34 H           4.3964   -1.5419    1.9588 H       1  UNL1        0.0289
     35 H           2.6651   -3.6576    0.7710 H       1  UNL1        0.0314
     36 H           4.1157   -3.8562    1.7818 H       1  UNL1        0.0314
     37 H           4.3584   -5.8177   -0.3093 H       1  UNL1        0.0635
     38 H           7.0152   -4.0508   -3.2020 H       1  UNL1        0.0632
     39 H           6.3928   -1.8082   -2.4494 H       1  UNL1        0.0621
@<TRIPOS>BOND
     1     1     2    2
     2     2     3   am
     3     3     4    1
     4     4     5    1
     5     5     6    1
     6     6     7   ar
     7     7     8   ar
     8     8     9   ar
     9     9    10   ar
    10    10    11   ar
    11     6    11   ar
    12     2    12   am
    13    13    14    1
    14    14    15    1
    15    15    16    1
    16    16    17   ar
    17    17    18   ar
    18    18    19    1
    19    18    20   ar
    20    20    21   ar
    21    21    22   ar
    22    16    22   ar
    23    13    22    1
    24    13    12    1
    25     3    23    1
    26     5    24    1
    27     5    25    1
    28     7    26    1
    29     8    27    1
    30     9    28    1
    31    10    29    1
    32    11    30    1
    33    12    31    1
    34    13    32    1
    35    14    33    1
    36    14    34    1
    37    15    35    1
    38    15    36    1
    39    17    37    1
    40    20    38    1
    41    21    39    1
