@<TRIPOS>MOLECULE
*****
 57 60 0 0 0
SMALL
GASTEIGER

@<TRIPOS>ATOM
      1 O           0.9794    0.1727   -0.0928 O.2     1  UNL1       -0.2726
      2 C           2.2064    0.1146    0.0147 C.2     1  UNL1        0.2462
      3 N           2.9570    0.8551    0.9276 N.am    1  UNL1       -0.2804
      4 C           2.3528    1.6526    1.9258 C.ar    1  UNL1        0.0754
      5 C           2.8857    2.9129    2.2338 C.ar    1  UNL1       -0.0366
      6 C           2.3091    3.7052    3.2385 C.ar    1  UNL1       -0.0563
      7 C           1.2075    3.2363    3.9627 C.ar    1  UNL1       -0.0395
      8 C           0.6668    4.0591    5.1141 C.3     1  UNL1       -0.0022
      9 C          -0.4839    3.4181    5.8503 C.ar    1  UNL1       -0.0395
     10 C          -0.3967    2.1935    6.5283 C.ar    1  UNL1       -0.0563
     11 C          -1.5594    1.5474    7.0024 C.ar    1  UNL1       -0.0366
     12 C          -2.8297    2.1533    6.8814 C.ar    1  UNL1        0.0754
     13 N          -3.9721    1.4433    7.3985 N.am    1  UNL1       -0.2804
     14 C          -5.2802    1.8965    7.3823 C.2     1  UNL1        0.2462
     15 O          -5.6192    2.9921    6.9186 O.2     1  UNL1       -0.2726
     16 C          -6.3903    1.0529    7.9950 C.3     1  UNL1        0.1347
     17 C          -6.5160   -0.3339    7.4108 C.3     1  UNL1       -0.0159
     18 C          -8.0124   -0.5232    7.3024 C.3     1  UNL1       -0.0266
     19 C          -8.5124    0.8630    6.9887 C.3     1  UNL1        0.0487
     20 O          -7.6466    1.7303    7.7151 O.3     1  UNL1       -0.3673
     21 C          -2.8587    3.4127    6.2486 C.ar    1  UNL1        0.1382
     22 O          -3.9178    4.2339    6.0124 O.3     1  UNL1       -0.5049
     23 C          -1.7218    4.0141    5.7327 C.ar    1  UNL1       -0.0148
     24 C           0.6614    1.9915    3.6118 C.ar    1  UNL1       -0.0148
     25 C           1.2497    1.1952    2.6440 C.ar    1  UNL1        0.1382
     26 O           0.8189   -0.0982    2.5205 O.3     1  UNL1       -0.5049
     27 C           3.0337   -0.7404   -0.9658 C.3     1  UNL1        0.1347
     28 C           2.4003   -0.6960   -2.3550 C.3     1  UNL1       -0.0159
     29 C           2.6667   -2.0659   -2.9136 C.3     1  UNL1       -0.0266
     30 C           2.6438   -2.9348   -1.6789 C.3     1  UNL1        0.0487
     31 O           3.0948   -2.1238   -0.5849 O.3     1  UNL1       -0.3673
     32 H           3.9492    0.9701    0.7818 H       1  UNL1        0.1550
     33 H           3.7266    3.3165    1.6779 H       1  UNL1        0.0637
     34 H           2.7209    4.6901    3.4563 H       1  UNL1        0.0621
     35 H           0.3415    5.0276    4.7035 H       1  UNL1        0.0361
     36 H           1.4581    4.2814    5.8387 H       1  UNL1        0.0361
     37 H           0.5707    1.6926    6.5898 H       1  UNL1        0.0621
     38 H          -1.4291    0.5574    7.4379 H       1  UNL1        0.0637
     39 H          -3.7814    0.5378    7.8171 H       1  UNL1        0.1550
     40 H          -6.2853    1.0587    9.0832 H       1  UNL1        0.0693
     41 H          -6.0390   -1.0806    8.0515 H       1  UNL1        0.0296
     42 H          -6.0491   -0.3944    6.4210 H       1  UNL1        0.0296
     43 H          -8.4103   -0.8275    8.2769 H       1  UNL1        0.0288
     44 H          -8.3080   -1.2638    6.5571 H       1  UNL1        0.0288
     45 H          -9.5371    1.0352    7.3294 H       1  UNL1        0.0560
     46 H          -8.4643    1.0904    5.9160 H       1  UNL1        0.0560
     47 H          -4.7121    3.8515    6.4246 H       1  UNL1        0.2922
     48 H          -1.8451    4.9564    5.2023 H       1  UNL1        0.0657
     49 H          -0.2036    1.5899    4.1251 H       1  UNL1        0.0657
     50 H          -0.0953   -0.1606    2.8369 H       1  UNL1        0.2922
     51 H           4.0667   -0.3770   -1.0075 H       1  UNL1        0.0693
     52 H           2.8156    0.1078   -2.9698 H       1  UNL1        0.0296
     53 H           1.3170   -0.5336   -2.3118 H       1  UNL1        0.0296
     54 H           3.6591   -2.0905   -3.3754 H       1  UNL1        0.0288
     55 H           1.9343   -2.3751   -3.6655 H       1  UNL1        0.0288
     56 H           3.3010   -3.8035   -1.7827 H       1  UNL1        0.0560
     57 H           1.6324   -3.2939   -1.4576 H       1  UNL1        0.0560
@<TRIPOS>BOND
     1     1     2    2
     2     2     3   am
     3     3     4    1
     4     4     5   ar
     5     5     6   ar
     6     6     7   ar
     7     7     8    1
     8     8     9    1
     9     9    10   ar
    10    10    11   ar
    11    11    12   ar
    12    12    13    1
    13    13    14   am
    14    14    15    2
    15    14    16    1
    16    16    17    1
    17    17    18    1
    18    18    19    1
    19    19    20    1
    20    16    20    1
    21    12    21   ar
    22    21    22    1
    23    21    23   ar
    24     9    23   ar
    25     7    24   ar
    26    24    25   ar
    27     4    25   ar
    28    25    26    1
    29     2    27    1
    30    27    28    1
    31    28    29    1
    32    29    30    1
    33    30    31    1
    34    27    31    1
    35     3    32    1
    36     5    33    1
    37     6    34    1
    38     8    35    1
    39     8    36    1
    40    10    37    1
    41    11    38    1
    42    13    39    1
    43    16    40    1
    44    17    41    1
    45    17    42    1
    46    18    43    1
    47    18    44    1
    48    19    45    1
    49    19    46    1
    50    22    47    1
    51    23    48    1
    52    24    49    1
    53    26    50    1
    54    27    51    1
    55    28    52    1
    56    28    53    1
    57    29    54    1
    58    29    55    1
    59    30    56    1
    60    30    57    1
