@<TRIPOS>MOLECULE
*****
 45 47 0 0 0
SMALL
GASTEIGER

@<TRIPOS>ATOM
      1 N           1.1173    0.0064   -0.0050 N.am    1  UNL1       -0.3131
      2 C           2.4635   -0.0845    0.0764 C.2     1  UNL1        0.3013
      3 O           2.9550   -0.8997    0.8582 O.2     1  UNL1       -0.2527
      4 N           3.1541    0.7803   -0.7329 N.am    1  UNL1       -0.2696
      5 C           4.5653    0.7863   -0.8146 C.ar    1  UNL1        0.0355
      6 C           5.2701    1.9821   -0.9688 C.ar    1  UNL1       -0.0404
      7 C           6.6615    1.9560   -1.1186 C.ar    1  UNL1       -0.0593
      8 C           7.3474    0.7383   -1.0946 C.ar    1  UNL1       -0.0495
      9 C           6.6475   -0.4691   -0.9532 C.ar    1  UNL1        0.0388
     10 C           7.4072   -1.7531   -1.0101 C.2     1  UNL1        0.2483
     11 O           8.6316   -1.6932   -1.1415 O.2     1  UNL1       -0.2699
     12 N           6.6861   -2.9433   -0.9938 N.am    1  UNL1       -0.2802
     13 C           7.3097   -4.2046   -1.0607 C.ar    1  UNL1        0.0522
     14 C           8.4823   -4.4560   -0.3659 C.ar    1  UNL1       -0.0340
     15 C           9.0758   -5.7091   -0.4418 C.ar    1  UNL1        0.0017
     16 C           8.4885   -6.6922   -1.2270 C.ar    1  UNL1        0.2151
     17 O           8.9980   -7.9525   -1.3911 O.3     1  UNL1       -0.4716
     18 C          10.1871   -8.2346   -0.6560 C.3     1  UNL1        0.1163
     19 C          10.6313   -9.6578   -0.8771 C.ar    1  UNL1       -0.0103
     20 C           9.7172  -10.7112   -0.7496 C.ar    1  UNL1       -0.0554
     21 C          10.1548  -12.0332   -0.8022 C.ar    1  UNL1       -0.0614
     22 C          11.4958  -12.3144   -1.0566 C.ar    1  UNL1       -0.0617
     23 C          12.4109  -11.2744   -1.2074 C.ar    1  UNL1       -0.0614
     24 C          11.9844   -9.9508   -1.1020 C.ar    1  UNL1       -0.0554
     25 N           7.3369   -6.4797   -1.9039 N.ar    1  UNL1       -0.2195
     26 C           6.7681   -5.2508   -1.7981 C.ar    1  UNL1        0.0526
     27 C           5.2608   -0.4270   -0.8027 C.ar    1  UNL1       -0.0283
     28 H           0.6004   -0.6134    0.6071 H       1  UNL1        0.1465
     29 H           0.6044    0.6097   -0.6260 H       1  UNL1        0.1465
     30 H           2.6501    1.5459   -1.1559 H       1  UNL1        0.1564
     31 H           4.7683    2.9446   -0.9101 H       1  UNL1        0.0636
     32 H           7.2192    2.8806   -1.2565 H       1  UNL1        0.0618
     33 H           8.4332    0.7352   -1.1915 H       1  UNL1        0.0625
     34 H           5.6835   -2.9337   -1.1159 H       1  UNL1        0.1552
     35 H           8.9320   -3.6950    0.2644 H       1  UNL1        0.0638
     36 H           9.9837   -5.8678    0.1234 H       1  UNL1        0.0671
     37 H          10.0093   -8.1202    0.4225 H       1  UNL1        0.0748
     38 H          10.9899   -7.5551   -0.9693 H       1  UNL1        0.0748
     39 H           8.6598  -10.4997   -0.6015 H       1  UNL1        0.0621
     40 H           9.4489  -12.8422   -0.6370 H       1  UNL1        0.0618
     41 H          11.8261  -13.3459   -1.1396 H       1  UNL1        0.0618
     42 H          13.4591  -11.4941   -1.3915 H       1  UNL1        0.0618
     43 H          12.7154   -9.1505   -1.1952 H       1  UNL1        0.0621
     44 H           5.8674   -5.1225   -2.3923 H       1  UNL1        0.0850
     45 H           4.6852   -1.3374   -0.7098 H       1  UNL1        0.0644
@<TRIPOS>BOND
     1     1     2   am
     2     2     3    2
     3     2     4   am
     4     4     5    1
     5     5     6   ar
     6     6     7   ar
     7     7     8   ar
     8     8     9   ar
     9     9    10    1
    10    10    11    2
    11    10    12   am
    12    12    13    1
    13    13    14   ar
    14    14    15   ar
    15    15    16   ar
    16    16    17    1
    17    17    18    1
    18    18    19    1
    19    19    20   ar
    20    20    21   ar
    21    21    22   ar
    22    22    23   ar
    23    23    24   ar
    24    19    24   ar
    25    16    25   ar
    26    25    26   ar
    27    13    26   ar
    28     9    27   ar
    29     5    27   ar
    30     1    28    1
    31     1    29    1
    32     4    30    1
    33     6    31    1
    34     7    32    1
    35     8    33    1
    36    12    34    1
    37    14    35    1
    38    15    36    1
    39    18    37    1
    40    18    38    1
    41    20    39    1
    42    21    40    1
    43    22    41    1
    44    23    42    1
    45    24    43    1
    46    26    44    1
    47    27    45    1
