@<TRIPOS>MOLECULE
*****
 62 66 0 0 0
SMALL
GASTEIGER

@<TRIPOS>ATOM
      1 N           2.0911   -0.1011   -0.3203 N.pl3   1  UNL1       -0.3375
      2 C           0.7398   -0.1203   -0.4976 C.ar    1  UNL1        0.2064
      3 N           0.0261    0.9446   -0.1179 N.ar    1  UNL1       -0.0319
      4 O          -1.2880    0.5101   -0.0302 O.2     1  UNL1       -0.2388
      5 N          -1.3870   -0.8723   -0.2188 N.ar    1  UNL1       -0.0272
      6 C          -0.1909   -1.2499   -0.7046 C.ar    1  UNL1        0.2407
      7 N           0.1222   -2.6690   -0.6616 N.ar    1  UNL1       -0.1830
      8 N          -0.2611   -3.8357   -1.2604 N.ar    1  UNL1       -0.0581
      9 N           0.4038   -4.9128   -0.7213 N.ar    1  UNL1       -0.1279
     10 C           1.1109   -4.4800    0.3558 C.ar    1  UNL1        0.1399
     11 C           1.9412   -5.4230    1.5053 C.3     1  UNL1        0.0155
     12 N           2.6357   -4.6746    2.9474 N.4     1  UNL1        0.2397
     13 C           1.3718   -4.1272    4.0383 C.3     1  UNL1       -0.0313
     14 C           1.1533   -2.6401    3.8447 C.3     1  UNL1       -0.0077
     15 C           2.8288   -2.0872    3.0673 C.3     1  UNL1       -0.0077
     16 C           3.5842   -3.3516    2.4718 C.3     1  UNL1       -0.0313
     17 C           0.8085   -3.0651    0.3736 C.ar    1  UNL1        0.1608
     18 C           0.9756   -2.2146    1.4378 C.2     1  UNL1        0.2838
     19 O           1.5241   -3.1584    1.9724 O.2     1  UNL1       -0.2667
     20 N           0.7377   -0.8564    2.0522 N.am    1  UNL1       -0.2016
     21 N           1.3403   -0.3405    3.3608 N.2     1  UNL1       -0.1874
     22 C           1.4633    0.9137    3.6636 C.2     1  UNL1        0.0528
     23 C           2.1930    1.4492    4.8857 C.ar    1  UNL1       -0.0052
     24 C           1.5731    2.4731    5.6034 C.ar    1  UNL1       -0.0496
     25 C           2.3026    3.2532    6.5209 C.ar    1  UNL1       -0.0193
     26 C           3.6275    2.9380    6.8445 C.ar    1  UNL1        0.1210
     27 O           4.2109    3.6922    7.8250 O.3     1  UNL1       -0.4874
     28 C           5.5370    3.3253    8.2536 C.3     1  UNL1        0.1146
     29 C           5.9142    4.2267    9.4048 C.ar    1  UNL1       -0.0103
     30 C           6.1664    3.7197   10.6868 C.ar    1  UNL1       -0.0540
     31 C           6.2102    4.5878   11.7811 C.ar    1  UNL1       -0.0430
     32 C           6.1702    5.9655   11.5787 C.ar    1  UNL1        0.0410
     33 CL          6.3748    7.0310   12.9131 Cl      1  UNL1       -0.0835
     34 C           6.0134    6.4824   10.2969 C.ar    1  UNL1       -0.0430
     35 C           5.8952    5.6144    9.2132 C.ar    1  UNL1       -0.0540
     36 C           4.2393    1.8832    6.1745 C.ar    1  UNL1       -0.0193
     37 C           3.5270    1.1376    5.2082 C.ar    1  UNL1       -0.0496
     38 H           2.5633    0.7720   -0.0521 H       1  UNL1        0.1439
     39 H           2.7117   -0.8994   -0.2642 H       1  UNL1        0.1439
     40 H           2.8282   -5.8932    1.0356 H       1  UNL1        0.0884
     41 H           1.3354   -6.2545    1.9184 H       1  UNL1        0.0884
     42 H           3.2056   -5.3793    3.4311 H       1  UNL1        0.2037
     43 H           1.7489   -4.1541    5.0433 H       1  UNL1        0.0814
     44 H           0.4568   -4.7315    3.8450 H       1  UNL1        0.0814
     45 H           0.4500   -1.9380    4.3710 H       1  UNL1        0.0319
     46 H           0.1690   -2.7749    3.1830 H       1  UNL1        0.0319
     47 H           3.4071   -1.3535    3.6198 H       1  UNL1        0.0319
     48 H           2.8178   -1.4401    2.0908 H       1  UNL1        0.0319
     49 H           4.5888   -3.3516    2.8871 H       1  UNL1        0.0814
     50 H           3.6759   -3.3739    1.3329 H       1  UNL1        0.0814
     51 H           0.4283   -0.0687    1.5197 H       1  UNL1        0.1776
     52 H           1.0586    1.6613    2.9788 H       1  UNL1        0.0851
     53 H           0.5134    2.6661    5.4601 H       1  UNL1        0.0625
     54 H           1.8296    4.1295    6.9638 H       1  UNL1        0.0654
     55 H           6.2459    3.4750    7.4321 H       1  UNL1        0.0748
     56 H           5.5548    2.2793    8.5846 H       1  UNL1        0.0748
     57 H           6.2985    2.6529   10.8539 H       1  UNL1        0.0622
     58 H           6.2446    4.1874   12.7909 H       1  UNL1        0.0632
     59 H           5.9413    7.5535   10.1352 H       1  UNL1        0.0632
     60 H           5.7493    6.0170    8.2137 H       1  UNL1        0.0622
     61 H           5.2847    1.6460    6.3583 H       1  UNL1        0.0654
     62 H           4.0657    0.3407    4.7113 H       1  UNL1        0.0625
@<TRIPOS>UNITY_ATOM_ATTR
12 1
charge 1
@<TRIPOS>BOND
     1     1     2    1
     2     2     3   ar
     3     3     4   ar
     4     4     5   ar
     5     5     6   ar
     6     2     6   ar
     7     6     7    1
     8     7     8   ar
     9     8     9   ar
    10     9    10   ar
    11    10    11    1
    12    11    12    1
    13    12    13    1
    14    13    14    1
    15    14    15    1
    16    15    16    1
    17    12    16    1
    18    10    17   ar
    19     7    17   ar
    20    17    18    1
    21    18    19    2
    22    18    20   am
    23    20    21    1
    24    21    22    2
    25    22    23    1
    26    23    24   ar
    27    24    25   ar
    28    25    26   ar
    29    26    27    1
    30    27    28    1
    31    28    29    1
    32    29    30   ar
    33    30    31   ar
    34    31    32   ar
    35    32    33    1
    36    32    34   ar
    37    34    35   ar
    38    29    35   ar
    39    26    36   ar
    40    36    37   ar
    41    23    37   ar
    42     1    38    1
    43     1    39    1
    44    11    40    1
    45    11    41    1
    46    12    42    1
    47    13    43    1
    48    13    44    1
    49    14    45    1
    50    14    46    1
    51    15    47    1
    52    15    48    1
    53    16    49    1
    54    16    50    1
    55    20    51    1
    56    22    52    1
    57    24    53    1
    58    25    54    1
    59    28    55    1
    60    28    56    1
    61    30    57    1
    62    31    58    1
    63    34    59    1
    64    35    60    1
    65    36    61    1
    66    37    62    1
