@<TRIPOS>MOLECULE
*****
 55 58 0 0 0
SMALL
GASTEIGER

@<TRIPOS>ATOM
      1 C           0.9237    0.0461    0.0097 C.3     1  UNL1        0.0788
      2 O           2.3402   -0.0111   -0.0756 O.3     1  UNL1       -0.4951
      3 C           2.9559    1.2074   -0.0845 C.ar    1  UNL1        0.1202
      4 C           4.1065    1.2846   -0.8676 C.ar    1  UNL1       -0.0181
      5 C           4.8537    2.4447   -0.8324 C.ar    1  UNL1       -0.0314
      6 C           4.3855    3.5332   -0.0685 C.ar    1  UNL1        0.1127
      7 S           5.2932    5.0025   -0.1918 S.O2    1  UNL1        0.0992
      8 O           6.5485    4.5901    0.4081 O.2     1  UNL1       -0.1463
      9 O           5.1599    5.2956   -1.6083 O.2     1  UNL1       -0.1463
     10 N           4.6654    6.2651    0.6588 N.2     1  UNL1       -0.1288
     11 C           5.1616    7.4815    0.6289 C.2     1  UNL1        0.0914
     12 C           4.4968    8.5421    1.4644 C.2     1  UNL1       -0.0084
     13 C           4.9003    9.8269    1.5694 C.2     1  UNL1        0.0935
     14 N           4.2870   10.8096    2.3321 N.pl3   1  UNL1       -0.2606
     15 N           3.1794   10.6241    3.1444 N.am    1  UNL1       -0.2324
     16 C           2.6228   11.6879    3.8197 C.2     1  UNL1        0.2602
     17 O           3.0427   12.8444    3.7787 O.2     1  UNL1       -0.2687
     18 C           1.4328   11.3443    4.6451 C.ar    1  UNL1        0.0416
     19 C           0.3700   12.2500    4.7320 C.ar    1  UNL1       -0.0494
     20 C          -0.6760   12.0139    5.6297 C.ar    1  UNL1       -0.0576
     21 C          -0.6998   10.8437    6.3919 C.ar    1  UNL1       -0.0201
     22 C           0.3444    9.9320    6.2732 C.ar    1  UNL1        0.1176
     23 O           0.3867    8.7925    7.0217 O.3     1  UNL1       -0.5067
     24 C           1.4097   10.1705    5.4097 C.ar    1  UNL1       -0.0080
     25 C           6.1159   10.2848    0.8072 C.2     1  UNL1        0.2049
     26 O           6.5181   11.4503    0.8869 O.2     1  UNL1       -0.2856
     27 C           6.8090    9.2999   -0.0395 C.2     1  UNL1        0.0104
     28 C           6.3492    8.0416   -0.1198 C.2     1  UNL1       -0.0095
     29 C           7.0975    7.0926   -0.9582 C.3     1  UNL1       -0.0070
     30 C           8.4732    7.3762   -1.3502 C.2     1  UNL1       -0.0832
     31 C           8.9454    8.6129   -1.2554 C.2     1  UNL1       -0.0832
     32 C           8.0636    9.7423   -0.7766 C.3     1  UNL1       -0.0054
     33 C           3.2601    3.4770    0.7137 C.ar    1  UNL1       -0.0314
     34 C           2.5465    2.2931    0.7086 C.ar    1  UNL1       -0.0181
     35 H           0.5635   -0.9801    0.1053 H       1  UNL1        0.0660
     36 H           0.5138    0.4795   -0.9074 H       1  UNL1        0.0660
     37 H           0.5659    0.5899    0.8880 H       1  UNL1        0.0660
     38 H           4.4145    0.4559   -1.5004 H       1  UNL1        0.0655
     39 H           5.7893    2.5100   -1.3921 H       1  UNL1        0.0638
     40 H           3.6273    8.1987    2.0109 H       1  UNL1        0.0659
     41 H           4.7230   11.7464    2.3259 H       1  UNL1        0.1701
     42 H           2.7295    9.7193    3.1291 H       1  UNL1        0.1730
     43 H           0.3623   13.1458    4.1140 H       1  UNL1        0.0625
     44 H          -1.4596   12.7581    5.7539 H       1  UNL1        0.0619
     45 H          -1.5288   10.6693    7.0719 H       1  UNL1        0.0654
     46 H          -0.3531    8.7987    7.6526 H       1  UNL1        0.2921
     47 H           2.2324    9.4628    5.3847 H       1  UNL1        0.0661
     48 H           6.5243    6.8974   -1.8605 H       1  UNL1        0.0356
     49 H           7.3057    6.2872   -0.2888 H       1  UNL1        0.0356
     50 H           9.0451    6.5048   -1.6590 H       1  UNL1        0.0572
     51 H           9.9766    8.7810   -1.5337 H       1  UNL1        0.0572
     52 H           7.7647   10.3228   -1.6559 H       1  UNL1        0.0357
     53 H           8.6780   10.3639   -0.1224 H       1  UNL1        0.0357
     54 H           2.9650    4.3256    1.3190 H       1  UNL1        0.0638
     55 H           1.6821    2.2407    1.3553 H       1  UNL1        0.0655
@<TRIPOS>BOND
     1     1     2    1
     2     2     3    1
     3     3     4   ar
     4     4     5   ar
     5     5     6   ar
     6     6     7    1
     7     7     8    2
     8     7     9    2
     9     7    10    1
    10    10    11    2
    11    11    12    1
    12    12    13    2
    13    13    14    1
    14    14    15    1
    15    15    16   am
    16    16    17    2
    17    16    18    1
    18    18    19   ar
    19    19    20   ar
    20    20    21   ar
    21    21    22   ar
    22    22    23    1
    23    22    24   ar
    24    18    24   ar
    25    13    25    1
    26    25    26    2
    27    25    27    1
    28    27    28    2
    29    11    28    1
    30    28    29    1
    31    29    30    1
    32    30    31    2
    33    31    32    1
    34    27    32    1
    35     6    33   ar
    36    33    34   ar
    37     3    34   ar
    38     1    35    1
    39     1    36    1
    40     1    37    1
    41     4    38    1
    42     5    39    1
    43    12    40    1
    44    14    41    1
    45    15    42    1
    46    19    43    1
    47    20    44    1
    48    21    45    1
    49    23    46    1
    50    24    47    1
    51    29    48    1
    52    29    49    1
    53    30    50    1
    54    31    51    1
    55    32    52    1
    56    32    53    1
    57    33    54    1
    58    34    55    1
