@<TRIPOS>MOLECULE
*****
 43 45 0 0 0
SMALL
GASTEIGER

@<TRIPOS>ATOM
      1 O           1.0209    0.0989    0.0438 O.2     1  UNL1       -0.2693
      2 C           2.2517    0.0398    0.0617 C.2     1  UNL1        0.2530
      3 C           2.9656   -1.2192    0.3690 C.2     1  UNL1        0.0022
      4 C           2.3123   -2.3538    0.6649 C.2     1  UNL1       -0.0491
      5 C           3.0434   -3.6068    0.9518 C.ar    1  UNL1       -0.0172
      6 C           4.1315   -3.5547    1.8421 C.ar    1  UNL1       -0.0540
      7 C           4.8949   -4.6860    2.1098 C.ar    1  UNL1       -0.0606
      8 C           4.5675   -5.8980    1.5118 C.ar    1  UNL1       -0.0540
      9 C           3.4544   -6.0032    0.6661 C.ar    1  UNL1       -0.0173
     10 C           3.1118   -7.2488    0.1137 C.ar    1  UNL1       -0.0540
     11 C           2.0082   -7.3807   -0.7264 C.ar    1  UNL1       -0.0612
     12 C           1.2373   -6.2669   -1.0301 C.ar    1  UNL1       -0.0611
     13 C           1.5694   -5.0200   -0.4952 C.ar    1  UNL1       -0.0535
     14 C           2.6739   -4.8527    0.3719 C.ar    1  UNL1       -0.0107
     15 N           3.0191    1.1417   -0.2068 N.am    1  UNL1       -0.2309
     16 N           4.4289    1.2357   -0.1837 N.am    1  UNL1       -0.2339
     17 C           4.9578    2.4284   -0.6397 C.2     1  UNL1        0.2334
     18 O           4.1844    3.3057   -1.0270 O.2     1  UNL1       -0.2739
     19 C           6.4977    2.5391   -0.6018 C.3     1  UNL1        0.0505
     20 C           7.0591    3.9287   -0.8789 C.ar    1  UNL1       -0.0386
     21 C           8.3802    4.1327   -1.3124 C.ar    1  UNL1       -0.0581
     22 C           8.8802    5.4369   -1.4698 C.ar    1  UNL1       -0.0615
     23 C           8.0495    6.5430   -1.2894 C.ar    1  UNL1       -0.0617
     24 C           6.7450    6.3547   -0.8694 C.ar    1  UNL1       -0.0615
     25 C           6.2853    5.0693   -0.6172 C.ar    1  UNL1       -0.0581
     26 H           4.0414   -1.2182    0.3376 H       1  UNL1        0.0670
     27 H           1.2259   -2.3882    0.6780 H       1  UNL1        0.0625
     28 H           4.3945   -2.6240    2.3398 H       1  UNL1        0.0624
     29 H           5.7414   -4.6242    2.7882 H       1  UNL1        0.0618
     30 H           5.1857   -6.7686    1.7223 H       1  UNL1        0.0624
     31 H           3.7004   -8.1351    0.3431 H       1  UNL1        0.0624
     32 H           1.7517   -8.3517   -1.1417 H       1  UNL1        0.0618
     33 H           0.3731   -6.3617   -1.6821 H       1  UNL1        0.0618
     34 H           0.9426   -4.1728   -0.7634 H       1  UNL1        0.0624
     35 H           2.5279    2.0106   -0.4367 H       1  UNL1        0.1731
     36 H           5.0041    0.4209   -0.0282 H       1  UNL1        0.1728
     37 H           6.8999    1.8207   -1.3281 H       1  UNL1        0.0407
     38 H           6.8496    2.2358    0.3940 H       1  UNL1        0.0407
     39 H           9.0444    3.2970   -1.5263 H       1  UNL1        0.0620
     40 H           9.9232    5.6008   -1.7303 H       1  UNL1        0.0618
     41 H           8.4127    7.5515   -1.4613 H       1  UNL1        0.0618
     42 H           6.0708    7.1910   -0.7120 H       1  UNL1        0.0618
     43 H           5.2785    4.9937   -0.2211 H       1  UNL1        0.0620
@<TRIPOS>BOND
     1     1     2    2
     2     2     3    1
     3     3     4    2
     4     4     5    1
     5     5     6   ar
     6     6     7   ar
     7     7     8   ar
     8     8     9   ar
     9     9    10   ar
    10    10    11   ar
    11    11    12   ar
    12    12    13   ar
    13    13    14   ar
    14     5    14   ar
    15     9    14   ar
    16     2    15   am
    17    15    16    1
    18    16    17   am
    19    17    18    2
    20    17    19    1
    21    19    20    1
    22    20    21   ar
    23    21    22   ar
    24    22    23   ar
    25    23    24   ar
    26    24    25   ar
    27    20    25   ar
    28     3    26    1
    29     4    27    1
    30     6    28    1
    31     7    29    1
    32     8    30    1
    33    10    31    1
    34    11    32    1
    35    12    33    1
    36    13    34    1
    37    15    35    1
    38    16    36    1
    39    19    37    1
    40    19    38    1
    41    21    39    1
    42    22    40    1
    43    23    41    1
    44    24    42    1
    45    25    43    1
