REMARK  7 active torsions:
REMARK  status: ('A' for Active; 'I' for Inactive)
REMARK       I    between atoms: C_2  and  N_4 
REMARK    1  A    between atoms: C_5  and  N_4 
REMARK    2  A    between atoms: C_6  and  O_7 
REMARK    3  A    between atoms: O_7  and  C_8 
REMARK    4  A    between atoms: C_28  and  C_29 
REMARK    5  A    between atoms: C_29  and  O_30 
REMARK    6  A    between atoms: C_31  and  O_32 
REMARK    7  A    between atoms: C_33  and  O_34 
ROOT
ATOM      1  C   UNL d   1       5.112   0.295   1.665  0.00  0.00     0.072 A 
ATOM      2  C   UNL d   1       6.955   0.030   1.983  0.00  0.00     0.037 A 
ATOM      3  C   UNL d   1       7.451  -0.174   3.674  0.00  0.00     0.011 A 
ATOM      4  C   UNL d   1       6.277  -0.237   4.921  0.00  0.00    -0.047 A 
ATOM      5  C   UNL d   1       4.589  -0.078   4.584  0.00  0.00    -0.049 A 
ATOM      6  C   UNL d   1       3.943   0.147   3.013  0.00  0.00     0.044 A 
ATOM      7  C   UNL d   1       3.584  -0.548   5.558  0.00  0.00     0.039 C 
ATOM      8  C   UNL d   1       4.213  -1.450   6.543  0.00  0.00     0.010 C 
ATOM      9  C   UNL d   1       5.540  -1.009   7.167  0.00  0.00    -0.000 C 
ATOM     10  C   UNL d   1       6.708  -1.012   6.152  0.00  0.00     0.024 C 
ATOM     11  C   UNL d   1       7.226  -2.454   5.817  0.00  0.00     0.011 C 
ATOM     12  C   UNL d   1       7.718  -3.163   7.056  0.00  0.00     0.018 C 
ATOM     13  C   UNL d   1       6.629  -3.158   8.029  0.00  0.00     0.021 C 
ATOM     14  C   UNL d   1       7.045  -3.840   9.437  0.00  0.00     0.024 C 
ATOM     15  C   UNL d   1       5.461  -3.885   7.363  0.00  0.00     0.135 C 
ATOM     16  O   UNL d   1       4.971  -4.000   6.257  0.00  0.00    -0.297 OA
ATOM     17  C   UNL d   1       4.836  -4.562   8.415  0.00  0.00     0.079 C 
ATOM     18  C   UNL d   1       4.772  -2.768   9.039  0.00  0.00     0.013 C 
ATOM     19  C   UNL d   1       5.929  -1.901   8.363  0.00  0.00     0.006 C 
ENDROOT
BRANCH   1  20
ATOM     20  O   UNL d   1       4.620   0.921   0.611  0.00  0.00    -0.318 OA
BRANCH  20  21
ATOM     21  C   UNL d   1       5.248   0.031  -0.210  0.00  0.00     0.292 C 
ATOM     22  C   UNL d   1       4.797  -1.422   0.222  0.00  0.00     0.171 C 
ATOM     23  C   UNL d   1       5.332  -2.307  -0.850  0.00  0.00     0.177 C 
ATOM     24  C   UNL d   1       4.995  -1.748  -2.240  0.00  0.00     0.180 C 
ATOM     25  C   UNL d   1       5.364  -0.270  -2.420  0.00  0.00     0.179 C 
ATOM     26  O   UNL d   1       4.779   0.488  -1.423  0.00  0.00    -0.349 OA
BRANCH  22  27
ATOM     27  N   UNL d   1       5.327  -1.881   1.618  0.00  0.00    -0.349 N 
ATOM     28  C   UNL d   1       5.625  -1.057   2.941  0.00  0.00     0.214 C 
ATOM     29  C   UNL d   1       5.802   1.084   3.175  0.00  0.00     0.117 C 
ATOM     30  O   UNL d   1       5.840  -2.084   3.670  0.00  0.00    -0.274 OA
ATOM     31  H   UNL d   1       5.287  -2.887   1.805  0.00  0.00     0.163 HD
ENDBRANCH  22  27
BRANCH  23  32
ATOM     32  O   UNL d   1       4.794  -3.613  -0.659  0.00  0.00    -0.391 OA
ATOM     33  H   UNL d   1       3.823  -3.532  -0.677  0.00  0.00     0.210 HD
ENDBRANCH  23  32
BRANCH  24  34
ATOM     34  O   UNL d   1       5.736  -2.512  -3.178  0.00  0.00    -0.390 OA
ATOM     35  H   UNL d   1       6.677  -2.405  -2.952  0.00  0.00     0.210 HD
ENDBRANCH  24  34
BRANCH  25  36
ATOM     36  C   UNL d   1       4.784   0.326  -3.679  0.00  0.00     0.198 C 
BRANCH  36  37
ATOM     37  O   UNL d   1       5.278  -0.328  -4.822  0.00  0.00    -0.398 OA
ATOM     38  H   UNL d   1       6.246  -0.347  -4.744  0.00  0.00     0.209 HD
ENDBRANCH  36  37
ENDBRANCH  25  36
ENDBRANCH  20  21
ENDBRANCH   1  20
TORSDOF 7
