@<TRIPOS>MOLECULE
*****
 41 43 0 0 0
SMALL
GASTEIGER

@<TRIPOS>ATOM
      1 C           2.2993   -0.1599    0.0108 C.3     1  UNL1       -0.0334
      2 C           0.8077   -0.2722   -0.0141 C.ar    1  UNL1       -0.0126
      3 C           0.0611   -1.4290   -0.0251 C.ar    1  UNL1       -0.0512
      4 C          -1.3364   -1.1629   -0.0647 C.ar    1  UNL1       -0.0452
      5 C          -1.6497    0.1888   -0.0559 C.ar    1  UNL1        0.0381
      6 C          -2.9968    0.8109    0.0423 C.ar    1  UNL1        0.0832
      7 N          -3.3760    1.6202   -0.9920 N.ar    1  UNL1       -0.2303
      8 C          -4.6280    2.1500   -0.9843 C.ar    1  UNL1        0.1350
      9 N          -5.0023    2.9274   -2.0684 N.pl3   1  UNL1       -0.3421
     10 C          -5.5360    1.8936    0.0431 C.ar    1  UNL1        0.0991
     11 C          -6.8457    2.4827   -0.0006 C.1     1  UNL1        0.1032
     12 N          -7.9149    2.9436   -0.0585 N.1     1  UNL1       -0.1907
     13 C          -5.1517    1.0606    1.1131 C.ar    1  UNL1        0.0078
     14 C          -6.1139    0.7597    2.1856 C.ar    1  UNL1       -0.0162
     15 C          -7.3031    0.0879    1.8798 C.ar    1  UNL1       -0.0533
     16 C          -8.2277   -0.2107    2.8716 C.ar    1  UNL1       -0.0491
     17 C          -7.9720    0.1214    4.2034 C.ar    1  UNL1        0.0365
     18 C          -8.9420   -0.2164    5.2818 C.2     1  UNL1        0.2415
     19 N         -10.1023   -0.8533    4.9258 N.am    1  UNL1       -0.3253
     20 O          -8.7165    0.0593    6.4534 O.2     1  UNL1       -0.2704
     21 C          -6.7776    0.7820    4.5262 C.ar    1  UNL1       -0.0491
     22 C          -5.8674    1.1192    3.5198 C.ar    1  UNL1       -0.0533
     23 C          -3.8546    0.4964    1.1118 C.ar    1  UNL1       -0.0149
     24 C          -3.3966   -0.4219    2.2206 C.3     1  UNL1       -0.0370
     25 S          -0.2033    1.1224   -0.0348 S.2     1  UNL1       -0.0919
     26 H           2.7660   -1.1540    0.0035 H       1  UNL1        0.0283
     27 H           2.6453    0.3529    0.9138 H       1  UNL1        0.0283
     28 H           2.6692    0.3772   -0.8680 H       1  UNL1        0.0283
     29 H           0.4938   -2.4232   -0.0064 H       1  UNL1        0.0626
     30 H          -2.0857   -1.9437   -0.0605 H       1  UNL1        0.0630
     31 H          -4.3110    3.1281   -2.7752 H       1  UNL1        0.1437
     32 H          -5.8927    3.4089   -2.1033 H       1  UNL1        0.1437
     33 H          -7.5372   -0.1989    0.8560 H       1  UNL1        0.0624
     34 H          -9.1375   -0.7049    2.5604 H       1  UNL1        0.0625
     35 H         -10.3685   -1.1039    3.9874 H       1  UNL1        0.1453
     36 H         -10.7631   -1.0694    5.6590 H       1  UNL1        0.1453
     37 H          -6.5443    1.0367    5.5588 H       1  UNL1        0.0625
     38 H          -4.9411    1.6289    3.7857 H       1  UNL1        0.0624
     39 H          -4.1537   -0.6062    2.9820 H       1  UNL1        0.0278
     40 H          -2.5315    0.0110    2.7316 H       1  UNL1        0.0278
     41 H          -3.1599   -1.4165    1.8387 H       1  UNL1        0.0278
@<TRIPOS>BOND
     1     1     2    1
     2     2     3   ar
     3     3     4   ar
     4     4     5   ar
     5     5     6    1
     6     6     7   ar
     7     7     8   ar
     8     8     9    1
     9     8    10   ar
    10    10    11    1
    11    11    12    3
    12    10    13   ar
    13    13    14    1
    14    14    15   ar
    15    15    16   ar
    16    16    17   ar
    17    17    18    1
    18    18    19   am
    19    18    20    2
    20    17    21   ar
    21    21    22   ar
    22    14    22   ar
    23    13    23   ar
    24     6    23   ar
    25    23    24    1
    26     5    25   ar
    27     2    25   ar
    28     1    26    1
    29     1    27    1
    30     1    28    1
    31     3    29    1
    32     4    30    1
    33     9    31    1
    34     9    32    1
    35    15    33    1
    36    16    34    1
    37    19    35    1
    38    19    36    1
    39    21    37    1
    40    22    38    1
    41    24    39    1
    42    24    40    1
    43    24    41    1
