@<TRIPOS>MOLECULE
*****
 54 58 0 0 0
SMALL
GASTEIGER

@<TRIPOS>ATOM
      1 O           1.1272   -0.0993   -0.2112 O.2     1  UNL1       -0.2670
      2 C           2.3642   -0.0548   -0.1061 C.2     1  UNL1        0.2778
      3 N           3.1635    0.3409   -1.1871 N.am    1  UNL1       -0.2317
      4 N           2.5053    0.5307   -2.4079 N.pl3   1  UNL1       -0.2708
      5 C           3.0077    0.8657   -3.6476 C.2     1  UNL1        0.0173
      6 C           2.3047    1.1650   -4.7566 C.2     1  UNL1        0.0172
      7 C           2.8166    1.5126   -6.1203 C.2     1  UNL1        0.0373
      8 N           1.8702    1.7752   -6.9857 N.2     1  UNL1       -0.2543
      9 C           0.6575    1.6228   -6.2656 C.ar    1  UNL1        0.0716
     10 C          -0.6319    1.8073   -6.7483 C.ar    1  UNL1       -0.0357
     11 C          -1.7124    1.6138   -5.8741 C.ar    1  UNL1       -0.0597
     12 C          -1.4976    1.2429   -4.5441 C.ar    1  UNL1       -0.0611
     13 C          -0.2080    1.0619   -4.0669 C.ar    1  UNL1       -0.0519
     14 C           0.8575    1.2516   -4.9263 C.ar    1  UNL1        0.0102
     15 C           3.0462   -0.4340    1.1082 C.ar    1  UNL1        0.1222
     16 C           2.7639   -1.4563    2.0001 C.ar    1  UNL1       -0.0041
     17 C           3.7041   -1.3486    3.0635 C.ar    1  UNL1        0.0932
     18 C           3.7987   -2.2115    4.2470 C.ar    1  UNL1        0.0023
     19 C           3.9390   -3.5996    4.1162 C.ar    1  UNL1       -0.0491
     20 C           3.8226   -4.4368    5.2377 C.ar    1  UNL1       -0.0193
     21 C           3.6587   -3.8966    6.5159 C.ar    1  UNL1        0.1210
     22 O           3.5073   -4.8029    7.5302 O.3     1  UNL1       -0.4873
     23 C           3.2773   -4.2750    8.8482 C.3     1  UNL1        0.1160
     24 C           3.0733   -5.4105    9.8272 C.ar    1  UNL1        0.0079
     25 C           3.8193   -6.5907    9.6619 C.ar    1  UNL1       -0.0540
     26 C           3.5927   -7.7033   10.4700 C.ar    1  UNL1       -0.0613
     27 C           2.7129   -7.6134   11.5427 C.ar    1  UNL1       -0.0604
     28 C           2.0648   -6.4080   11.8063 C.ar    1  UNL1       -0.0430
     29 C           2.2043   -5.3272   10.9276 C.ar    1  UNL1        0.0474
     30 CL          1.2459   -3.9239   11.2437 Cl      1  UNL1       -0.0831
     31 C           3.6531   -2.5112    6.6629 C.ar    1  UNL1       -0.0193
     32 C           3.6753   -1.6767    5.5348 C.ar    1  UNL1       -0.0491
     33 N           4.4968   -0.2837    2.8675 N.ar    1  UNL1       -0.1732
     34 N           4.0794    0.2424    1.6982 N.ar    1  UNL1       -0.2719
     35 H           4.1591    0.1601   -1.2203 H       1  UNL1        0.1731
     36 H           1.4938    0.4757   -2.3054 H       1  UNL1        0.1693
     37 H           4.0932    0.8633   -3.6795 H       1  UNL1        0.0801
     38 H           3.8940    1.5343   -6.3422 H       1  UNL1        0.0836
     39 H          -0.8111    2.0976   -7.7779 H       1  UNL1        0.0639
     40 H          -2.7344    1.7512   -6.2166 H       1  UNL1        0.0618
     41 H          -2.3280    1.0925   -3.8593 H       1  UNL1        0.0618
     42 H          -0.1011    0.7836   -3.0329 H       1  UNL1        0.0624
     43 H           1.9689   -2.1847    1.9096 H       1  UNL1        0.0662
     44 H           4.1302   -4.0447    3.1429 H       1  UNL1        0.0625
     45 H           3.8499   -5.5172    5.1079 H       1  UNL1        0.0654
     46 H           2.3921   -3.6312    8.8192 H       1  UNL1        0.0748
     47 H           4.1556   -3.7055    9.1730 H       1  UNL1        0.0748
     48 H           4.5672   -6.6536    8.8732 H       1  UNL1        0.0622
     49 H           4.1059   -8.6374   10.2574 H       1  UNL1        0.0618
     50 H           2.5360   -8.4793   12.1748 H       1  UNL1        0.0618
     51 H           1.4379   -6.3228   12.6908 H       1  UNL1        0.0632
     52 H           3.6100   -2.0440    7.6408 H       1  UNL1        0.0654
     53 H           3.5679   -0.6038    5.6742 H       1  UNL1        0.0625
     54 H           4.5184    1.1003    1.3825 H       1  UNL1        0.1891
@<TRIPOS>BOND
     1     1     2    2
     2     2     3   am
     3     3     4    1
     4     4     5    1
     5     5     6    2
     6     6     7    1
     7     7     8    2
     8     8     9    1
     9     9    10   ar
    10    10    11   ar
    11    11    12   ar
    12    12    13   ar
    13    13    14   ar
    14     9    14   ar
    15     6    14    1
    16     2    15    1
    17    15    16   ar
    18    16    17   ar
    19    17    18    1
    20    18    19   ar
    21    19    20   ar
    22    20    21   ar
    23    21    22    1
    24    22    23    1
    25    23    24    1
    26    24    25   ar
    27    25    26   ar
    28    26    27   ar
    29    27    28   ar
    30    28    29   ar
    31    24    29   ar
    32    29    30    1
    33    21    31   ar
    34    31    32   ar
    35    18    32   ar
    36    17    33   ar
    37    33    34   ar
    38    15    34   ar
    39     3    35    1
    40     4    36    1
    41     5    37    1
    42     7    38    1
    43    10    39    1
    44    11    40    1
    45    12    41    1
    46    13    42    1
    47    16    43    1
    48    19    44    1
    49    20    45    1
    50    23    46    1
    51    23    47    1
    52    25    48    1
    53    26    49    1
    54    27    50    1
    55    28    51    1
    56    31    52    1
    57    32    53    1
    58    34    54    1
