@<TRIPOS>MOLECULE
*****
 50 50 0 0 0
SMALL
GASTEIGER

@<TRIPOS>ATOM
      1 C           0.9952    0.0461   -0.0758 C.3     1  UNL1       -0.0416
      2 C           2.5128    0.0453   -0.0775 C.3     1  UNL1        0.0449
      3 O           3.0128    0.6429    1.1287 O.3     1  UNL1       -0.3796
      4 C           4.4491    0.6434    1.1303 C.3     1  UNL1        0.0559
      5 C           5.0194    1.2755    2.4064 C.3     1  UNL1        0.0488
      6 C           6.5569    1.2612    2.3756 C.2     1  UNL1        0.2312
      7 O           7.2010    0.7960    1.4353 O.2     1  UNL1       -0.2742
      8 N           7.1849    1.8103    3.4810 N.am    1  UNL1       -0.2351
      9 N           8.6369    1.8672    3.5835 N.am    1  UNL1       -0.2455
     10 C           9.2177    2.4276    4.7361 C.2     1  UNL1        0.1533
     11 S           8.2159    3.0364    5.9518 S.2     1  UNL1       -0.0170
     12 N          10.6330    2.4356    4.7719 N.am    1  UNL1       -0.2627
     13 C          11.4416    2.8960    5.8378 C.2     1  UNL1        0.2495
     14 O          11.0172    3.3828    6.8921 O.2     1  UNL1       -0.2698
     15 C          12.9291    2.8492    5.7528 C.ar    1  UNL1        0.0373
     16 C          13.6877    2.6102    6.9206 C.ar    1  UNL1       -0.0462
     17 C          15.0843    2.7935    6.9382 C.ar    1  UNL1       -0.0192
     18 C          15.7576    3.1344    5.7660 C.ar    1  UNL1        0.1209
     19 O          17.1246    3.2723    5.8574 O.3     1  UNL1       -0.4891
     20 C          17.8486    3.5806    4.6469 C.3     1  UNL1        0.0972
     21 C          17.5714    5.0256    4.2108 C.3     1  UNL1       -0.0278
     22 C          19.3680    3.4274    4.8976 C.3     1  UNL1       -0.0189
     23 C          20.1957    3.7292    3.6473 C.3     1  UNL1       -0.0619
     24 C          14.9963    3.3304    4.6060 C.ar    1  UNL1       -0.0192
     25 C          13.5967    3.2423    4.6026 C.ar    1  UNL1       -0.0462
     26 H           0.6074   -0.4087   -0.9940 H       1  UNL1        0.0252
     27 H           0.6064    1.0664   -0.0016 H       1  UNL1        0.0252
     28 H           0.6064   -0.5131    0.7808 H       1  UNL1        0.0252
     29 H           2.8735    0.6108   -0.9444 H       1  UNL1        0.0557
     30 H           2.8735   -0.9870   -0.1529 H       1  UNL1        0.0557
     31 H           4.7960    1.2032    0.2542 H       1  UNL1        0.0564
     32 H           4.7959   -0.3927    1.0446 H       1  UNL1        0.0564
     33 H           4.6512    0.7263    3.2818 H       1  UNL1        0.0381
     34 H           4.6508    2.3045    2.5000 H       1  UNL1        0.0381
     35 H           6.6737    2.2008    4.2737 H       1  UNL1        0.1728
     36 H           9.1338    1.4620    2.7915 H       1  UNL1        0.1718
     37 H          11.1204    2.0288    3.9841 H       1  UNL1        0.1569
     38 H          13.1867    2.3135    7.8423 H       1  UNL1        0.0626
     39 H          15.6335    2.6850    7.8736 H       1  UNL1        0.0654
     40 H          17.5748    2.8494    3.8741 H       1  UNL1        0.0730
     41 H          17.9036    5.7194    4.9876 H       1  UNL1        0.0265
     42 H          16.5179    5.2522    4.0563 H       1  UNL1        0.0265
     43 H          18.0613    5.2604    3.2645 H       1  UNL1        0.0265
     44 H          19.5977    2.4128    5.2463 H       1  UNL1        0.0298
     45 H          19.6785    4.0968    5.7099 H       1  UNL1        0.0298
     46 H          19.9256    3.0515    2.8310 H       1  UNL1        0.0231
     47 H          21.2654    3.6260    3.8472 H       1  UNL1        0.0231
     48 H          20.0481    4.7549    3.2962 H       1  UNL1        0.0231
     49 H          15.4559    3.6067    3.6656 H       1  UNL1        0.0654
     50 H          13.0611    3.5463    3.7105 H       1  UNL1        0.0626
@<TRIPOS>BOND
     1     1     2    1
     2     2     3    1
     3     3     4    1
     4     4     5    1
     5     5     6    1
     6     6     7    2
     7     6     8   am
     8     8     9    1
     9     9    10    1
    10    10    11    2
    11    10    12    1
    12    12    13   am
    13    13    14    2
    14    13    15    1
    15    15    16   ar
    16    16    17   ar
    17    17    18   ar
    18    18    19    1
    19    19    20    1
    20    20    21    1
    21    20    22    1
    22    22    23    1
    23    18    24   ar
    24    24    25   ar
    25    15    25   ar
    26     1    26    1
    27     1    27    1
    28     1    28    1
    29     2    29    1
    30     2    30    1
    31     4    31    1
    32     4    32    1
    33     5    33    1
    34     5    34    1
    35     8    35    1
    36     9    36    1
    37    12    37    1
    38    16    38    1
    39    17    39    1
    40    20    40    1
    41    21    41    1
    42    21    42    1
    43    21    43    1
    44    22    44    1
    45    22    45    1
    46    23    46    1
    47    23    47    1
    48    23    48    1
    49    24    49    1
    50    25    50    1
