REMARK  6 active torsions:
REMARK  status: ('A' for Active; 'I' for Inactive)
REMARK    1  A    between atoms: C_2  and  N_3 
REMARK    2  A    between atoms: C_14  and  C_2 
REMARK    3  A    between atoms: N_3  and  C_4 
REMARK    4  A    between atoms: C_7  and  C_8 
REMARK       I    between atoms: C_8  and  N_9 
REMARK    5  A    between atoms: C_14  and  C_16 
REMARK    6  A    between atoms: C_14  and  O_15 
ROOT
ATOM      1  N   UNL d   1       2.428  -0.231   2.698  0.00  0.00    -0.366 N 
ATOM      2  H   UNL d   1       3.287  -0.498   3.171  0.00  0.00     0.161 HD
ENDROOT
BRANCH   1   3
ATOM      3  C   UNL d   1       1.654  -1.282   2.235  0.00  0.00     0.145 A 
ATOM      4  N   UNL d   1       0.779  -1.030   1.242  0.00  0.00    -0.241 NA
ATOM      5  C   UNL d   1       0.033  -2.025   0.721  0.00  0.00     0.136 A 
ATOM      6  C   UNL d   1       0.114  -3.330   1.153  0.00  0.00     0.051 A 
ATOM      7  C   UNL d   1       0.999  -3.599   2.204  0.00  0.00     0.046 A 
ATOM      8  C   UNL d   1       1.763  -2.568   2.759  0.00  0.00     0.080 A 
ATOM      9 CL   UNL d   1       2.869  -2.913   4.038  0.00  0.00    -0.080 Cl
BRANCH   6  10
ATOM     10  C   UNL d   1      -0.686  -4.413   0.541  0.00  0.00     0.250 C 
ATOM     11  N   UNL d   1      -1.539  -4.118  -0.486  0.00  0.00    -0.366 N 
ATOM     12  H   UNL d   1      -1.688  -3.211  -0.903  0.00  0.00     0.159 HD
ATOM     13  H   UNL d   1      -2.067  -4.888  -0.880  0.00  0.00     0.159 HD
ATOM     14  O   UNL d   1      -0.583  -5.569   0.948  0.00  0.00    -0.268 OA
ENDBRANCH   6  10
ENDBRANCH   1   3
BRANCH   1  15
ATOM     15  C   UNL d   1       2.413   1.101   2.067  0.00  0.00     0.112 C 
ATOM     16  C   UNL d   1       1.016   1.714   2.121  0.00  0.00     0.035 C 
BRANCH  15  17
ATOM     17  C   UNL d   1       3.051   1.179   0.630  0.00  0.00     0.173 C 
BRANCH  17  18
ATOM     18  C   UNL d   1       4.570   1.175   0.644  0.00  0.00    -0.028 A 
ATOM     19  C   UNL d   1       5.277   2.047   1.486  0.00  0.00     0.011 A 
ATOM     20  C   UNL d   1       6.669   2.020   1.531  0.00  0.00     0.019 A 
ATOM     21  C   UNL d   1       7.369   1.144   0.707  0.00  0.00     0.011 A 
ATOM     22 BR   UNL d   1       9.255   1.107   0.770  0.00  0.00    -0.051 Br
ATOM     23  C   UNL d   1       6.693   0.301  -0.168  0.00  0.00     0.019 A 
ATOM     24  C   UNL d   1       5.302   0.324  -0.204  0.00  0.00     0.011 A 
ENDBRANCH  17  18
BRANCH  17  25
ATOM     25  O   UNL d   1       2.619   0.136  -0.242  0.00  0.00    -0.389 OA
ATOM     26  H   UNL d   1       2.711  -0.677   0.288  0.00  0.00     0.210 HD
ENDBRANCH  17  25
ENDBRANCH  15  17
ENDBRANCH   1  15
TORSDOF 6
