REMARK  6 active torsions:
REMARK  status: ('A' for Active; 'I' for Inactive)
REMARK    1  A    between atoms: C_4  and  C_5 
REMARK    2  A    between atoms: C_5  and  O_6 
REMARK    3  A    between atoms: C_5  and  C_7 
REMARK    4  A    between atoms: N_28  and  C_29 
REMARK    5  A    between atoms: C_29  and  C_30 
REMARK    6  A    between atoms: C_30  and  C_31 
ROOT
ATOM      1  O   UNL d   1       1.071   0.582  -0.119  0.00  0.00    -0.272 OA
ATOM      2  C   UNL d   1       2.027  -0.066   0.275  0.00  0.00     0.233 C 
ATOM      3  C   UNL d   1       2.523  -1.312  -0.373  0.00  0.00     0.131 A 
ATOM      4  C   UNL d   1       3.284  -1.058  -1.664  0.00  0.00     0.269 A 
ATOM      5  N   UNL d   1       4.650  -1.591  -1.474  0.00  0.00     0.116 N 
ATOM      6  C   UNL d   1       4.753  -2.223  -0.158  0.00  0.00     0.279 A 
ATOM      7  C   UNL d   1       5.095  -3.760  -0.388  0.00  0.00     0.267 C 
ATOM      8  O   UNL d   1       4.614  -4.523  -1.212  0.00  0.00    -0.270 OA
ATOM      9  N   UNL d   1       6.109  -4.093   0.505  0.00  0.00    -0.324 N 
ATOM     10  C   UNL d   1       6.632  -2.953   1.096  0.00  0.00     0.044 A 
ATOM     11  C   UNL d   1       7.682  -2.873   1.981  0.00  0.00     0.030 A 
ATOM     12  C   UNL d   1       8.010  -1.603   2.464  0.00  0.00     0.002 A 
ATOM     13  C   UNL d   1       7.314  -0.458   2.037  0.00  0.00     0.001 A 
ATOM     14  C   UNL d   1       6.295  -0.556   1.097  0.00  0.00     0.012 A 
ATOM     15  C   UNL d   1       5.944  -1.819   0.658  0.00  0.00     0.017 A 
ATOM     16  C   UNL d   1       3.444  -1.992   0.608  0.00  0.00     0.147 A 
ATOM     17  C   UNL d   1       3.424  -0.994   1.762  0.00  0.00     0.234 C 
ATOM     18  O   UNL d   1       3.904  -1.207   2.869  0.00  0.00    -0.272 OA
ATOM     19  N   UNL d   1       2.757   0.146   1.396  0.00  0.00    -0.287 N 
ATOM     20  H   UNL d   1       5.394  -0.920  -1.651  0.00  0.00     0.318 HD
ATOM     21  H   UNL d   1       6.507  -5.020   0.565  0.00  0.00     0.169 HD
ENDROOT
BRANCH   4  22
ATOM     22  C   UNL d   1       2.606  -1.707  -2.930  0.00  0.00     0.185 C 
BRANCH  22  23
ATOM     23  O   UNL d   1       2.783  -0.801  -4.032  0.00  0.00    -0.389 OA
ATOM     24  H   UNL d   1       2.408   0.056  -3.765  0.00  0.00     0.210 HD
ENDBRANCH  22  23
BRANCH  22  25
ATOM     25  C   UNL d   1       1.137  -2.113  -2.798  0.00  0.00    -0.028 A 
ATOM     26  C   UNL d   1       0.765  -3.205  -1.976  0.00  0.00     0.011 A 
ATOM     27  C   UNL d   1      -0.576  -3.521  -1.742  0.00  0.00     0.024 A 
ATOM     28  C   UNL d   1      -1.566  -2.818  -2.414  0.00  0.00     0.034 A 
ATOM     29 CL   UNL d   1      -3.209  -3.299  -2.258  0.00  0.00    -0.084 Cl
ATOM     30  C   UNL d   1      -1.228  -1.758  -3.251  0.00  0.00     0.024 A 
ATOM     31  C   UNL d   1       0.113  -1.409  -3.443  0.00  0.00     0.011 A 
ENDBRANCH  22  25
ENDBRANCH   4  22
BRANCH  19  32
ATOM     32  C   UNL d   1       2.593   1.355   2.202  0.00  0.00     0.139 C 
BRANCH  32  33
ATOM     33  C   UNL d   1       1.456   1.299   3.228  0.00  0.00     0.059 C 
BRANCH  33  34
ATOM     34  C   UNL d   1       1.313   2.546   4.087  0.00  0.00    -0.057 A 
ATOM     35  C   UNL d   1       2.368   3.002   4.893  0.00  0.00     0.007 A 
ATOM     36  C   UNL d   1       2.156   4.003   5.848  0.00  0.00     0.001 A 
ATOM     37  C   UNL d   1       0.910   4.614   5.960  0.00  0.00     0.000 A 
ATOM     38  C   UNL d   1      -0.117   4.246   5.095  0.00  0.00     0.001 A 
ATOM     39  C   UNL d   1       0.075   3.202   4.184  0.00  0.00     0.007 A 
ENDBRANCH  33  34
ENDBRANCH  32  33
ENDBRANCH  19  32
TORSDOF 6
