@<TRIPOS>MOLECULE
*****
 47 49 0 0 0
SMALL
GASTEIGER

@<TRIPOS>ATOM
      1 C           1.0531    0.0561   -0.0931 C.3     1  UNL1       -0.0307
      2 C           2.5767    0.0566   -0.1024 C.3     1  UNL1        0.0868
      3 O           3.0503   -1.1905   -0.6271 O.3     1  UNL1       -0.4922
      4 C           4.4050   -1.4024   -0.5728 C.ar    1  UNL1        0.1205
      5 C           4.9718   -2.1459   -1.6080 C.ar    1  UNL1       -0.0192
      6 C           6.3454   -2.5022   -1.5763 C.ar    1  UNL1       -0.0461
      7 C           7.2076   -2.0729   -0.5362 C.ar    1  UNL1        0.0384
      8 C           8.7226   -2.3600   -0.5852 C.2     1  UNL1        0.2601
      9 O           9.1682   -3.0086   -1.5518 O.2     1  UNL1       -0.2687
     10 N           9.5765   -1.8670    0.4289 N.am    1  UNL1       -0.2304
     11 N          11.0825   -2.0968    0.4359 N.am    1  UNL1       -0.2341
     12 C          11.8798   -1.6222    1.5307 C.2     1  UNL1        0.2294
     13 O          11.3175   -0.9484    2.4115 O.2     1  UNL1       -0.2743
     14 C          13.5365   -1.9280    1.6476 C.3     1  UNL1        0.0294
     15 C          14.3190   -1.4681    3.1996 C.3     1  UNL1       -0.0174
     16 C          16.0293   -1.3502    3.7317 C.ar    1  UNL1       -0.0219
     17 C          16.4649   -0.1906    3.0881 C.ar    1  UNL1        0.0059
     18 N          17.6781   -0.7211    2.7111 N.ar    1  UNL1       -0.3604
     19 C          18.3688   -0.6990    3.8823 C.ar    1  UNL1        0.0467
     20 C          19.7193   -0.2601    3.9726 C.ar    1  UNL1       -0.0378
     21 C          20.4071   -0.1279    5.1400 C.ar    1  UNL1       -0.0598
     22 C          19.6602   -0.4565    6.2360 C.ar    1  UNL1       -0.0611
     23 C          18.1943   -0.9920    6.1338 C.ar    1  UNL1       -0.0523
     24 C          17.4185   -1.1228    4.8155 C.ar    1  UNL1        0.0028
     25 C           6.6060   -1.3514    0.5029 C.ar    1  UNL1       -0.0461
     26 C           5.2274   -1.0252    0.4865 C.ar    1  UNL1       -0.0192
     27 H           0.6668    1.0246    0.2429 H       1  UNL1        0.0262
     28 H           0.6691   -0.7175    0.5812 H       1  UNL1        0.0262
     29 H           0.6513   -0.1565   -1.0884 H       1  UNL1        0.0262
     30 H           2.9103    0.2294    0.9248 H       1  UNL1        0.0694
     31 H           2.9330    0.8688   -0.7453 H       1  UNL1        0.0694
     32 H           4.3467   -2.4420   -2.4520 H       1  UNL1        0.0654
     33 H           6.7224   -3.1285   -2.3855 H       1  UNL1        0.0626
     34 H           9.2373   -1.3185    1.2153 H       1  UNL1        0.1731
     35 H          11.4060   -2.6013   -0.3902 H       1  UNL1        0.1728
     36 H          13.9674   -1.3825    0.7855 H       1  UNL1        0.0362
     37 H          13.6498   -3.0006    1.4482 H       1  UNL1        0.0362
     38 H          13.6961   -1.8217    4.0070 H       1  UNL1        0.0318
     39 H          14.1309   -0.3866    3.0626 H       1  UNL1        0.0318
     40 H          16.3795    0.7429    3.6520 H       1  UNL1        0.0810
     41 H          17.8046   -1.5515    2.1705 H       1  UNL1        0.1653
     42 H          20.1588    0.0609    3.0520 H       1  UNL1        0.0638
     43 H          21.4430    0.2499    5.1178 H       1  UNL1        0.0618
     44 H          20.1854   -0.2716    7.1946 H       1  UNL1        0.0618
     45 H          17.8525   -1.1692    7.1530 H       1  UNL1        0.0624
     46 H           7.1754   -1.0314    1.3659 H       1  UNL1        0.0626
     47 H           4.8225   -0.4909    1.3399 H       1  UNL1        0.0654
@<TRIPOS>BOND
     1     1     2    1
     2     2     3    1
     3     3     4    1
     4     4     5   ar
     5     5     6   ar
     6     6     7   ar
     7     7     8    1
     8     8     9    2
     9     8    10   am
    10    10    11    1
    11    11    12   am
    12    12    13    2
    13    12    14    1
    14    14    15    1
    15    15    16    1
    16    16    17   ar
    17    17    18   ar
    18    18    19   ar
    19    19    20   ar
    20    20    21   ar
    21    21    22   ar
    22    22    23   ar
    23    23    24   ar
    24    16    24   ar
    25    19    24   ar
    26     7    25   ar
    27    25    26   ar
    28     4    26   ar
    29     1    27    1
    30     1    28    1
    31     1    29    1
    32     2    30    1
    33     2    31    1
    34     5    32    1
    35     6    33    1
    36    10    34    1
    37    11    35    1
    38    14    36    1
    39    14    37    1
    40    15    38    1
    41    15    39    1
    42    17    40    1
    43    18    41    1
    44    20    42    1
    45    21    43    1
    46    22    44    1
    47    23    45    1
    48    25    46    1
    49    26    47    1
