REMARK  14 active torsions:
REMARK  status: ('A' for Active; 'I' for Inactive)
REMARK    1  A    between atoms: C_2  and  C_3 
REMARK    2  A    between atoms: C_3  and  N_4 
REMARK    3  A    between atoms: C_5  and  S_6 
REMARK    4  A    between atoms: S_6  and  C_7 
REMARK    5  A    between atoms: C_7  and  C_8 
REMARK       I    between atoms: C_8  and  N_10 
REMARK    6  A    between atoms: N_10  and  C_11 
REMARK    7  A    between atoms: C_14  and  S_15 
REMARK    8  A    between atoms: S_15  and  N_18 
REMARK    9  A    between atoms: N_18  and  C_19 
REMARK   10  A    between atoms: C_19  and  C_20 
REMARK   11  A    between atoms: C_20  and  C_21 
REMARK   12  A    between atoms: C_21  and  C_22 
REMARK   13  A    between atoms: C_22  and  C_23 
REMARK   14  A    between atoms: C_29  and  C_30 
ROOT
ATOM      1  C   UNL d   1       4.315   6.004   0.434  0.00  0.00     0.231 C 
ATOM      2  O   UNL d   1       5.397   6.581   0.339  0.00  0.00    -0.272 OA
ATOM      3  N   UNL d   1       3.101   6.705   0.565  0.00  0.00    -0.327 N 
ATOM      4  H   UNL d   1       2.275   6.210   0.875  0.00  0.00     0.169 HD
ENDROOT
BRANCH   3   5
ATOM      5  C   UNL d   1       3.033   8.133   0.561  0.00  0.00     0.034 A 
ATOM      6  C   UNL d   1       2.200   8.822   1.454  0.00  0.00     0.031 A 
ATOM      7  C   UNL d   1       2.159  10.233   1.452  0.00  0.00     0.027 A 
ATOM      8  C   UNL d   1       2.967  10.966   0.569  0.00  0.00     0.074 A 
ATOM      9  C   UNL d   1       3.752  10.291  -0.360  0.00  0.00     0.027 A 
ATOM     10  C   UNL d   1       3.779   8.885  -0.357  0.00  0.00     0.031 A 
BRANCH   8  11
ATOM     11  S   UNL d   1       3.022  12.739   0.747  0.00  0.00     0.241 S 
ATOM     12  O   UNL d   1       1.718  13.245   0.357  0.00  0.00    -0.206 OA
ATOM     13  O   UNL d   1       3.592  13.025   2.040  0.00  0.00    -0.206 OA
BRANCH  11  14
ATOM     14  N   UNL d   1       4.114  13.325  -0.436  0.00  0.00    -0.216 NA
ATOM     15  H   UNL d   1       3.780  13.069  -1.365  0.00  0.00     0.139 HD
BRANCH  14  16
ATOM     16  C   UNL d   1       4.286  14.805  -0.338  0.00  0.00     0.104 C 
BRANCH  16  17
ATOM     17  C   UNL d   1       5.269  15.312  -1.389  0.00  0.00     0.015 C 
BRANCH  17  18
ATOM     18  C   UNL d   1       5.388  16.836  -1.301  0.00  0.00     0.001 C 
BRANCH  18  19
ATOM     19  C   UNL d   1       6.363  17.379  -2.340  0.00  0.00    -0.000 C 
BRANCH  19  20
ATOM     20  C   UNL d   1       6.475  18.898  -2.242  0.00  0.00    -0.005 C 
ATOM     21  C   UNL d   1       7.448  19.430  -3.278  0.00  0.00     0.005 C 
ENDBRANCH  19  20
ENDBRANCH  18  19
ENDBRANCH  17  18
ENDBRANCH  16  17
ENDBRANCH  14  16
ENDBRANCH  11  14
ENDBRANCH   8  11
ENDBRANCH   3   5
BRANCH   1  22
ATOM     22  C   UNL d   1       4.188   4.451   0.452  0.00  0.00     0.185 C 
BRANCH  22  23
ATOM     23  S   UNL d   1       5.790   3.628   0.338  0.00  0.00    -0.081 SA
BRANCH  23  24
ATOM     24  C   UNL d   1       5.724   1.886   0.334  0.00  0.00     0.192 A 
ATOM     25  N   UNL d   1       4.684   0.959   0.380  0.00  0.00    -0.304 N 
ATOM     26  C   UNL d   1       5.322  -0.298   0.353  0.00  0.00     0.164 A 
ATOM     27  N   UNL d   1       6.624  -0.103   0.315  0.00  0.00    -0.128 NA
ATOM     28  N   UNL d   1       6.867   1.234   0.283  0.00  0.00    -0.122 NA
BRANCH  25  29
ATOM     29  C   UNL d   1       3.254   1.271   0.558  0.00  0.00     0.159 C 
BRANCH  29  30
ATOM     30  C   UNL d   1       2.245   0.228   0.194  0.00  0.00    -0.017 C 
ATOM     31  C   UNL d   1       0.913   0.210   0.113  0.00  0.00     0.008 C 
ENDBRANCH  29  30
ENDBRANCH  25  29
BRANCH  26  32
ATOM     32  C   UNL d   1       4.748  -1.658   0.344  0.00  0.00     0.012 C 
ATOM     33  C   UNL d   1       4.949  -2.538   1.415  0.00  0.00     0.015 C 
ATOM     34  C   UNL d   1       4.364  -3.812   1.403  0.00  0.00     0.001 C 
ATOM     35  C   UNL d   1       3.452  -4.159   0.406  0.00  0.00     0.000 C 
ATOM     36  C   UNL d   1       3.248  -3.297  -0.663  0.00  0.00     0.001 C 
ATOM     37  C   UNL d   1       3.999  -2.121  -0.753  0.00  0.00     0.015 C 
ENDBRANCH  26  32
ENDBRANCH  23  24
ENDBRANCH  22  23
ENDBRANCH   1  22
TORSDOF 14
