REMARK  12 active torsions:
REMARK  status: ('A' for Active; 'I' for Inactive)
REMARK    1  A    between atoms: C_2  and  C_3 
REMARK    2  A    between atoms: C_3  and  C_4 
REMARK    3  A    between atoms: C_4  and  O_5 
REMARK    4  A    between atoms: O_5  and  C_6 
REMARK    5  A    between atoms: C_11  and  C_12 
REMARK       I    between atoms: C_12  and  N_14 
REMARK    6  A    between atoms: N_14  and  C_15 
REMARK    7  A    between atoms: C_15  and  N_17 
REMARK    8  A    between atoms: N_17  and  N_18 
REMARK       I    between atoms: N_18  and  C_19 
REMARK    9  A    between atoms: C_19  and  C_21 
REMARK   10  A    between atoms: C_24  and  N_25 
REMARK       I    between atoms: N_25  and  C_26 
REMARK   11  A    between atoms: C_26  and  C_28 
REMARK   12  A    between atoms: C_28  and  C_29 
ROOT
ATOM      1  N   UNL d   1       3.267  -2.389  -1.249  0.00  0.00    -0.273 N 
ATOM      2  H   UNL d   1       2.634  -1.613  -1.430  0.00  0.00     0.189 HD
ENDROOT
BRANCH   1   3
ATOM      3  C   UNL d   1       4.671  -2.366  -1.412  0.00  0.00     0.193 C 
ATOM      4  S   UNL d   1       5.585  -3.672  -0.858  0.00  0.00    -0.039 SA
BRANCH   3   5
ATOM      5  N   UNL d   1       5.214  -1.214  -2.044  0.00  0.00    -0.298 N 
ATOM      6  C   UNL d   1       6.585  -0.823  -2.051  0.00  0.00     0.260 C 
ATOM      7  O   UNL d   1       7.506  -1.623  -1.886  0.00  0.00    -0.267 OA
ATOM      8  H   UNL d   1       4.569  -0.506  -2.368  0.00  0.00     0.171 HD
BRANCH   6   9
ATOM      9  C   UNL d   1       7.029   0.607  -2.295  0.00  0.00     0.065 A 
ATOM     10  C   UNL d   1       8.406   0.791  -2.605  0.00  0.00     0.020 A 
ATOM     11  C   UNL d   1       8.957   2.043  -2.916  0.00  0.00     0.001 A 
ATOM     12  C   UNL d   1       8.137   3.158  -2.927  0.00  0.00     0.003 A 
ATOM     13  C   UNL d   1       6.801   3.022  -2.536  0.00  0.00     0.038 A 
ATOM     14  C   UNL d   1       6.246   1.760  -2.206  0.00  0.00     0.084 A 
BRANCH  14  15
ATOM     15  O   UNL d   1       4.907   1.770  -1.951  0.00  0.00    -0.350 OA
BRANCH  15  16
ATOM     16  C   UNL d   1       4.489   1.234  -0.692  0.00  0.00     0.175 C 
BRANCH  16  17
ATOM     17  C   UNL d   1       2.987   1.027  -0.846  0.00  0.00     0.026 C 
BRANCH  17  18
ATOM     18  C   UNL d   1       2.413   0.234   0.315  0.00  0.00    -0.002 C 
ATOM     19  C   UNL d   1       0.913   0.098   0.156  0.00  0.00     0.005 C 
ENDBRANCH  17  18
ENDBRANCH  16  17
ENDBRANCH  15  16
ENDBRANCH  14  15
ENDBRANCH   6   9
ENDBRANCH   3   5
ENDBRANCH   1   3
BRANCH   1  20
ATOM     20  N   UNL d   1       2.662  -3.463  -0.461  0.00  0.00    -0.264 N 
ATOM     21  C   UNL d   1       1.301  -3.534  -0.190  0.00  0.00     0.270 C 
ATOM     22  O   UNL d   1       0.500  -2.611  -0.379  0.00  0.00    -0.266 OA
ATOM     23  H   UNL d   1       3.265  -4.279  -0.350  0.00  0.00     0.190 HD
BRANCH  21  24
ATOM     24  C   UNL d   1       0.756  -4.810   0.356  0.00  0.00     0.033 A 
ATOM     25  C   UNL d   1      -0.547  -5.249   0.043  0.00  0.00     0.019 A 
ATOM     26  C   UNL d   1      -1.101  -6.407   0.645  0.00  0.00     0.030 A 
ATOM     27  C   UNL d   1      -0.331  -7.174   1.528  0.00  0.00     0.034 A 
ATOM     28  C   UNL d   1       0.944  -6.686   1.847  0.00  0.00     0.030 A 
ATOM     29  C   UNL d   1       1.490  -5.535   1.277  0.00  0.00     0.019 A 
BRANCH  27  30
ATOM     30  N   UNL d   1      -0.816  -8.414   2.054  0.00  0.00    -0.327 N 
ATOM     31  C   UNL d   1      -0.051  -9.260   2.853  0.00  0.00     0.222 C 
ATOM     32  O   UNL d   1       1.095  -9.021   3.230  0.00  0.00    -0.273 OA
ATOM     33  H   UNL d   1      -1.734  -8.724   1.754  0.00  0.00     0.169 HD
BRANCH  31  34
ATOM     34  C   UNL d   1      -0.679 -10.577   3.275  0.00  0.00     0.103 C 
BRANCH  34  35
ATOM     35  C   UNL d   1       0.332 -11.321   4.175  0.00  0.00     0.005 C 
ATOM     36  C   UNL d   1      -0.180 -12.654   4.670  0.00  0.00     0.005 C 
ENDBRANCH  34  35
ENDBRANCH  31  34
ENDBRANCH  27  30
ENDBRANCH  21  24
ENDBRANCH   1  20
TORSDOF 12
