REMARK  7 active torsions:
REMARK  status: ('A' for Active; 'I' for Inactive)
REMARK    1  A    between atoms: N_2  and  C_4 
REMARK    2  A    between atoms: C_7  and  N_8 
REMARK    3  A    between atoms: N_11  and  C_12 
REMARK    4  A    between atoms: C_12  and  C_13 
REMARK    5  A    between atoms: C_13  and  O_14 
REMARK    6  A    between atoms: C_18  and  S_19 
REMARK    7  A    between atoms: S_19  and  C_20 
ROOT
ATOM      1  C   UNL d   1       3.163   0.863   0.976  0.00  0.00     0.120 A 
ATOM      2  C   UNL d   1       4.362   1.548   0.783  0.00  0.00     0.039 A 
ATOM      3  C   UNL d   1       5.066   2.021   1.870  0.00  0.00     0.032 A 
ATOM      4  C   UNL d   1       4.553   1.891   3.162  0.00  0.00     0.031 A 
ATOM      5  C   UNL d   1       3.307   1.179   3.316  0.00  0.00     0.051 A 
ATOM      6  C   UNL d   1       2.560   0.629   2.197  0.00  0.00     0.043 A 
ENDROOT
BRANCH   4   7
ATOM      7  N   UNL d   1       5.288   2.478   4.179  0.00  0.00    -0.378 N 
ATOM      8  C   UNL d   1       5.745   1.775   5.372  0.00  0.00     0.150 C 
ATOM      9  C   UNL d   1       4.975   2.306   6.598  0.00  0.00     0.254 C 
ATOM     10  N   UNL d   1       5.087   3.858   6.721  0.00  0.00    -0.066 N 
ATOM     11  C   UNL d   1       4.763   4.555   5.374  0.00  0.00     0.254 C 
ATOM     12  H   UNL d   1       6.067   4.066   6.958  0.00  0.00     0.280 HD
ATOM     13  C   UNL d   1       5.554   3.927   4.202  0.00  0.00     0.150 C 
BRANCH  10  14
ATOM     14  C   UNL d   1       4.226   4.366   7.869  0.00  0.00     0.260 C 
BRANCH  14  15
ATOM     15  C   UNL d   1       4.404   5.865   8.153  0.00  0.00     0.192 C 
BRANCH  15  16
ATOM     16  O   UNL d   1       3.547   6.272   9.210  0.00  0.00    -0.399 OA
ATOM     17  H   UNL d   1       2.616   6.227   8.923  0.00  0.00     0.209 HD
ENDBRANCH  15  16
ENDBRANCH  14  15
ENDBRANCH  10  14
ENDBRANCH   4   7
BRANCH   6  18
ATOM     18  S   UNL d   1       1.003  -0.270   2.430  0.00  0.00    -0.050 SA
BRANCH  18  19
ATOM     19  C   UNL d   1      -0.026  -0.774   1.045  0.00  0.00     0.172 C 
ATOM     20  N   UNL d   1      -1.327  -0.820   1.240  0.00  0.00    -0.222 NA
ATOM     21  C   UNL d   1      -1.898  -1.215   0.056  0.00  0.00     0.086 C 
ATOM     22  C   UNL d   1      -3.238  -1.141  -0.331  0.00  0.00     0.034 C 
ATOM     23  C   UNL d   1      -0.962  -1.686  -0.847  0.00  0.00     0.063 C 
ATOM     24  C   UNL d   1      -3.644  -1.678  -1.554  0.00  0.00     0.002 C 
ATOM     25  C   UNL d   1      -2.715  -2.280  -2.401  0.00  0.00     0.002 C 
ATOM     26  C   UNL d   1      -1.338  -2.287  -2.079  0.00  0.00     0.032 C 
ATOM     27  N   UNL d   1       0.221  -1.179  -0.282  0.00  0.00    -0.333 N 
ATOM     28  H   UNL d   1       0.794  -0.632  -0.902  0.00  0.00     0.168 HD
ENDBRANCH  18  19
ENDBRANCH   6  18
BRANCH   1  29
ATOM     29  N   UNL d   1       2.548   0.471  -0.229  0.00  0.00    -0.114 N 
ATOM     30  O   UNL d   1       1.572   1.162  -0.592  0.00  0.00    -0.532 OA
ATOM     31  O   UNL d   1       2.985  -0.516  -0.803  0.00  0.00    -0.532 OA
ENDBRANCH   1  29
TORSDOF 7
