REMARK  15 active torsions:
REMARK  status: ('A' for Active; 'I' for Inactive)
REMARK    1  A    between atoms: C_2  and  C_26 
REMARK    2  A    between atoms: N_3  and  C_4 
REMARK    3  A    between atoms: C_4  and  C_5 
REMARK    4  A    between atoms: C_5  and  C_6 
REMARK    5  A    between atoms: C_6  and  C_7 
REMARK    6  A    between atoms: C_7  and  C_8 
REMARK    7  A    between atoms: C_8  and  C_9 
REMARK    8  A    between atoms: C_9  and  C_10 
REMARK    9  A    between atoms: C_10  and  C_11 
REMARK   10  A    between atoms: C_11  and  C_12 
REMARK   11  A    between atoms: C_12  and  C_13 
REMARK   12  A    between atoms: C_13  and  C_14 
REMARK   13  A    between atoms: C_14  and  C_15 
REMARK   14  A    between atoms: C_15  and  N_16 
REMARK   15  A    between atoms: C_17  and  C_19 
ROOT
ATOM      1  C   UNL d   1       3.907  -8.110   2.426  0.00  0.00     0.000 C 
ENDROOT
BRANCH   1   2
ATOM      2  C   UNL d   1       2.927  -6.995   2.104  0.00  0.00     0.000 C 
BRANCH   2   3
ATOM      3  C   UNL d   1       3.683  -5.728   1.739  0.00  0.00     0.000 C 
BRANCH   3   4
ATOM      4  C   UNL d   1       2.707  -4.609   1.417  0.00  0.00     0.002 C 
BRANCH   4   5
ATOM      5  C   UNL d   1       3.458  -3.336   1.048  0.00  0.00     0.022 C 
BRANCH   5   6
ATOM      6  C   UNL d   1       2.466  -2.232   0.724  0.00  0.00     0.148 C 
BRANCH   6   7
ATOM      7  N   UNL d   1       3.202  -1.029   0.361  0.00  0.00    -0.297 NA
ATOM      8  C   UNL d   1       2.544   0.045   0.066  0.00  0.00     0.026 C 
ATOM      9  C   UNL d   1       1.028   0.136   0.057  0.00  0.00     0.067 C 
BRANCH   8  10
ATOM     10  C   UNL d   1       3.377   1.270  -0.267  0.00  0.00     0.193 C 
ATOM     11  S   UNL d   1       3.005   1.976  -1.902  0.00  0.00    -0.080 SA
ATOM     12  C   UNL d   1       3.118   3.616  -1.317  0.00  0.00     0.142 C 
ATOM     13  S   UNL d   1       3.069   4.993  -2.234  0.00  0.00    -0.052 SA
ATOM     14  N   UNL d   1       3.224   3.624   0.036  0.00  0.00    -0.311 N 
ATOM     15  C   UNL d   1       3.280   2.425   0.700  0.00  0.00     0.243 C 
ATOM     16  H   UNL d   1       3.229   4.489   0.558  0.00  0.00     0.170 HD
ATOM     17  O   UNL d   1       3.293   2.346   1.915  0.00  0.00    -0.271 OA
ENDBRANCH   8  10
ENDBRANCH   6   7
ENDBRANCH   5   6
ENDBRANCH   4   5
ENDBRANCH   3   4
ENDBRANCH   2   3
ENDBRANCH   1   2
BRANCH   1  18
ATOM     18  C   UNL d   1       3.153  -9.376   2.791  0.00  0.00     0.000 C 
BRANCH  18  19
ATOM     19  C   UNL d   1       4.133 -10.491   3.112  0.00  0.00     0.000 C 
BRANCH  19  20
ATOM     20  C   UNL d   1       3.376 -11.758   3.477  0.00  0.00     0.000 C 
BRANCH  20  21
ATOM     21  C   UNL d   1       4.355 -12.872   3.799  0.00  0.00     0.002 C 
BRANCH  21  22
ATOM     22  C   UNL d   1       3.618 -14.149   4.175  0.00  0.00     0.022 C 
BRANCH  22  23
ATOM     23  C   UNL d   1       4.634 -15.233   4.505  0.00  0.00     0.148 C 
BRANCH  23  24
ATOM     24  N   UNL d   1       3.925 -16.435   4.892  0.00  0.00    -0.297 NA
ATOM     25  C   UNL d   1       4.556 -17.538   5.130  0.00  0.00     0.026 C 
ATOM     26  C   UNL d   1       6.065 -17.635   5.159  0.00  0.00     0.067 C 
BRANCH  25  27
ATOM     27  C   UNL d   1       3.701 -18.753   5.499  0.00  0.00     0.193 A 
ATOM     28  S   UNL d   1       2.177 -18.727   4.453  0.00  0.00    -0.080 SA
ATOM     29  C   UNL d   1       2.459 -20.299   3.793  0.00  0.00     0.142 A 
ATOM     30  S   UNL d   1       1.563 -21.022   2.605  0.00  0.00    -0.052 SA
ATOM     31  N   UNL d   1       3.516 -20.884   4.410  0.00  0.00    -0.311 N 
ATOM     32  C   UNL d   1       4.240 -20.156   5.321  0.00  0.00     0.243 A 
ATOM     33  H   UNL d   1       3.735 -21.855   4.239  0.00  0.00     0.170 HD
ATOM     34  O   UNL d   1       5.174 -20.638   5.949  0.00  0.00    -0.271 OA
ENDBRANCH  25  27
ENDBRANCH  23  24
ENDBRANCH  22  23
ENDBRANCH  21  22
ENDBRANCH  20  21
ENDBRANCH  19  20
ENDBRANCH  18  19
ENDBRANCH   1  18
TORSDOF 15
