@<TRIPOS>MOLECULE
*****
 61 64 0 0 0
SMALL
GASTEIGER

@<TRIPOS>ATOM
      1 C           1.2430   -0.6283    0.0316 C.3     1  UNL1        0.0790
      2 O           2.6014   -0.1837   -0.0378 O.3     1  UNL1       -0.4915
      3 C           3.0436    0.5655   -1.1078 C.ar    1  UNL1        0.1616
      4 C           4.1681    0.0095   -1.7593 C.ar    1  UNL1       -0.0144
      5 C           4.8929    0.7238   -2.7347 C.ar    1  UNL1       -0.0314
      6 C           4.4665    1.9953   -3.1280 C.ar    1  UNL1        0.1122
      7 S           5.2691    2.7754   -4.5153 S.O2    1  UNL1        0.0725
      8 O           6.6246    3.0582   -4.1329 O.2     1  UNL1       -0.1500
      9 O           4.9771    1.8875   -5.6378 O.2     1  UNL1       -0.1500
     10 N           4.5052    4.2668   -4.8150 N.pl3   1  UNL1       -0.2163
     11 C           4.8963    5.0445   -5.9540 C.ar    1  UNL1        0.0482
     12 C           5.0606    6.4325   -5.8860 C.ar    1  UNL1       -0.0376
     13 C           5.4344    7.1764   -7.0407 C.ar    1  UNL1       -0.0387
     14 C           5.7307    6.5330   -8.2557 C.ar    1  UNL1        0.0325
     15 N           6.2087    7.2431   -9.4004 N.pl3   1  UNL1       -0.2991
     16 C           6.6032    6.6604  -10.6480 C.ar    1  UNL1        0.1367
     17 C           5.5964    5.9870  -11.3185 C.ar    1  UNL1        0.0452
     18 C           5.8635    5.4188  -12.5463 C.ar    1  UNL1        0.1853
     19 C           4.7820    4.6936  -13.2817 C.3     1  UNL1        0.0209
     20 N           7.0939    5.5368  -13.0626 N.ar    1  UNL1       -0.1783
     21 C           8.0856    6.1703  -12.4116 C.ar    1  UNL1        0.3768
     22 N           9.3092    6.0928  -13.0419 N.pl3   1  UNL1       -0.2608
     23 C          10.5445    5.6917  -12.3662 C.3     1  UNL1        0.0189
     24 C          11.5813    6.7216  -12.8062 C.3     1  UNL1       -0.0356
     25 C          11.1735    7.0311  -14.2373 C.3     1  UNL1       -0.0356
     26 C           9.6418    6.8650  -14.2513 C.3     1  UNL1        0.0189
     27 N           7.8574    6.7555  -11.1847 N.ar    1  UNL1       -0.1564
     28 C           5.4670    5.1607   -8.3054 C.ar    1  UNL1       -0.0387
     29 C           5.0343    4.4406   -7.1925 C.ar    1  UNL1       -0.0376
     30 C           3.3765    2.5626   -2.4868 C.ar    1  UNL1        0.0103
     31 C           2.6797    1.8831   -1.4629 C.ar    1  UNL1        0.1633
     32 O           1.7493    2.7472   -0.9354 O.3     1  UNL1       -0.4914
     33 C           0.8440    2.1854   -0.0292 C.3     1  UNL1        0.0790
     34 H           1.1655   -1.4910    0.6990 H       1  UNL1        0.0660
     35 H           0.8064   -0.8429   -0.9465 H       1  UNL1        0.0660
     36 H           0.6087    0.0595    0.5871 H       1  UNL1        0.0660
     37 H           4.5047   -0.9946   -1.4975 H       1  UNL1        0.0656
     38 H           5.7861    0.2823   -3.1785 H       1  UNL1        0.0638
     39 H           3.6924    4.5595   -4.2850 H       1  UNL1        0.1737
     40 H           4.9473    6.9543   -4.9363 H       1  UNL1        0.0637
     41 H           5.5139    8.2594   -6.9527 H       1  UNL1        0.0637
     42 H           6.7391    8.0748   -9.1612 H       1  UNL1        0.1536
     43 H           4.6007    5.9289  -10.8840 H       1  UNL1        0.0714
     44 H           3.8485    4.6965  -12.7028 H       1  UNL1        0.0336
     45 H           5.0592    3.6501  -13.4489 H       1  UNL1        0.0336
     46 H           4.5787    5.1879  -14.2340 H       1  UNL1        0.0336
     47 H           7.3468    5.1093  -13.9453 H       1  UNL1        0.4561
     48 H          10.8347    4.7160  -12.7824 H       1  UNL1        0.0466
     49 H          10.4790    5.5923  -11.2811 H       1  UNL1        0.0466
     50 H          12.6083    6.3419  -12.7445 H       1  UNL1        0.0281
     51 H          11.5167    7.6235  -12.1885 H       1  UNL1        0.0281
     52 H          11.6464    6.3194  -14.9272 H       1  UNL1        0.0281
     53 H          11.4931    8.0323  -14.5497 H       1  UNL1        0.0281
     54 H           9.3554    6.2941  -15.1424 H       1  UNL1        0.0466
     55 H           9.1510    7.8424  -14.2843 H       1  UNL1        0.0466
     56 H           5.6210    4.5754   -9.2014 H       1  UNL1        0.0637
     57 H           4.8383    3.3841   -7.3315 H       1  UNL1        0.0637
     58 H           3.0356    3.5603   -2.7295 H       1  UNL1        0.0675
     59 H           0.1303    2.9001    0.3803 H       1  UNL1        0.0660
     60 H           1.4068    1.8029    0.8284 H       1  UNL1        0.0660
     61 H           0.2343    1.4759   -0.5971 H       1  UNL1        0.0660
@<TRIPOS>UNITY_ATOM_ATTR
20 1
charge 1
@<TRIPOS>BOND
     1     1     2    1
     2     2     3    1
     3     3     4   ar
     4     4     5   ar
     5     5     6   ar
     6     6     7    1
     7     7     8    2
     8     7     9    2
     9     7    10    1
    10    10    11    1
    11    11    12   ar
    12    12    13   ar
    13    13    14   ar
    14    14    15    1
    15    15    16    1
    16    16    17   ar
    17    17    18   ar
    18    18    19    1
    19    18    20   ar
    20    20    21   ar
    21    21    22    1
    22    22    23    1
    23    23    24    1
    24    24    25    1
    25    25    26    1
    26    22    26    1
    27    21    27   ar
    28    16    27   ar
    29    14    28   ar
    30    28    29   ar
    31    11    29   ar
    32     6    30   ar
    33    30    31   ar
    34     3    31   ar
    35    31    32    1
    36    32    33    1
    37     1    34    1
    38     1    35    1
    39     1    36    1
    40     4    37    1
    41     5    38    1
    42    10    39    1
    43    12    40    1
    44    13    41    1
    45    15    42    1
    46    17    43    1
    47    19    44    1
    48    19    45    1
    49    19    46    1
    50    20    47    1
    51    23    48    1
    52    23    49    1
    53    24    50    1
    54    24    51    1
    55    25    52    1
    56    25    53    1
    57    26    54    1
    58    26    55    1
    59    28    56    1
    60    29    57    1
    61    30    58    1
    62    33    59    1
    63    33    60    1
    64    33    61    1
