@<TRIPOS>MOLECULE
*****
 47 47 0 0 0
SMALL
GASTEIGER

@<TRIPOS>ATOM
      1 C           1.0779    0.0035   -0.0391 C.3     1  UNL1       -0.0652
      2 C           2.6112    0.0759   -0.1611 C.3     1  UNL1       -0.0545
      3 C           3.1826   -0.6358    1.0430 C.3     1  UNL1       -0.0373
      4 C           4.6702   -0.7827    1.2998 C.3     1  UNL1        0.0162
      5 N           5.0944   -1.5290    2.5402 N.am    1  UNL1       -0.2832
      6 C           4.1583   -2.0984    3.5448 C.3     1  UNL1        0.0393
      7 C           2.6375   -1.9869    3.3848 C.3     1  UNL1        0.0600
      8 O           1.9146   -2.6229    4.4268 O.3     1  UNL1       -0.3935
      9 C           6.5010   -1.6200    2.6895 C.2     1  UNL1        0.3065
     10 O           7.2422   -1.1062    1.8567 O.2     1  UNL1       -0.2523
     11 N           6.9787   -2.3471    3.7821 N.am    1  UNL1       -0.2693
     12 C           8.3655   -2.4560    4.0967 C.ar    1  UNL1        0.0349
     13 C           8.9346   -3.6185    4.6437 C.ar    1  UNL1       -0.0387
     14 C          10.3184   -3.6707    4.9903 C.ar    1  UNL1       -0.0387
     15 C          11.1516   -2.5621    4.7773 C.ar    1  UNL1        0.0335
     16 N          12.5647   -2.6186    5.0159 N.am    1  UNL1       -0.2855
     17 C          13.4367   -1.5629    4.7347 C.2     1  UNL1        0.2169
     18 O          13.1004   -0.4689    4.3010 O.2     1  UNL1       -0.2755
     19 C          14.9187   -1.8032    4.9859 C.3     1  UNL1        0.0215
     20 C          15.6818   -0.5130    4.6464 C.3     1  UNL1       -0.0570
     21 C          10.5391   -1.4089    4.2871 C.ar    1  UNL1       -0.0387
     22 C           9.1911   -1.3573    3.9356 C.ar    1  UNL1       -0.0387
     23 H           0.5954    0.5009   -0.8814 H       1  UNL1        0.0230
     24 H           0.7266    0.4785    0.8870 H       1  UNL1        0.0230
     25 H           0.7268   -1.0370   -0.0081 H       1  UNL1        0.0230
     26 H           2.9349    1.1191   -0.1708 H       1  UNL1        0.0263
     27 H           2.9351   -0.4191   -1.0795 H       1  UNL1        0.0263
     28 H           2.7832   -1.6433    0.9433 H       1  UNL1        0.0280
     29 H           2.7767   -0.0683    1.8780 H       1  UNL1        0.0280
     30 H           5.1244    0.2146    1.3470 H       1  UNL1        0.0465
     31 H           5.1249   -1.3019    0.4468 H       1  UNL1        0.0465
     32 H           4.4223   -1.6619    4.5156 H       1  UNL1        0.0487
     33 H           4.3937   -3.1668    3.6204 H       1  UNL1        0.0487
     34 H           2.3092   -2.4839    2.4724 H       1  UNL1        0.0573
     35 H           2.3241   -0.9442    3.4160 H       1  UNL1        0.0573
     36 H           1.7961   -3.5460    4.1470 H       1  UNL1        0.2095
     37 H           6.3508   -2.9114    4.3265 H       1  UNL1        0.1564
     38 H           8.3400   -4.5245    4.7407 H       1  UNL1        0.0637
     39 H          10.7131   -4.5914    5.4165 H       1  UNL1        0.0637
     40 H          12.9522   -3.5003    5.3285 H       1  UNL1        0.1548
     41 H          15.2801   -2.6160    4.3490 H       1  UNL1        0.0356
     42 H          15.0846   -2.0587    6.0361 H       1  UNL1        0.0356
     43 H          15.5243   -0.2303    3.5969 H       1  UNL1        0.0234
     44 H          16.7565   -0.6136    4.8111 H       1  UNL1        0.0234
     45 H          15.3207    0.3247    5.2576 H       1  UNL1        0.0234
     46 H          11.0690   -0.4780    4.1465 H       1  UNL1        0.0637
     47 H           8.8101   -0.4120    3.5613 H       1  UNL1        0.0637
@<TRIPOS>BOND
     1     1     2    1
     2     2     3    1
     3     3     4    1
     4     4     5    1
     5     5     6    1
     6     6     7    1
     7     7     8    1
     8     5     9   am
     9     9    10    2
    10     9    11   am
    11    11    12    1
    12    12    13   ar
    13    13    14   ar
    14    14    15   ar
    15    15    16    1
    16    16    17   am
    17    17    18    2
    18    17    19    1
    19    19    20    1
    20    15    21   ar
    21    21    22   ar
    22    12    22   ar
    23     1    23    1
    24     1    24    1
    25     1    25    1
    26     2    26    1
    27     2    27    1
    28     3    28    1
    29     3    29    1
    30     4    30    1
    31     4    31    1
    32     6    32    1
    33     6    33    1
    34     7    34    1
    35     7    35    1
    36     8    36    1
    37    11    37    1
    38    13    38    1
    39    14    39    1
    40    16    40    1
    41    19    41    1
    42    19    42    1
    43    20    43    1
    44    20    44    1
    45    20    45    1
    46    21    46    1
    47    22    47    1
