@<TRIPOS>MOLECULE
*****
 63 66 0 0 0
SMALL
GASTEIGER

@<TRIPOS>ATOM
      1 C           1.8744    1.4795   -0.0150 C.3     1  UNL1       -0.0395
      2 C           0.5987    0.6836   -0.0018 C.ar    1  UNL1       -0.0474
      3 C          -0.6056    1.3741    0.0164 C.ar    1  UNL1       -0.0568
      4 C          -1.8178    0.6879    0.0100 C.ar    1  UNL1       -0.0402
      5 C          -1.9000   -0.7092   -0.0111 C.ar    1  UNL1        0.0350
      6 N          -3.1666   -1.3964   -0.0354 N.am    1  UNL1       -0.2692
      7 C          -4.3881   -0.7588    0.1829 C.2     1  UNL1        0.3082
      8 O          -4.4751    0.4055    0.5841 O.2     1  UNL1       -0.2522
      9 N          -5.5308   -1.5055   -0.0904 N.am    1  UNL1       -0.2675
     10 C          -6.8081   -0.8363   -0.1963 C.ar    1  UNL1        0.0576
     11 C          -7.9551   -1.3233    0.4914 C.ar    1  UNL1       -0.0174
     12 C          -9.2210   -0.7084    0.3169 C.ar    1  UNL1        0.0355
     13 N         -10.4191   -1.2877    0.8283 N.am    1  UNL1       -0.2814
     14 C         -11.7127   -0.8445    0.5432 C.2     1  UNL1        0.2497
     15 O         -12.0293    0.1034   -0.1833 O.2     1  UNL1       -0.2698
     16 C         -12.8668   -1.5584    1.1337 C.ar    1  UNL1        0.0553
     17 C         -14.0403   -1.6465    0.3487 C.ar    1  UNL1       -0.0482
     18 C         -15.2398   -2.0931    0.9047 C.ar    1  UNL1       -0.0610
     19 C         -15.2641   -2.5147    2.2295 C.ar    1  UNL1       -0.0603
     20 C         -14.1046   -2.4481    3.0055 C.ar    1  UNL1       -0.0427
     21 C         -12.9073   -1.9646    2.4678 C.ar    1  UNL1        0.0531
     22 CL        -11.5551   -1.8632    3.5364 Cl      1  UNL1       -0.0828
     23 C          -9.2854    0.4630   -0.4251 C.ar    1  UNL1       -0.0386
     24 C          -8.1781    0.9425   -1.0987 C.ar    1  UNL1       -0.0371
     25 C          -6.9340    0.3101   -1.0223 C.ar    1  UNL1        0.0514
     26 N          -5.9382    0.8381   -1.8180 N.pl3   1  UNL1       -0.3285
     27 C          -5.4730    2.1965   -1.5609 C.3     1  UNL1        0.0122
     28 C          -5.5313    2.9520   -2.8818 C.3     1  UNL1       -0.0372
     29 C          -4.7553    2.1989   -3.9716 C.3     1  UNL1       -0.0502
     30 C          -5.1725    0.7242   -4.0720 C.3     1  UNL1       -0.0372
     31 C          -5.1180    0.0445   -2.7081 C.3     1  UNL1        0.0122
     32 C          -0.6839   -1.4114   -0.0263 C.ar    1  UNL1       -0.0373
     33 C           0.5659   -0.7258   -0.0082 C.ar    1  UNL1       -0.0458
     34 C           1.8606   -1.4955    0.0185 C.3     1  UNL1       -0.0394
     35 H           1.6716    2.5577   -0.0259 H       1  UNL1        0.0278
     36 H           2.4555    1.2535   -0.9140 H       1  UNL1        0.0278
     37 H           2.4688    1.2693    0.8784 H       1  UNL1        0.0278
     38 H          -0.6315    2.4613    0.0380 H       1  UNL1        0.0621
     39 H          -2.6924    1.3229    0.0172 H       1  UNL1        0.0636
     40 H          -3.1470   -2.4023   -0.1223 H       1  UNL1        0.1564
     41 H          -5.5284   -2.4968    0.0869 H       1  UNL1        0.1564
     42 H          -7.8466   -2.1394    1.2009 H       1  UNL1        0.0655
     43 H         -10.3220   -2.1216    1.3959 H       1  UNL1        0.1551
     44 H         -14.0310   -1.3286   -0.6955 H       1  UNL1        0.0625
     45 H         -16.1561   -2.0847    0.3169 H       1  UNL1        0.0618
     46 H         -16.1881   -2.8863    2.6657 H       1  UNL1        0.0618
     47 H         -14.1467   -2.7454    4.0499 H       1  UNL1        0.0632
     48 H         -10.1927    1.0415   -0.5374 H       1  UNL1        0.0637
     49 H          -8.3189    1.7958   -1.7569 H       1  UNL1        0.0637
     50 H          -4.4341    2.1742   -1.2148 H       1  UNL1        0.0464
     51 H          -6.0517    2.7126   -0.7850 H       1  UNL1        0.0464
     52 H          -5.1212    3.9589   -2.7516 H       1  UNL1        0.0280
     53 H          -6.5784    3.0577   -3.1893 H       1  UNL1        0.0280
     54 H          -3.6824    2.2517   -3.7478 H       1  UNL1        0.0266
     55 H          -4.9128    2.6899   -4.9364 H       1  UNL1        0.0266
     56 H          -4.5224    0.1926   -4.7735 H       1  UNL1        0.0280
     57 H          -6.1980    0.6670   -4.4575 H       1  UNL1        0.0280
     58 H          -4.0807    0.0307   -2.3570 H       1  UNL1        0.0464
     59 H          -5.4643   -0.9913   -2.7908 H       1  UNL1        0.0464
     60 H          -0.6782   -2.4988   -0.0334 H       1  UNL1        0.0639
     61 H           1.6905   -2.5753    0.0260 H       1  UNL1        0.0278
     62 H           2.4314   -1.2426    0.9196 H       1  UNL1        0.0278
     63 H           2.4647   -1.2552   -0.8632 H       1  UNL1        0.0278
@<TRIPOS>BOND
     1     1     2    1
     2     2     3   ar
     3     3     4   ar
     4     4     5   ar
     5     5     6    1
     6     6     7   am
     7     7     8    2
     8     7     9   am
     9     9    10    1
    10    10    11   ar
    11    11    12   ar
    12    12    13    1
    13    13    14   am
    14    14    15    2
    15    14    16    1
    16    16    17   ar
    17    17    18   ar
    18    18    19   ar
    19    19    20   ar
    20    20    21   ar
    21    16    21   ar
    22    21    22    1
    23    12    23   ar
    24    23    24   ar
    25    24    25   ar
    26    10    25   ar
    27    25    26    1
    28    26    27    1
    29    27    28    1
    30    28    29    1
    31    29    30    1
    32    30    31    1
    33    26    31    1
    34     5    32   ar
    35    32    33   ar
    36     2    33   ar
    37    33    34    1
    38     1    35    1
    39     1    36    1
    40     1    37    1
    41     3    38    1
    42     4    39    1
    43     6    40    1
    44     9    41    1
    45    11    42    1
    46    13    43    1
    47    17    44    1
    48    18    45    1
    49    19    46    1
    50    20    47    1
    51    23    48    1
    52    24    49    1
    53    27    50    1
    54    27    51    1
    55    28    52    1
    56    28    53    1
    57    29    54    1
    58    29    55    1
    59    30    56    1
    60    30    57    1
    61    31    58    1
    62    31    59    1
    63    32    60    1
    64    34    61    1
    65    34    62    1
    66    34    63    1
