@<TRIPOS>MOLECULE
*****
 34 35 0 0 0
SMALL
GASTEIGER

@<TRIPOS>ATOM
      1 C          -5.8281   -5.2499   10.2237 C.3     1  UNL1       -0.0396
      2 C          -5.7205   -5.7379    8.8064 C.ar    1  UNL1       -0.0470
      3 C          -5.4202   -4.8811    7.7437 C.ar    1  UNL1       -0.0579
      4 C          -5.3494   -5.3634    6.4207 C.ar    1  UNL1       -0.0458
      5 C          -5.5666   -6.7189    6.1248 C.ar    1  UNL1        0.0795
      6 C          -5.5286   -7.2577    4.7083 C.2     1  UNL1        0.2637
      7 O          -5.7102   -8.4652    4.5294 O.2     1  UNL1       -0.2685
      8 N          -5.2979   -6.3803    3.6474 N.am    1  UNL1       -0.2303
      9 N          -5.3146   -6.8531    2.2865 N.am    1  UNL1       -0.2339
     10 C          -5.0541   -5.9465    1.2585 C.2     1  UNL1        0.2324
     11 O          -4.9764   -4.7338    1.4706 O.2     1  UNL1       -0.2740
     12 C          -4.6434   -6.4784   -0.0891 C.3     1  UNL1        0.0398
     13 C          -5.1375   -7.7958   -0.6414 C.3     1  UNL1       -0.0383
     14 C          -5.4530   -6.5251   -1.3849 C.3     1  UNL1       -0.0320
     15 C          -4.7749   -6.2603   -2.7075 C.3     1  UNL1       -0.0617
     16 C          -5.8435   -7.5746    7.2136 C.ar    1  UNL1        0.1292
     17 O          -6.0520   -8.9256    7.0934 O.3     1  UNL1       -0.5060
     18 C          -5.9267   -7.0907    8.5281 C.ar    1  UNL1       -0.0165
     19 H          -5.6501   -4.1725   10.3030 H       1  UNL1        0.0278
     20 H          -5.0931   -5.7598   10.8559 H       1  UNL1        0.0278
     21 H          -6.8306   -5.4527   10.6169 H       1  UNL1        0.0278
     22 H          -5.2417   -3.8230    7.9313 H       1  UNL1        0.0620
     23 H          -5.1231   -4.6402    5.6457 H       1  UNL1        0.0626
     24 H          -5.1123   -5.3856    3.7491 H       1  UNL1        0.1731
     25 H          -5.3075   -7.8623    2.1620 H       1  UNL1        0.1728
     26 H          -3.6179   -6.1741   -0.2865 H       1  UNL1        0.0397
     27 H          -5.9833   -8.3026   -0.1897 H       1  UNL1        0.0275
     28 H          -4.3966   -8.4764   -1.0476 H       1  UNL1        0.0275
     29 H          -6.4976   -6.2384   -1.4241 H       1  UNL1        0.0306
     30 H          -3.7172   -6.5509   -2.7033 H       1  UNL1        0.0233
     31 H          -4.8235   -5.1939   -2.9529 H       1  UNL1        0.0233
     32 H          -5.2591   -6.8069   -3.5264 H       1  UNL1        0.0233
     33 H          -5.9673   -9.1661    6.1464 H       1  UNL1        0.2922
     34 H          -6.1572   -7.7793    9.3402 H       1  UNL1        0.0657
@<TRIPOS>BOND
     1     1     2    1
     2     2     3   ar
     3     3     4   ar
     4     4     5   ar
     5     5     6    1
     6     6     7    2
     7     6     8   am
     8     8     9    1
     9     9    10   am
    10    10    11    2
    11    12    13    1
    12    13    14    1
    13    12    14    1
    14    14    15    1
    15     5    16   ar
    16    16    17    1
    17    16    18   ar
    18     2    18   ar
    19    12    10    1
    20     1    19    1
    21     1    20    1
    22     1    21    1
    23     3    22    1
    24     4    23    1
    25     8    24    1
    26     9    25    1
    27    12    26    1
    28    13    27    1
    29    13    28    1
    30    14    29    1
    31    15    30    1
    32    15    31    1
    33    15    32    1
    34    17    33    1
    35    18    34    1
