REMARK  6 active torsions:
REMARK  status: ('A' for Active; 'I' for Inactive)
REMARK    1  A    between atoms: C_9  and  O_10 
REMARK    2  A    between atoms: C_12  and  O_13 
REMARK    3  A    between atoms: C_16  and  C_17 
REMARK    4  A    between atoms: N_18  and  N_19 
REMARK       I    between atoms: N_19  and  C_20 
REMARK       I    between atoms: C_20  and  N_21 
REMARK    5  A    between atoms: C_23  and  O_24 
REMARK    6  A    between atoms: C_27  and  C_28 
ROOT
ATOM      1  C   UNL d   1       0.925  -0.340   0.271  0.00  0.00     0.019 C 
ATOM      2  C   UNL d   1       2.510  -0.060   0.140  0.00  0.00    -0.005 C 
ATOM      3  C   UNL d   1       3.224  -1.354   0.532  0.00  0.00     0.013 C 
ATOM      4  C   UNL d   1       2.756  -2.555  -0.274  0.00  0.00     0.007 C 
ATOM      5  C   UNL d   1       2.972  -2.402  -1.790  0.00  0.00     0.009 C 
ATOM      6  C   UNL d   1       2.394  -0.864  -2.254  0.00  0.00     0.026 C 
ATOM      7  C   UNL d   1       0.974  -0.839  -2.730  0.00  0.00     0.011 C 
ATOM      8  C   UNL d   1       0.140  -2.082  -2.622  0.00  0.00     0.039 C 
ATOM      9  C   UNL d   1       0.736  -3.466  -2.442  0.00  0.00     0.073 C 
ATOM     10  C   UNL d   1      -0.225  -4.388  -3.265  0.00  0.00     0.070 C 
ATOM     11  C   UNL d   1       0.260  -5.812  -3.213  0.00  0.00     0.121 C 
ATOM     12  C   UNL d   1       1.559  -6.408  -3.663  0.00  0.00     0.033 C 
ATOM     13  C   UNL d   1       2.709  -5.368  -2.709  0.00  0.00     0.021 C 
ATOM     14  C   UNL d   1       2.301  -3.622  -2.729  0.00  0.00     0.031 C 
ATOM     15  C   UNL d   1       2.643   0.444  -1.286  0.00  0.00     0.070 C 
ATOM     16  C   UNL d   1       1.806   1.920  -0.786  0.00  0.00     0.040 C 
ATOM     17  C   UNL d   1       2.879   2.478   0.127  0.00  0.00     0.013 C 
ATOM     18  C   UNL d   1       3.149   1.172   0.941  0.00  0.00     0.028 C 
ENDROOT
BRANCH  14  19
ATOM     19  C   UNL d   1       2.717  -3.293  -4.172  0.00  0.00     0.124 C 
ATOM     20  N   UNL d   1       1.786  -3.235  -5.062  0.00  0.00    -0.186 NA
BRANCH  20  21
ATOM     21  N   UNL d   1       2.098  -3.103  -6.366  0.00  0.00    -0.230 N 
ATOM     22  C   UNL d   1       1.129  -3.175  -7.339  0.00  0.00     0.334 C 
ATOM     23  N   UNL d   1      -0.144  -3.385  -6.923  0.00  0.00    -0.351 N 
ATOM     24  O   UNL d   1       1.386  -3.070  -8.536  0.00  0.00    -0.246 OA
ATOM     25  H   UNL d   1      -0.362  -3.449  -5.947  0.00  0.00     0.160 HD
ATOM     26  H   UNL d   1      -0.889  -3.430  -7.600  0.00  0.00     0.160 HD
ATOM     27  H   UNL d   1       3.058  -3.021  -6.681  0.00  0.00     0.194 HD
ENDBRANCH  20  21
ENDBRANCH  14  19
BRANCH   9  28
ATOM     28  O   UNL d   1       0.538  -3.865  -1.076  0.00  0.00    -0.389 OA
ATOM     29  H   UNL d   1      -0.406  -3.957  -0.892  0.00  0.00     0.210 HD
ENDBRANCH   9  28
BRANCH  11  30
ATOM     30  O   UNL d   1       0.261  -6.238  -1.851  0.00  0.00    -0.395 OA
ATOM     31  H   UNL d   1      -0.647  -6.389  -1.563  0.00  0.00     0.210 HD
ENDBRANCH  11  30
BRANCH  15  32
ATOM     32  O   UNL d   1       3.993   0.829  -1.627  0.00  0.00    -0.389 OA
ATOM     33  H   UNL d   1       4.424   0.111  -2.120  0.00  0.00     0.210 HD
ENDBRANCH  15  32
BRANCH  18  34
ATOM     34  C   UNL d   1       2.609   1.162   2.336  0.00  0.00    -0.045 A 
ATOM     35  C   UNL d   1       1.340   1.212   2.745  0.00  0.00     0.087 A 
ATOM     36  C   UNL d   1       1.337   0.907   4.153  0.00  0.00     0.283 A 
ATOM     37  O   UNL d   1       0.296   0.769   4.823  0.00  0.00    -0.260 OA
ATOM     38  O   UNL d   1       2.603   0.778   4.596  0.00  0.00    -0.314 OA
ATOM     39  C   UNL d   1       3.495   0.914   3.485  0.00  0.00     0.213 A 
ENDBRANCH  18  34
TORSDOF 6
