REMARK  7 active torsions:
REMARK  status: ('A' for Active; 'I' for Inactive)
REMARK    1  A    between atoms: C_2  and  C_3 
REMARK       I    between atoms: C_2  and  N_15 
REMARK    2  A    between atoms: C_3  and  C_4 
REMARK    3  A    between atoms: N_15  and  N_16 
REMARK       I    between atoms: N_16  and  C_17 
REMARK       I    between atoms: C_17  and  N_19 
REMARK    4  A    between atoms: N_19  and  C_20 
REMARK    5  A    between atoms: C_20  and  C_21 
REMARK    6  A    between atoms: C_21  and  C_22 
REMARK    7  A    between atoms: C_22  and  N_23 
ROOT
ATOM      1  O   UNL d   1       1.188  -0.113  -0.227  0.00  0.00    -0.272 OA
ATOM      2  C   UNL d   1       2.414  -0.053  -0.113  0.00  0.00     0.240 C 
ATOM      3  N   UNL d   1       3.200  -0.611  -1.105  0.00  0.00    -0.266 N 
ATOM      4  H   UNL d   1       2.700  -1.042  -1.887  0.00  0.00     0.190 HD
ENDROOT
BRANCH   3   5
ATOM      5  N   UNL d   1       4.612  -0.646  -1.172  0.00  0.00    -0.249 N 
ATOM      6  C   UNL d   1       5.213  -1.255  -2.270  0.00  0.00     0.334 C 
ATOM      7  O   UNL d   1       4.580  -1.766  -3.192  0.00  0.00    -0.246 OA
ATOM      8  N   UNL d   1       6.597  -1.234  -2.243  0.00  0.00    -0.342 N 
ATOM      9  H   UNL d   1       7.061  -0.819  -1.449  0.00  0.00     0.164 HD
ATOM     10  H   UNL d   1       5.146  -0.238  -0.419  0.00  0.00     0.192 HD
BRANCH   8  11
ATOM     11  C   UNL d   1       7.384  -1.841  -3.320  0.00  0.00     0.126 C 
BRANCH  11  12
ATOM     12  C   UNL d   1       8.899  -1.726  -3.112  0.00  0.00     0.040 C 
BRANCH  12  13
ATOM     13  C   UNL d   1       9.697  -2.356  -4.261  0.00  0.00     0.130 C 
BRANCH  13  14
ATOM     14  N   UNL d   1      11.154  -2.248  -4.036  0.00  0.00    -0.352 N 
ATOM     15  C   UNL d   1      12.047  -3.312  -3.915  0.00  0.00     0.108 A 
ATOM     16  C   UNL d   1      13.288  -2.770  -3.723  0.00  0.00     0.106 A 
ATOM     17  N   UNL d   1      13.120  -1.407  -3.744  0.00  0.00    -0.361 N 
ATOM     18  C   UNL d   1      11.838  -1.094  -3.951  0.00  0.00     0.182 A 
ATOM     19  H   UNL d   1      13.864  -0.722  -3.628  0.00  0.00     0.166 HD
ENDBRANCH  13  14
ENDBRANCH  12  13
ENDBRANCH  11  12
ENDBRANCH   8  11
ENDBRANCH   3   5
BRANCH   2  20
ATOM     20  C   UNL d   1       3.092   0.608   1.087  0.00  0.00     0.143 C 
BRANCH  20  21
ATOM     21  C   UNL d   1       2.148   1.202   2.132  0.00  0.00    -0.045 A 
ATOM     22  C   UNL d   1       1.266   0.382   2.857  0.00  0.00     0.034 A 
ATOM     23  C   UNL d   1       0.403   0.922   3.825  0.00  0.00     0.070 A 
ATOM     24 CL   UNL d   1      -0.656  -0.154   4.668  0.00  0.00    -0.081 Cl
ATOM     25  C   UNL d   1       0.413   2.292   4.104  0.00  0.00     0.123 A 
ATOM     26  C   UNL d   1       1.264   3.124   3.368  0.00  0.00     0.104 A 
ATOM     27  O   UNL d   1      -0.420   2.774   5.088  0.00  0.00    -0.344 OA
ATOM     28  C   UNL d   1       2.138   2.581   2.409  0.00  0.00     0.047 A 
ATOM     29  O   UNL d   1       1.303   4.490   3.535  0.00  0.00    -0.346 OA
ATOM     30  C   UNL d   1       0.164   4.967   4.271  0.00  0.00     0.202 C 
ATOM     31  C   UNL d   1      -0.063   4.100   5.495  0.00  0.00     0.202 C 
ENDBRANCH  20  21
ENDBRANCH   2  20
TORSDOF 7
