REMARK  4 active torsions:
REMARK  status: ('A' for Active; 'I' for Inactive)
REMARK    1  A    between atoms: C_6  and  N_7 
REMARK    2  A    between atoms: N_7  and  N_8 
REMARK       I    between atoms: N_8  and  C_9 
REMARK    3  A    between atoms: C_9  and  C_11 
REMARK    4  A    between atoms: C_16  and  O_17 
ROOT
ATOM      1  N   UNL d   1      -1.093   3.709   0.116  0.00  0.00    -0.187 NA
ATOM      2  C   UNL d   1      -1.818   4.899   0.083  0.00  0.00     0.247 C 
ATOM      3  O   UNL d   1      -1.415   5.851  -0.594  0.00  0.00    -0.273 OA
ATOM      4  H   UNL d   1      -0.200   3.820  -0.350  0.00  0.00     0.150 HD
ENDROOT
BRANCH   1   5
ATOM      5  N   UNL d   1      -1.771   2.516  -0.344  0.00  0.00    -0.220 NA
ATOM      6  H   UNL d   1      -2.704   2.457   0.073  0.00  0.00     0.147 HD
BRANCH   5   7
ATOM      7  C   UNL d   1      -1.077   1.295  -0.072  0.00  0.00     0.023 A 
ATOM      8  C   UNL d   1      -1.791   0.082  -0.044  0.00  0.00     0.025 A 
ATOM      9  C   UNL d   1      -1.126  -1.152   0.013  0.00  0.00     0.002 A 
ATOM     10  C   UNL d   1       0.266  -1.196   0.026  0.00  0.00     0.007 A 
ATOM     11  C   UNL d   1       0.997  -0.007   0.016  0.00  0.00    -0.060 A 
ATOM     12  C   UNL d   1       2.495  -0.009  -0.005  0.00  0.00     0.048 C 
ATOM     13  C   UNL d   1       0.320   1.222  -0.025  0.00  0.00     0.031 A 
ENDBRANCH   5   7
ENDBRANCH   1   5
BRANCH   2  14
ATOM     14  C   UNL d   1      -3.008   5.071   0.982  0.00  0.00     0.060 A 
ATOM     15  C   UNL d   1      -3.698   6.301   0.968  0.00  0.00     0.019 A 
ATOM     16  C   UNL d   1      -4.769   6.529   1.843  0.00  0.00     0.001 A 
ATOM     17  C   UNL d   1      -5.169   5.532   2.731  0.00  0.00     0.003 A 
ATOM     18  C   UNL d   1      -4.496   4.316   2.758  0.00  0.00     0.037 A 
ATOM     19  C   UNL d   1      -3.416   4.098   1.908  0.00  0.00     0.081 A 
BRANCH  19  20
ATOM     20  O   UNL d   1      -2.759   2.910   2.021  0.00  0.00    -0.360 OA
ATOM     21  H   UNL d   1      -3.164   2.324   2.676  0.00  0.00     0.217 HD
ENDBRANCH  19  20
ENDBRANCH   2  14
TORSDOF 4
