REMARK  8 active torsions:
REMARK  status: ('A' for Active; 'I' for Inactive)
REMARK    1  A    between atoms: C_2  and  C_3 
REMARK       I    between atoms: C_3  and  N_5 
REMARK    2  A    between atoms: N_5  and  C_6 
REMARK    3  A    between atoms: C_10  and  N_11 
REMARK    4  A    between atoms: N_11  and  C_12 
REMARK    5  A    between atoms: C_12  and  C_13 
REMARK       I    between atoms: C_13  and  N_15 
REMARK    6  A    between atoms: N_15  and  C_16 
REMARK    7  A    between atoms: C_20  and  N_21 
REMARK       I    between atoms: N_21  and  C_22 
REMARK    8  A    between atoms: C_22  and  C_24 
ROOT
ATOM      1  C   UNL d   1       3.031   5.186  -6.350  0.00  0.00     0.239 C 
ATOM      2  O   UNL d   1       3.686   5.294  -7.385  0.00  0.00    -0.271 OA
ATOM      3  N   UNL d   1       2.015   6.049  -5.914  0.00  0.00    -0.326 N 
ATOM      4  H   UNL d   1       1.646   5.979  -4.971  0.00  0.00     0.169 HD
ENDROOT
BRANCH   1   5
ATOM      5  C   UNL d   1       3.348   4.120  -5.350  0.00  0.00     0.223 C 
BRANCH   5   6
ATOM      6  N   UNL d   1       4.481   3.282  -5.693  0.00  0.00    -0.381 N 
ATOM      7  H   UNL d   1       4.892   3.463  -6.606  0.00  0.00     0.160 HD
BRANCH   6   8
ATOM      8  C   UNL d   1       4.938   2.232  -4.910  0.00  0.00     0.036 A 
ATOM      9  C   UNL d   1       6.040   1.498  -5.404  0.00  0.00     0.030 A 
ATOM     10  C   UNL d   1       6.621   0.451  -4.679  0.00  0.00     0.005 A 
ATOM     11  C   UNL d   1       6.108   0.099  -3.430  0.00  0.00     0.030 A 
ATOM     12  C   UNL d   1       4.991   0.771  -2.924  0.00  0.00     0.043 A 
ATOM     13  C   UNL d   1       4.417   1.866  -3.640  0.00  0.00    -0.009 A 
ATOM     14  C   UNL d   1       3.319   2.612  -2.922  0.00  0.00     0.053 C 
BRANCH  12  15
ATOM     15  N   UNL d   1       4.480   0.393  -1.644  0.00  0.00    -0.327 N 
ATOM     16  C   UNL d   1       3.129   0.128  -1.450  0.00  0.00     0.221 C 
ATOM     17  O   UNL d   1       2.318  -0.004  -2.367  0.00  0.00    -0.273 OA
ATOM     18  H   UNL d   1       5.135   0.011  -0.975  0.00  0.00     0.169 HD
BRANCH  16  19
ATOM     19  C   UNL d   1       2.679  -0.044  -0.012  0.00  0.00     0.098 C 
ATOM     20  C   UNL d   1       1.149  -0.023   0.048  0.00  0.00     0.014 C 
ENDBRANCH  16  19
ENDBRANCH  12  15
ENDBRANCH   6   8
ENDBRANCH   5   6
ENDBRANCH   1   5
BRANCH   3  21
ATOM     21  C   UNL d   1       1.627   7.143  -6.699  0.00  0.00     0.036 C 
ATOM     22  C   UNL d   1       1.238   8.354  -6.148  0.00  0.00     0.029 C 
ATOM     23  C   UNL d   1       0.832   9.388  -7.004  0.00  0.00     0.004 C 
ATOM     24  C   UNL d   1       0.753   9.189  -8.393  0.00  0.00     0.029 C 
ATOM     25  C   UNL d   1       1.061   7.941  -8.922  0.00  0.00     0.037 C 
ATOM     26  C   UNL d   1       1.589   6.980  -8.076  0.00  0.00     0.059 C 
BRANCH  25  27
ATOM     27  N   UNL d   1       0.788   7.623 -10.271  0.00  0.00    -0.323 N 
ATOM     28  C   UNL d   1       0.823   6.359 -10.850  0.00  0.00     0.256 C 
ATOM     29  O   UNL d   1       1.294   6.218 -11.985  0.00  0.00    -0.267 OA
ATOM     30  H   UNL d   1       0.712   8.388 -10.928  0.00  0.00     0.169 HD
BRANCH  28  31
ATOM     31  C   UNL d   1       0.190   5.178 -10.148  0.00  0.00     0.032 C 
ATOM     32  C   UNL d   1       0.362   3.883 -10.648  0.00  0.00     0.017 C 
ATOM     33  C   UNL d   1      -0.180   2.787  -9.961  0.00  0.00     0.001 C 
ATOM     34  C   UNL d   1      -0.839   2.965  -8.743  0.00  0.00     0.000 C 
ATOM     35  C   UNL d   1      -1.016   4.243  -8.239  0.00  0.00     0.001 C 
ATOM     36  C   UNL d   1      -0.584   5.334  -8.984  0.00  0.00     0.017 C 
ENDBRANCH  28  31
ENDBRANCH  25  27
ENDBRANCH   3  21
TORSDOF 8
