@<TRIPOS>MOLECULE
*****
 69 71 0 0 0
SMALL
GASTEIGER

@<TRIPOS>ATOM
      1 C           0.9701    0.0303    0.0227 C.3     1  UNL1       -0.0306
      2 C           2.4899    0.0314   -0.0017 C.3     1  UNL1        0.0900
      3 O           2.9615    0.0897   -1.3624 O.3     1  UNL1       -0.4614
      4 C           4.3150    0.0316   -1.4729 C.2     1  UNL1        0.3392
      5 O           5.1102   -0.0619   -0.5452 O.2     1  UNL1       -0.2450
      6 C           4.7658    0.0964   -2.8831 C.ar    1  UNL1        0.0609
      7 C           5.8716   -0.6692   -3.2936 C.ar    1  UNL1       -0.0476
      8 C           6.4367   -0.4966   -4.5649 C.ar    1  UNL1       -0.0590
      9 C           5.8643    0.3954   -5.4612 C.ar    1  UNL1       -0.0378
     10 C           4.7595    1.1389   -5.0454 C.ar    1  UNL1        0.0473
     11 N           4.2136    2.0906   -5.9166 N.ar    1  UNL1       -0.3171
     12 C           4.1693    3.4371   -5.6709 C.ar    1  UNL1        0.0216
     13 C           4.8210    4.1926   -4.5719 C.3     1  UNL1       -0.0239
     14 C           3.4318    4.0034   -6.6703 C.ar    1  UNL1       -0.0320
     15 C           3.0055    3.0136   -7.5906 C.ar    1  UNL1        0.0156
     16 C           2.1688    3.1243   -8.7883 C.2     1  UNL1        0.0545
     17 N           1.6196    4.1916   -9.2975 N.2     1  UNL1       -0.1877
     18 N           1.7973    5.3974   -8.7106 N.am    1  UNL1       -0.2070
     19 C           1.2641    6.5651   -9.1881 C.2     1  UNL1        0.2323
     20 O           0.5644    6.6582  -10.1909 O.2     1  UNL1       -0.2741
     21 C           1.6480    7.7592   -8.3102 C.3     1  UNL1        0.0282
     22 C           1.0079    9.0029   -8.9007 C.3     1  UNL1       -0.0144
     23 C           1.2834   10.2927   -8.1285 C.3     1  UNL1        0.0806
     24 O           2.7031   10.4605   -8.0684 O.3     1  UNL1       -0.3872
     25 C           0.6204   11.4701   -8.8261 C.ar    1  UNL1       -0.0189
     26 C          -0.7059   11.3823   -9.2843 C.ar    1  UNL1       -0.0527
     27 C          -1.2646   12.3951  -10.0669 C.ar    1  UNL1       -0.0196
     28 C          -0.5553   13.5695  -10.3058 C.ar    1  UNL1        0.1205
     29 O          -1.2271   14.5358  -11.0062 O.3     1  UNL1       -0.4922
     30 C          -0.5594   15.7935  -11.1181 C.3     1  UNL1        0.0868
     31 C          -1.4807   16.7848  -11.8003 C.3     1  UNL1       -0.0307
     32 C           0.7425   13.6893   -9.8104 C.ar    1  UNL1       -0.0196
     33 C           1.3207   12.6555   -9.0722 C.ar    1  UNL1       -0.0527
     34 C           3.5523    1.8173   -7.1107 C.ar    1  UNL1        0.0296
     35 C           3.4352    0.4145   -7.6230 C.3     1  UNL1       -0.0233
     36 C           4.2048    1.0132   -3.7655 C.ar    1  UNL1       -0.0239
     37 H           0.5968   -0.0076    1.0522 H       1  UNL1        0.0262
     38 H           0.5714   -0.8319   -0.5213 H       1  UNL1        0.0262
     39 H           0.5706    0.9290   -0.4576 H       1  UNL1        0.0262
     40 H           2.8563   -0.8820    0.4820 H       1  UNL1        0.0695
     41 H           2.8575    0.9055    0.5486 H       1  UNL1        0.0695
     42 H           6.3120   -1.3951   -2.6143 H       1  UNL1        0.0626
     43 H           7.3391   -1.0346   -4.8461 H       1  UNL1        0.0618
     44 H           6.3015    0.5373   -6.4481 H       1  UNL1        0.0638
     45 H           5.4199    3.5810   -3.9004 H       1  UNL1        0.0292
     46 H           4.0511    4.7164   -3.9936 H       1  UNL1        0.0292
     47 H           5.4727    4.9611   -5.0075 H       1  UNL1        0.0292
     48 H           3.2885    5.0663   -6.6123 H       1  UNL1        0.0642
     49 H           1.9663    2.1860   -9.3324 H       1  UNL1        0.0852
     50 H           2.3513    5.4761   -7.8930 H       1  UNL1        0.1772
     51 H           2.7402    7.8582   -8.2719 H       1  UNL1        0.0360
     52 H           1.2889    7.6034   -7.2844 H       1  UNL1        0.0360
     53 H          -0.0688    8.8164   -8.9649 H       1  UNL1        0.0298
     54 H           1.3753    9.1166   -9.9306 H       1  UNL1        0.0298
     55 H           0.9159   10.2258   -7.0988 H       1  UNL1        0.0643
     56 H           3.0029   10.5994   -8.9853 H       1  UNL1        0.2102
     57 H          -1.3206   10.5122   -9.0618 H       1  UNL1        0.0622
     58 H          -2.2558   12.2563  -10.4922 H       1  UNL1        0.0654
     59 H           0.3445   15.6749  -11.7261 H       1  UNL1        0.0694
     60 H          -0.2983   16.1842  -10.1264 H       1  UNL1        0.0694
     61 H          -1.7978   16.4069  -12.7769 H       1  UNL1        0.0262
     62 H          -0.9741   17.7446  -11.9380 H       1  UNL1        0.0262
     63 H          -2.3849   16.9470  -11.2048 H       1  UNL1        0.0262
     64 H           1.3460   14.5712   -9.9909 H       1  UNL1        0.0654
     65 H           2.3340   12.7895   -8.7011 H       1  UNL1        0.0622
     66 H           2.8182    0.3504   -8.5212 H       1  UNL1        0.0292
     67 H           2.9798   -0.2347   -6.8665 H       1  UNL1        0.0292
     68 H           4.4199    0.0116   -7.8805 H       1  UNL1        0.0292
     69 H           3.3592    1.6277   -3.4661 H       1  UNL1        0.0646
@<TRIPOS>BOND
     1     1     2    1
     2     2     3    1
     3     3     4    1
     4     4     5    2
     5     4     6    1
     6     6     7   ar
     7     7     8   ar
     8     8     9   ar
     9     9    10   ar
    10    10    11    1
    11    11    12   ar
    12    12    13    1
    13    12    14   ar
    14    14    15   ar
    15    15    16    1
    16    16    17    2
    17    17    18    1
    18    18    19   am
    19    19    20    2
    20    19    21    1
    21    21    22    1
    22    22    23    1
    23    23    24    1
    24    23    25    1
    25    25    26   ar
    26    26    27   ar
    27    27    28   ar
    28    28    29    1
    29    29    30    1
    30    30    31    1
    31    28    32   ar
    32    32    33   ar
    33    25    33   ar
    34    15    34   ar
    35    11    34   ar
    36    34    35    1
    37    10    36   ar
    38     6    36   ar
    39     1    37    1
    40     1    38    1
    41     1    39    1
    42     2    40    1
    43     2    41    1
    44     7    42    1
    45     8    43    1
    46     9    44    1
    47    13    45    1
    48    13    46    1
    49    13    47    1
    50    14    48    1
    51    16    49    1
    52    18    50    1
    53    21    51    1
    54    21    52    1
    55    22    53    1
    56    22    54    1
    57    23    55    1
    58    24    56    1
    59    26    57    1
    60    27    58    1
    61    30    59    1
    62    30    60    1
    63    31    61    1
    64    31    62    1
    65    31    63    1
    66    32    64    1
    67    33    65    1
    68    35    66    1
    69    35    67    1
    70    35    68    1
    71    36    69    1
