@<TRIPOS>MOLECULE
*****
 49 52 0 0 0
SMALL
GASTEIGER

@<TRIPOS>ATOM
      1 C           0.9509   -0.0232    0.1173 C.3     1  UNL1       -0.0281
      2 C           2.4820   -0.0229    0.0697 C.3     1  UNL1        0.0946
      3 C           2.8463    0.4719   -1.3325 C.3     1  UNL1       -0.0281
      4 O           2.9405    0.7780    1.1851 O.3     1  UNL1       -0.4894
      5 C           4.2863    0.9351    1.3662 C.ar    1  UNL1        0.1210
      6 C           4.8178    0.8971    2.6583 C.ar    1  UNL1       -0.0182
      7 C           6.1775    1.1991    2.8920 C.ar    1  UNL1       -0.0369
      8 C           7.0472    1.3942    1.8234 C.ar    1  UNL1        0.0367
      9 N           8.4551    1.3591    1.9748 N.pl3   1  UNL1       -0.2541
     10 C           9.3358    1.8236    0.9638 C.2     1  UNL1        0.3351
     11 N          10.2890    1.0021    0.5695 N.2     1  UNL1       -0.0779
     12 N          11.1470    1.0409   -0.5550 N.2     1  UNL1       -0.0008
     13 C          10.9420    2.0342   -1.3665 C.2     1  UNL1        0.1251
     14 C          11.8560    2.2677   -2.5067 C.ar    1  UNL1        0.0047
     15 C          12.2776    1.5321   -3.6116 C.ar    1  UNL1       -0.0491
     16 C          13.3242    2.1137   -4.5278 C.ar    1  UNL1       -0.0175
     17 C          13.8768    3.4272   -4.2741 C.ar    1  UNL1        0.1423
     18 C          13.5620    3.7659   -3.0178 C.ar    1  UNL1        0.0763
     19 C          12.4963    3.4355   -2.2724 C.ar    1  UNL1       -0.0278
     20 N          14.6133    4.3072   -2.3186 N.am    1  UNL1       -0.2798
     21 C          14.3574    5.6555   -2.4197 C.2     1  UNL1        0.2549
     22 O          13.6339    6.2981   -1.7303 O.2     1  UNL1       -0.2717
     23 C          15.0483    5.9124   -3.7323 C.3     1  UNL1        0.1656
     24 O          14.8128    4.4885   -4.7214 O.3     1  UNL1       -0.4809
     25 C           9.9728    3.1890   -1.2112 C.3     1  UNL1        0.0537
     26 S           9.0170    3.3277    0.2461 S.3     1  UNL1       -0.0308
     27 C           6.4927    1.4363    0.5464 C.ar    1  UNL1       -0.0369
     28 C           5.1362    1.3013    0.3438 C.ar    1  UNL1       -0.0182
     29 H           0.5393   -0.6323   -0.6959 H       1  UNL1        0.0265
     30 H           0.5603    0.9963    0.0054 H       1  UNL1        0.0265
     31 H           0.5774   -0.4100    1.0682 H       1  UNL1        0.0265
     32 H           2.8388   -1.0502    0.2087 H       1  UNL1        0.0727
     33 H           2.6435    1.5456   -1.4314 H       1  UNL1        0.0265
     34 H           2.3149   -0.0718   -2.1161 H       1  UNL1        0.0265
     35 H           3.8908    0.2707   -1.5701 H       1  UNL1        0.0265
     36 H           4.1846    0.6318    3.5007 H       1  UNL1        0.0655
     37 H           6.5416    1.2767    3.9120 H       1  UNL1        0.0637
     38 H           8.7601    1.6383    2.9020 H       1  UNL1        0.1582
     39 H          10.3559    0.1761    1.1621 H       1  UNL1        0.4916
     40 H          11.7977    0.5542   -3.7592 H       1  UNL1        0.0625
     41 H          13.6451    1.3661   -5.2726 H       1  UNL1        0.0655
     42 H          12.3617    4.0770   -1.4165 H       1  UNL1        0.0644
     43 H          15.4206    4.0858   -2.9295 H       1  UNL1        0.1550
     44 H          16.1033    5.9554   -3.3635 H       1  UNL1        0.0795
     45 H          14.7731    6.8928   -4.1489 H       1  UNL1        0.0795
     46 H           9.3783    3.2460   -2.1244 H       1  UNL1        0.0448
     47 H          10.5214    4.1270   -1.1256 H       1  UNL1        0.0448
     48 H           7.0721    1.6159   -0.3522 H       1  UNL1        0.0637
     49 H           4.8180    1.5392   -0.6535 H       1  UNL1        0.0655
@<TRIPOS>UNITY_ATOM_ATTR
11 1
charge 1
@<TRIPOS>BOND
     1     1     2    1
     2     2     3    1
     3     2     4    1
     4     4     5    1
     5     5     6   ar
     6     6     7   ar
     7     7     8   ar
     8     8     9    1
     9     9    10    1
    10    10    11    2
    11    11    12    1
    12    12    13    2
    13    13    14    1
    14    14    15   ar
    15    15    16   ar
    16    16    17   ar
    17    17    18   ar
    18    18    19   ar
    19    14    19   ar
    20    18    20    1
    21    20    21   am
    22    21    22    2
    23    21    23    1
    24    23    24    1
    25    17    24    1
    26    13    25    1
    27    25    26    1
    28    10    26    1
    29     8    27   ar
    30    27    28   ar
    31     5    28   ar
    32     1    29    1
    33     1    30    1
    34     1    31    1
    35     2    32    1
    36     3    33    1
    37     3    34    1
    38     3    35    1
    39     6    36    1
    40     7    37    1
    41     9    38    1
    42    11    39    1
    43    15    40    1
    44    16    41    1
    45    19    42    1
    46    20    43    1
    47    23    44    1
    48    23    45    1
    49    25    46    1
    50    25    47    1
    51    27    48    1
    52    28    49    1
