@<TRIPOS>MOLECULE
*****
 35 37 0 0 0
SMALL
GASTEIGER

@<TRIPOS>ATOM
      1 C           1.0590   -0.0513    0.0443 C.3     1  UNL1       -0.0571
      2 C           2.5893   -0.0802    0.0806 C.3     1  UNL1       -0.0010
      3 C           3.0846    1.1378    0.8749 C.3     1  UNL1       -0.0571
      4 C           3.1105   -1.3581    0.6808 C.ar    1  UNL1        0.0869
      5 C           4.0630   -1.4958    1.7176 C.ar    1  UNL1        0.0132
      6 C           4.1527   -2.8435    1.9571 C.ar    1  UNL1        0.2219
      7 C           4.9189   -3.6333    2.8916 C.2     1  UNL1        0.2863
      8 O           4.8151   -4.8616    2.9362 O.2     1  UNL1       -0.2664
      9 N           5.7425   -2.9066    3.7631 N.am    1  UNL1       -0.2783
     10 C           6.5342   -3.5438    4.7478 C.ar    1  UNL1        0.0430
     11 C           7.2624   -4.6926    4.4084 C.ar    1  UNL1       -0.0398
     12 C           7.9852   -5.4020    5.3604 C.ar    1  UNL1       -0.0580
     13 C           8.0003   -4.9982    6.6943 C.ar    1  UNL1       -0.0377
     14 C           7.3258   -3.8151    7.0210 C.ar    1  UNL1        0.0482
     15 N           7.1949   -3.1885    8.2413 N.ar    1  UNL1       -0.3606
     16 C           6.4813   -2.0292    8.0998 C.ar    1  UNL1        0.0028
     17 C           6.0903   -1.9345    6.7822 C.ar    1  UNL1       -0.0349
     18 C           6.6211   -3.0558    6.0763 C.ar    1  UNL1        0.0208
     19 O           3.3150   -3.4849    1.0863 O.2     1  UNL1       -0.3497
     20 N           2.6765   -2.5571    0.2734 N.ar    1  UNL1       -0.0822
     21 H           0.6940    0.8947   -0.3702 H       1  UNL1        0.0236
     22 H           0.6432   -0.1635    1.0521 H       1  UNL1        0.0236
     23 H           0.6584   -0.8618   -0.5739 H       1  UNL1        0.0236
     24 H           2.9660    0.0064   -0.9477 H       1  UNL1        0.0360
     25 H           2.7502    1.0796    1.9187 H       1  UNL1        0.0236
     26 H           2.7144    2.0758    0.4534 H       1  UNL1        0.0236
     27 H           4.1799    1.1845    0.8801 H       1  UNL1        0.0236
     28 H           4.5902   -0.7122    2.2336 H       1  UNL1        0.0676
     29 H           5.5938   -1.9135    3.8706 H       1  UNL1        0.1552
     30 H           7.2773   -5.0364    3.3768 H       1  UNL1        0.0636
     31 H           8.5281   -6.2919    5.0533 H       1  UNL1        0.0619
     32 H           8.5309   -5.5820    7.4401 H       1  UNL1        0.0638
     33 H           7.5809   -3.5358    9.1098 H       1  UNL1        0.1653
     34 H           6.3002   -1.3841    8.9499 H       1  UNL1        0.0807
     35 H           5.4840   -1.1393    6.3729 H       1  UNL1        0.0639
@<TRIPOS>BOND
     1     1     2    1
     2     2     3    1
     3     2     4    1
     4     4     5   ar
     5     5     6   ar
     6     6     7    1
     7     7     8    2
     8     7     9   am
     9     9    10    1
    10    10    11   ar
    11    11    12   ar
    12    12    13   ar
    13    13    14   ar
    14    14    15   ar
    15    15    16   ar
    16    16    17   ar
    17    17    18   ar
    18    10    18   ar
    19    14    18   ar
    20     6    19   ar
    21    19    20   ar
    22     4    20   ar
    23     1    21    1
    24     1    22    1
    25     1    23    1
    26     2    24    1
    27     3    25    1
    28     3    26    1
    29     3    27    1
    30     5    28    1
    31     9    29    1
    32    11    30    1
    33    12    31    1
    34    13    32    1
    35    15    33    1
    36    16    34    1
    37    17    35    1
