@<TRIPOS>MOLECULE
*****
 42 43 0 0 0
SMALL
GASTEIGER

@<TRIPOS>ATOM
      1 C           1.1314    0.0251   -0.0554 C.3     1  UNL1       -0.0612
      2 C           2.6694    0.0005   -0.0654 C.3     1  UNL1       -0.0311
      3 C           3.1372   -1.3700    0.4250 C.3     1  UNL1       -0.0612
      4 C           3.2291    0.3145   -1.4730 C.3     1  UNL1        0.0154
      5 N           4.6965    0.3558   -1.5605 N.am    1  UNL1       -0.2980
      6 C           5.3515    0.5918   -2.7535 C.2     1  UNL1        0.3160
      7 O           4.7606    0.8049   -3.8149 O.2     1  UNL1       -0.2513
      8 N           6.7364    0.5867   -2.6737 N.am    1  UNL1       -0.2181
      9 N           7.5188    0.8566   -3.8522 N.am    1  UNL1       -0.2301
     10 C           8.9121    0.8157   -3.7837 C.2     1  UNL1        0.2729
     11 O           9.4848    0.5828   -2.7159 O.2     1  UNL1       -0.2701
     12 C           9.6857    1.1230   -5.1013 C.3     1  UNL1        0.2102
     13 C          10.1748    2.5620   -5.1661 C.3     1  UNL1        0.0418
     14 C          11.6115    2.3479   -5.5014 C.2     1  UNL1        0.0913
     15 C          12.5453    3.4791   -5.7253 C.ar    1  UNL1       -0.0005
     16 C          13.3519    3.5210   -6.8697 C.ar    1  UNL1       -0.0528
     17 C          14.3339    4.5122   -7.0007 C.ar    1  UNL1       -0.0611
     18 C          14.4770    5.4916   -6.0178 C.ar    1  UNL1       -0.0617
     19 C          13.6643    5.4601   -4.8847 C.ar    1  UNL1       -0.0611
     20 C          12.7030    4.4534   -4.7340 C.ar    1  UNL1       -0.0528
     21 N          11.9776    1.1115   -5.5770 N.2     1  UNL1       -0.0881
     22 O          10.8648    0.3099   -5.2086 O.2     1  UNL1       -0.3803
     23 H           0.7421   -0.1808    0.9501 H       1  UNL1        0.0233
     24 H           0.7153   -0.7343   -0.7274 H       1  UNL1        0.0233
     25 H           0.7425    1.0007   -0.3640 H       1  UNL1        0.0233
     26 H           3.0225    0.7633    0.6405 H       1  UNL1        0.0311
     27 H           2.7833   -2.1635   -0.2420 H       1  UNL1        0.0233
     28 H           2.7541   -1.5786    1.4301 H       1  UNL1        0.0233
     29 H           4.2279   -1.4230    0.4708 H       1  UNL1        0.0233
     30 H           2.8520    1.2892   -1.8068 H       1  UNL1        0.0465
     31 H           2.8686   -0.4317   -2.1915 H       1  UNL1        0.0465
     32 H           5.2367    0.1807   -0.7260 H       1  UNL1        0.1503
     33 H           7.2584    0.3760   -1.8271 H       1  UNL1        0.1744
     34 H           6.9835    0.9737   -4.7115 H       1  UNL1        0.1729
     35 H           9.0538    0.8800   -5.9638 H       1  UNL1        0.0863
     36 H          10.0631    3.0974   -4.2226 H       1  UNL1        0.0371
     37 H           9.6883    3.1206   -5.9719 H       1  UNL1        0.0371
     38 H          13.2309    2.7843   -7.6601 H       1  UNL1        0.0624
     39 H          15.0045    4.5103   -7.8579 H       1  UNL1        0.0618
     40 H          15.2288    6.2711   -6.1290 H       1  UNL1        0.0618
     41 H          13.8024    6.2040   -4.1030 H       1  UNL1        0.0618
     42 H          12.1186    4.4153   -3.8195 H       1  UNL1        0.0624
@<TRIPOS>BOND
     1     1     2    1
     2     2     3    1
     3     2     4    1
     4     4     5    1
     5     5     6   am
     6     6     7    2
     7     6     8   am
     8     8     9    1
     9     9    10   am
    10    10    11    2
    11    10    12    1
    12    12    13    1
    13    13    14    1
    14    14    15    1
    15    15    16   ar
    16    16    17   ar
    17    17    18   ar
    18    18    19   ar
    19    19    20   ar
    20    15    20   ar
    21    14    21    2
    22    21    22    1
    23    12    22    1
    24     1    23    1
    25     1    24    1
    26     1    25    1
    27     2    26    1
    28     3    27    1
    29     3    28    1
    30     3    29    1
    31     4    30    1
    32     4    31    1
    33     5    32    1
    34     8    33    1
    35     9    34    1
    36    12    35    1
    37    13    36    1
    38    13    37    1
    39    16    38    1
    40    17    39    1
    41    18    40    1
    42    19    41    1
    43    20    42    1
