@<TRIPOS>MOLECULE
*****
 58 62 0 0 0
SMALL
GASTEIGER

@<TRIPOS>ATOM
      1 C           3.2239    0.4777   -1.3867 C.3     1  UNL1       -0.0424
      2 C           2.5352    0.0843   -0.0669 C.3     1  UNL1        0.0458
      3 N           1.0608    0.0412   -0.1124 N.am    1  UNL1       -0.3046
      4 C           0.3489    0.4632   -1.2011 C.2     1  UNL1        0.2523
      5 O           0.8453    0.8519   -2.2526 O.2     1  UNL1       -0.2699
      6 C          -1.1178    0.3729   -1.2110 C.ar    1  UNL1        0.1248
      7 C          -1.8752    0.9307   -0.2154 C.ar    1  UNL1       -0.0214
      8 C          -3.2453    0.9699   -0.4247 C.ar    1  UNL1        0.1328
      9 C          -4.0957    1.5989    0.5833 C.ar    1  UNL1        0.2721
     10 O          -3.5450    2.0790    1.5813 O.2     1  UNL1       -0.2663
     11 N          -5.4542    1.5974    0.3385 N.ar    1  UNL1       -0.2674
     12 C          -6.2903    2.1714    1.2934 C.ar    1  UNL1        0.0146
     13 C          -7.6163    2.2051    1.1426 C.ar    1  UNL1       -0.0450
     14 C          -8.2108    1.6385   -0.0373 C.ar    1  UNL1       -0.0569
     15 C          -7.4510    1.0762   -0.9871 C.ar    1  UNL1       -0.0185
     16 C          -5.9669    1.0277   -0.8302 C.ar    1  UNL1        0.1468
     17 N          -5.2360    0.4710   -1.7583 N.ar    1  UNL1       -0.1680
     18 C          -3.8460    0.4367   -1.5766 C.ar    1  UNL1        0.3210
     19 N          -3.0663   -0.1247   -2.5636 N.ar    1  UNL1       -0.1565
     20 C          -3.7723   -0.7642   -3.7701 C.3     1  UNL1        0.1797
     21 C          -2.8958   -1.5108   -4.7901 C.ar    1  UNL1        0.0174
     22 C          -2.0833   -2.5946   -4.3755 C.ar    1  UNL1       -0.0512
     23 C          -0.8990   -2.8883   -5.0808 C.ar    1  UNL1       -0.0429
     24 C          -0.6484   -2.2869   -6.3121 C.ar    1  UNL1        0.0410
     25 CL          0.8554   -2.5479   -7.1060 Cl      1  UNL1       -0.0835
     26 C          -1.5706   -1.3882   -6.8451 C.ar    1  UNL1       -0.0429
     27 C          -2.6601   -0.9567   -6.0686 C.ar    1  UNL1       -0.0512
     28 C          -1.7028   -0.0973   -2.4142 C.ar    1  UNL1        0.2826
     29 N          -0.8325   -0.5066   -3.4036 N.pl3   1  UNL1       -0.3049
     30 C           2.9618    1.0428    1.0228 C.ar    1  UNL1       -0.0275
     31 C           2.4947    2.3665    0.9850 C.ar    1  UNL1       -0.0568
     32 C           2.9733    3.3163    1.8777 C.ar    1  UNL1       -0.0614
     33 C           3.8397    2.9301    2.8938 C.ar    1  UNL1       -0.0617
     34 C           4.2341    1.5968    3.0073 C.ar    1  UNL1       -0.0614
     35 C           3.8469    0.6649    2.0410 C.ar    1  UNL1       -0.0568
     36 H           4.3134    0.4727   -1.3153 H       1  UNL1        0.0251
     37 H           2.9447    1.4969   -1.6895 H       1  UNL1        0.0251
     38 H           2.9426   -0.2100   -2.1935 H       1  UNL1        0.0251
     39 H           2.8477   -0.9367    0.1871 H       1  UNL1        0.0545
     40 H           0.6005   -0.1923    0.7586 H       1  UNL1        0.1496
     41 H          -1.4142    1.3939    0.6546 H       1  UNL1        0.0638
     42 H          -5.8202    2.5953    2.1813 H       1  UNL1        0.0814
     43 H          -8.2558    2.6543    1.8984 H       1  UNL1        0.0632
     44 H          -9.2923    1.6831   -0.1297 H       1  UNL1        0.0619
     45 H          -7.8846    0.6453   -1.8804 H       1  UNL1        0.0654
     46 H          -4.2986    0.0603   -4.2698 H       1  UNL1        0.1086
     47 H          -4.5118   -1.4702   -3.3759 H       1  UNL1        0.1086
     48 H          -2.1888   -3.0130   -3.3746 H       1  UNL1        0.0623
     49 H          -0.1119   -3.4686   -4.5962 H       1  UNL1        0.0632
     50 H          -1.3943   -0.9568   -7.8295 H       1  UNL1        0.0632
     51 H          -3.2409   -0.1115   -6.4386 H       1  UNL1        0.0623
     52 H          -1.0211   -0.4300   -4.3858 H       1  UNL1        0.1478
     53 H           0.1692   -0.5474   -3.2110 H       1  UNL1        0.1478
     54 H           1.7748    2.6677    0.2281 H       1  UNL1        0.0621
     55 H           2.6698    4.3538    1.7749 H       1  UNL1        0.0618
     56 H           4.2081    3.6719    3.5972 H       1  UNL1        0.0618
     57 H           4.8579    1.2917    3.8442 H       1  UNL1        0.0618
     58 H           4.2530   -0.3437    2.0912 H       1  UNL1        0.0621
@<TRIPOS>UNITY_ATOM_ATTR
19 1
charge 1
@<TRIPOS>BOND
     1     3     4   am
     2     4     5    2
     3     4     6    1
     4     6     7   ar
     5     7     8   ar
     6     8     9   ar
     7     9    10    2
     8     9    11   ar
     9    11    12   ar
    10    12    13   ar
    11    13    14   ar
    12    14    15   ar
    13    15    16   ar
    14    11    16   ar
    15    16    17   ar
    16    17    18   ar
    17     8    18   ar
    18    18    19   ar
    19    19    20    1
    20    20    21    1
    21    21    22   ar
    22    22    23   ar
    23    23    24   ar
    24    24    25    1
    25    24    26   ar
    26    26    27   ar
    27    21    27   ar
    28    19    28   ar
    29     6    28   ar
    30    28    29    1
    31     2    30    1
    32    30    31   ar
    33    31    32   ar
    34    32    33   ar
    35    33    34   ar
    36    34    35   ar
    37    30    35   ar
    38     2     3    1
    39     2     1    1
    40     1    36    1
    41     1    37    1
    42     1    38    1
    43     2    39    1
    44     3    40    1
    45     7    41    1
    46    12    42    1
    47    13    43    1
    48    14    44    1
    49    15    45    1
    50    20    46    1
    51    20    47    1
    52    22    48    1
    53    23    49    1
    54    26    50    1
    55    27    51    1
    56    29    52    1
    57    29    53    1
    58    31    54    1
    59    32    55    1
    60    33    56    1
    61    34    57    1
    62    35    58    1
