@<TRIPOS>MOLECULE
*****
 48 50 0 0 0
SMALL
GASTEIGER

@<TRIPOS>ATOM
      1 C           2.4933   -0.0400   -0.0135 C.3     1  UNL1       -0.0397
      2 C           0.9952   -0.0596    0.0009 C.ar    1  UNL1       -0.0487
      3 C           0.2492   -1.2297    0.0035 C.ar    1  UNL1       -0.0587
      4 C          -1.1463   -1.1549   -0.0008 C.ar    1  UNL1       -0.0598
      5 C          -1.8046    0.0927   -0.0054 C.ar    1  UNL1       -0.0405
      6 C          -1.0638    1.2828    0.0026 C.ar    1  UNL1        0.0337
      7 N          -1.7074    2.5594    0.0125 N.am    1  UNL1       -0.2842
      8 C          -1.0287    3.7825    0.0305 C.2     1  UNL1        0.2343
      9 O           0.1979    3.9218    0.0285 O.2     1  UNL1       -0.2738
     10 C          -1.8823    5.0626    0.0560 C.3     1  UNL1        0.0861
     11 N          -0.9743    6.2236    0.0472 N.pl3   1  UNL1       -0.3354
     12 C          -1.3769    7.5357    0.0960 C.ar    1  UNL1        0.0275
     13 C          -2.4294    7.9383    0.9128 C.ar    1  UNL1       -0.0401
     14 C          -2.8906    9.2620    0.9261 C.ar    1  UNL1       -0.0479
     15 C          -2.3237   10.2309    0.0901 C.ar    1  UNL1        0.0368
     16 C          -2.8139   11.6576    0.0361 C.2     1  UNL1        0.2444
     17 O          -2.3127   12.4592   -0.7530 O.2     1  UNL1       -0.2702
     18 N          -3.8345   12.0131    0.8886 N.am    1  UNL1       -0.3042
     19 C          -4.4191   13.3495    0.9383 C.3     1  UNL1        0.0700
     20 C          -5.5368   13.3590    1.9350 C.ar    1  UNL1        0.1218
     21 C          -6.2775   12.3515    2.5247 C.ar    1  UNL1       -0.0192
     22 C          -7.2028   12.9657    3.3938 C.ar    1  UNL1       -0.0236
     23 C          -6.9967   14.3185    3.2713 C.ar    1  UNL1        0.0921
     24 O          -5.9861   14.5710    2.3915 O.2     1  UNL1       -0.4662
     25 C          -1.2640    9.8343   -0.7394 C.ar    1  UNL1       -0.0479
     26 C          -0.7915    8.5058   -0.7262 C.ar    1  UNL1       -0.0401
     27 C           0.3282    1.1680    0.0024 C.ar    1  UNL1       -0.0376
     28 H           2.9113   -1.0485   -0.0000 H       1  UNL1        0.0278
     29 H           2.8685    0.5014    0.8626 H       1  UNL1        0.0278
     30 H           2.8476    0.4694   -0.9170 H       1  UNL1        0.0278
     31 H           0.7494   -2.1950    0.0053 H       1  UNL1        0.0620
     32 H          -1.7179   -2.0814   -0.0024 H       1  UNL1        0.0618
     33 H          -2.8914    0.0923   -0.0156 H       1  UNL1        0.0636
     34 H          -2.7209    2.5564    0.0101 H       1  UNL1        0.1549
     35 H          -2.4995    5.0528    0.9577 H       1  UNL1        0.0557
     36 H          -2.5103    5.0861   -0.8401 H       1  UNL1        0.0557
     37 H           0.0148    5.9982   -0.0786 H       1  UNL1        0.1466
     38 H          -2.8795    7.2242    1.5959 H       1  UNL1        0.0636
     39 H          -3.6997    9.4821    1.6087 H       1  UNL1        0.0626
     40 H          -4.1751   11.3468    1.5568 H       1  UNL1        0.1495
     41 H          -4.7970   13.5997   -0.0588 H       1  UNL1        0.0543
     42 H          -3.6331   14.0646    1.2034 H       1  UNL1        0.0543
     43 H          -6.1602   11.2942    2.3464 H       1  UNL1        0.0652
     44 H          -7.9339   12.4756    4.0209 H       1  UNL1        0.0649
     45 H          -7.4677   15.1820    3.7230 H       1  UNL1        0.1029
     46 H          -0.8007   10.5531   -1.4145 H       1  UNL1        0.0626
     47 H           0.0231    8.2323   -1.3959 H       1  UNL1        0.0636
     48 H           0.9726    2.0357    0.0004 H       1  UNL1        0.0639
@<TRIPOS>BOND
     1     1     2    1
     2     2     3   ar
     3     3     4   ar
     4     4     5   ar
     5     5     6   ar
     6     6     7    1
     7     7     8   am
     8     8     9    2
     9     8    10    1
    10    10    11    1
    11    11    12    1
    12    12    13   ar
    13    13    14   ar
    14    14    15   ar
    15    15    16    1
    16    16    17    2
    17    16    18   am
    18    18    19    1
    19    19    20    1
    20    20    21   ar
    21    21    22   ar
    22    22    23   ar
    23    23    24   ar
    24    20    24   ar
    25    15    25   ar
    26    25    26   ar
    27    12    26   ar
    28     6    27   ar
    29     2    27   ar
    30     1    28    1
    31     1    29    1
    32     1    30    1
    33     3    31    1
    34     4    32    1
    35     5    33    1
    36     7    34    1
    37    10    35    1
    38    10    36    1
    39    11    37    1
    40    13    38    1
    41    14    39    1
    42    18    40    1
    43    19    41    1
    44    19    42    1
    45    21    43    1
    46    22    44    1
    47    23    45    1
    48    25    46    1
    49    26    47    1
    50    27    48    1
