REMARK  4 active torsions:
REMARK  status: ('A' for Active; 'I' for Inactive)
REMARK    1  A    between atoms: C_6  and  C_7 
REMARK       I    between atoms: C_7  and  N_9 
REMARK    2  A    between atoms: N_9  and  N_10 
REMARK       I    between atoms: N_10  and  C_11 
REMARK       I    between atoms: C_11  and  N_13 
REMARK    3  A    between atoms: N_13  and  C_14 
REMARK    4  A    between atoms: C_14  and  C_16 
ROOT
ATOM      1  N   UNL d   1      -1.796   5.081   0.044  0.00  0.00    -0.249 N 
ATOM      2  C   UNL d   1      -1.010   6.225   0.097  0.00  0.00     0.335 C 
ATOM      3  O   UNL d   1       0.218   6.161   0.148  0.00  0.00    -0.246 OA
ATOM      4  N   UNL d   1      -1.713   7.408   0.053  0.00  0.00    -0.334 N 
ATOM      5  H   UNL d   1      -2.811   5.064   0.042  0.00  0.00     0.192 HD
ATOM      6  H   UNL d   1      -2.714   7.333   0.062  0.00  0.00     0.165 HD
ENDROOT
BRANCH   1   7
ATOM      7  N   UNL d   1      -1.141   3.813   0.034  0.00  0.00    -0.262 N 
ATOM      8  C   UNL d   1      -1.868   2.625   0.014  0.00  0.00     0.270 C 
ATOM      9  O   UNL d   1      -3.101   2.620   0.009  0.00  0.00    -0.266 OA
ATOM     10  H   UNL d   1      -0.127   3.870   0.040  0.00  0.00     0.190 HD
BRANCH   8  11
ATOM     11  C   UNL d   1      -1.103   1.315   0.004  0.00  0.00     0.034 A 
ATOM     12  C   UNL d   1      -1.810   0.095  -0.005  0.00  0.00     0.017 A 
ATOM     13  C   UNL d   1      -1.134  -1.137  -0.001  0.00  0.00     0.002 A 
ATOM     14  C   UNL d   1       0.258  -1.174   0.004  0.00  0.00     0.007 A 
ATOM     15  C   UNL d   1       0.983   0.021   0.002  0.00  0.00    -0.061 A 
ATOM     16  C   UNL d   1       2.484   0.006  -0.013  0.00  0.00     0.048 C 
ATOM     17  C   UNL d   1       0.298   1.254   0.004  0.00  0.00     0.024 A 
ENDBRANCH   8  11
ENDBRANCH   1   7
BRANCH   4  18
ATOM     18  C   UNL d   1      -1.079   8.750   0.057  0.00  0.00     0.115 C 
ATOM     19  C   UNL d   1      -0.172   8.913  -1.174  0.00  0.00     0.037 C 
BRANCH  18  20
ATOM     20  C   UNL d   1      -2.061   9.936   0.108  0.00  0.00    -0.033 A 
ATOM     21  C   UNL d   1      -1.584  11.265   0.129  0.00  0.00     0.028 A 
ATOM     22  C   UNL d   1      -2.486  12.327   0.118  0.00  0.00     0.116 A 
ATOM     23  N   UNL d   1      -3.823  12.171   0.114  0.00  0.00    -0.273 NA
ATOM     24  C   UNL d   1      -4.273  10.903   0.119  0.00  0.00     0.116 A 
ATOM     25  C   UNL d   1      -3.451   9.781   0.113  0.00  0.00     0.028 A 
ENDBRANCH  18  20
ENDBRANCH   4  18
TORSDOF 4
