REMARK  8 active torsions:
REMARK  status: ('A' for Active; 'I' for Inactive)
REMARK    1  A    between atoms: C_2  and  C_3 
REMARK    2  A    between atoms: C_3  and  N_4 
REMARK       I    between atoms: N_4  and  C_5 
REMARK       I    between atoms: C_5  and  N_7 
REMARK    3  A    between atoms: N_7  and  N_8 
REMARK       I    between atoms: N_8  and  C_9 
REMARK    4  A    between atoms: C_11  and  C_9 
REMARK    5  A    between atoms: C_11  and  O_13 
REMARK    6  A    between atoms: O_13  and  C_14 
REMARK    7  A    between atoms: C_17  and  O_18 
REMARK    8  A    between atoms: O_18  and  C_19 
ROOT
ATOM      1  N   UNL d   1       9.667   7.480  -1.453  0.00  0.00    -0.264 N 
ATOM      2  C   UNL d   1       9.226   6.184  -1.129  0.00  0.00     0.265 C 
ATOM      3  O   UNL d   1       8.382   6.037  -0.238  0.00  0.00    -0.269 OA
ATOM      4  H   UNL d   1      10.310   7.625  -2.232  0.00  0.00     0.190 HD
ENDROOT
BRANCH   2   5
ATOM      5  C   UNL d   1       9.799   4.924  -1.988  0.00  0.00     0.218 C 
ATOM      6  C   UNL d   1       9.010   3.656  -1.528  0.00  0.00     0.050 C 
BRANCH   5   7
ATOM      7  O   UNL d   1      11.182   4.474  -2.017  0.00  0.00    -0.337 OA
BRANCH   7   8
ATOM      8  C   UNL d   1      12.149   5.375  -2.349  0.00  0.00     0.070 C 
ATOM      9  C   UNL d   1      13.218   5.097  -3.197  0.00  0.00     0.039 C 
ATOM     10  C   UNL d   1      14.210   6.091  -3.484  0.00  0.00     0.039 C 
ATOM     11  C   UNL d   1      14.023   7.409  -3.105  0.00  0.00     0.068 C 
ATOM     12  C   UNL d   1      13.004   7.596  -2.225  0.00  0.00     0.039 C 
ATOM     13  C   UNL d   1      12.238   6.567  -1.699  0.00  0.00     0.039 C 
BRANCH  11  14
ATOM     14  O   UNL d   1      14.860   8.429  -3.473  0.00  0.00    -0.352 OA
BRANCH  14  15
ATOM     15  C   UNL d   1      14.489   9.784  -3.077  0.00  0.00     0.171 C 
ATOM     16  C   UNL d   1      15.530  10.757  -3.604  0.00  0.00     0.034 C 
ENDBRANCH  14  15
ENDBRANCH  11  14
ENDBRANCH   7   8
ENDBRANCH   5   7
ENDBRANCH   2   5
BRANCH   1  17
ATOM     17  N   UNL d   1       9.777   8.490  -0.372  0.00  0.00    -0.249 N 
ATOM     18  C   UNL d   1      10.664   9.546  -0.443  0.00  0.00     0.334 C 
ATOM     19  N   UNL d   1      10.598  10.523   0.505  0.00  0.00    -0.342 N 
ATOM     20  O   UNL d   1      11.501   9.699  -1.336  0.00  0.00    -0.246 OA
ATOM     21  H   UNL d   1       9.734  10.640   1.012  0.00  0.00     0.164 HD
ATOM     22  H   UNL d   1       9.070   8.420   0.351  0.00  0.00     0.192 HD
BRANCH  19  23
ATOM     23  C   UNL d   1      11.518  11.672   0.372  0.00  0.00     0.124 C 
BRANCH  23  24
ATOM     24  C   UNL d   1      11.116  12.837   1.257  0.00  0.00     0.015 C 
ATOM     25  C   UNL d   1      12.100  13.997   1.181  0.00  0.00     0.006 C 
ENDBRANCH  23  24
ENDBRANCH  19  23
ENDBRANCH   1  17
TORSDOF 8
