REMARK  14 active torsions:
REMARK  status: ('A' for Active; 'I' for Inactive)
REMARK    1  A    between atoms: N_2  and  C_4 
REMARK    2  A    between atoms: C_6  and  S_7 
REMARK    3  A    between atoms: S_7  and  N_10 
REMARK    4  A    between atoms: C_17  and  O_18 
REMARK    5  A    between atoms: O_18  and  C_19 
REMARK    6  A    between atoms: C_20  and  C_19 
REMARK    7  A    between atoms: C_20  and  C_22 
REMARK    8  A    between atoms: C_20  and  O_21 
REMARK    9  A    between atoms: N_23  and  C_22 
REMARK   10  A    between atoms: N_23  and  C_27 
REMARK   11  A    between atoms: N_23  and  C_24 
REMARK   12  A    between atoms: C_24  and  C_25 
REMARK   13  A    between atoms: C_25  and  O_26 
REMARK   14  A    between atoms: C_27  and  C_28 
ROOT
ATOM      1  O   UNL d   1      -4.797   3.563   2.729  0.00  0.00    -0.346 OA
ENDROOT
BRANCH   1   2
ATOM      2  C   UNL d   1      -5.767   4.366   2.195  0.00  0.00     0.102 C 
ATOM      3  C   UNL d   1      -7.051   3.965   2.583  0.00  0.00     0.041 C 
ATOM      4  C   UNL d   1      -8.165   4.727   2.234  0.00  0.00     0.028 C 
ATOM      5  C   UNL d   1      -8.032   5.924   1.556  0.00  0.00     0.082 C 
ATOM      6  C   UNL d   1      -6.783   6.282   1.052  0.00  0.00     0.064 C 
ATOM      7  C   UNL d   1      -5.657   5.517   1.392  0.00  0.00     0.137 C 
BRANCH   5   8
ATOM      8  S   UNL d   1      -9.365   7.114   1.480  0.00  0.00     0.260 S 
ATOM      9  O   UNL d   1      -8.893   8.230   2.291  0.00  0.00    -0.200 OA
ATOM     10  O   UNL d   1      -9.659   7.261   0.083  0.00  0.00    -0.200 OA
BRANCH   8  11
ATOM     11  N   UNL d   1     -10.709   6.456   2.248  0.00  0.00    -0.307 N 
ATOM     12  C   UNL d   1     -10.838   6.150   3.681  0.00  0.00     0.135 C 
ATOM     13  C   UNL d   1     -11.335   4.703   3.689  0.00  0.00     0.022 C 
ATOM     14  C   UNL d   1     -12.237   4.637   2.466  0.00  0.00     0.022 C 
ATOM     15  C   UNL d   1     -11.706   5.689   1.490  0.00  0.00     0.135 C 
ENDBRANCH   8  11
ENDBRANCH   5   8
BRANCH   7  16
ATOM     16  N   UNL d   1      -4.389   6.101   0.983  0.00  0.00    -0.113 N 
ATOM     17  O   UNL d   1      -3.705   5.480   0.158  0.00  0.00    -0.532 OA
ATOM     18  O   UNL d   1      -4.083   7.181   1.494  0.00  0.00    -0.532 OA
ENDBRANCH   7  16
ENDBRANCH   1   2
BRANCH   1  19
ATOM     19  C   UNL d   1      -3.492   3.678   2.181  0.00  0.00     0.209 C 
BRANCH  19  20
ATOM     20  C   UNL d   1      -2.590   2.543   2.599  0.00  0.00     0.168 C 
BRANCH  20  21
ATOM     21  C   UNL d   1      -3.381   1.271   2.353  0.00  0.00     0.269 C 
BRANCH  21  22
ATOM     22  N   UNL d   1      -2.723   0.090   2.991  0.00  0.00    -0.063 N 
ATOM     23  H   UNL d   1      -2.448   0.317   3.960  0.00  0.00     0.280 HD
BRANCH  22  24
ATOM     24  C   UNL d   1      -3.691  -1.052   3.106  0.00  0.00     0.273 C 
BRANCH  24  25
ATOM     25  C   UNL d   1      -4.846  -0.868   4.059  0.00  0.00    -0.033 A 
ATOM     26  C   UNL d   1      -5.307   0.359   4.573  0.00  0.00     0.009 A 
ATOM     27  C   UNL d   1      -6.350   0.447   5.474  0.00  0.00     0.001 A 
ATOM     28  C   UNL d   1      -6.978  -0.706   5.885  0.00  0.00     0.000 A 
ATOM     29  C   UNL d   1      -6.544  -1.942   5.407  0.00  0.00     0.001 A 
ATOM     30  C   UNL d   1      -5.496  -2.028   4.491  0.00  0.00     0.009 A 
ENDBRANCH  24  25
ENDBRANCH  22  24
BRANCH  22  31
ATOM     31  C   UNL d   1      -1.456  -0.184   2.217  0.00  0.00     0.261 C 
BRANCH  31  32
ATOM     32  C   UNL d   1      -1.094  -1.646   2.078  0.00  0.00     0.192 C 
BRANCH  32  33
ATOM     33  O   UNL d   1       0.040  -1.768   1.242  0.00  0.00    -0.399 OA
ATOM     34  H   UNL d   1      -0.183  -1.440   0.351  0.00  0.00     0.209 HD
ENDBRANCH  32  33
ENDBRANCH  31  32
ENDBRANCH  22  31
ENDBRANCH  21  22
ENDBRANCH  20  21
BRANCH  20  35
ATOM     35  O   UNL d   1      -1.410   2.534   1.792  0.00  0.00    -0.392 OA
ATOM     36  H   UNL d   1      -1.666   2.470   0.850  0.00  0.00     0.210 HD
ENDBRANCH  20  35
ENDBRANCH  19  20
ENDBRANCH   1  19
TORSDOF 14
