@<TRIPOS>MOLECULE
*****
 43 44 0 0 0
SMALL
GASTEIGER

@<TRIPOS>ATOM
      1 C           2.5770    0.8319   -2.5385 C.3     1  UNL1       -0.0605
      2 C           2.5673   -0.6722   -2.3001 C.3     1  UNL1       -0.0197
      3 C           1.1605   -1.2330   -2.5210 C.3     1  UNL1       -0.0605
      4 C           3.1414   -1.0032   -0.9026 C.3     1  UNL1        0.1023
      5 N           2.6576   -0.0865    0.1847 N.am    1  UNL1       -0.2998
      6 C           3.2882    1.0949    0.5834 C.2     1  UNL1        0.2447
      7 O           4.3560    1.5568    0.2051 O.2     1  UNL1       -0.2702
      8 C           2.6180    1.9821    1.5385 C.ar    1  UNL1        0.0367
      9 C           2.9360    3.3516    1.4495 C.ar    1  UNL1       -0.0496
     10 C           2.4907    4.2382    2.4161 C.ar    1  UNL1       -0.0610
     11 C           1.6483    3.7726    3.4194 C.ar    1  UNL1       -0.0617
     12 C           1.3384    2.4102    3.5137 C.ar    1  UNL1       -0.0610
     13 C           1.8406    1.5018    2.5834 C.ar    1  UNL1       -0.0496
     14 C           4.6838   -1.0974   -0.9857 C.2     1  UNL1        0.2378
     15 O           5.4168   -0.2986   -0.4148 O.2     1  UNL1       -0.2734
     16 N           5.3045   -2.0456   -1.7733 N.am    1  UNL1       -0.2829
     17 C           6.7358   -2.0729   -1.7446 C.ar    1  UNL1        0.0509
     18 C           7.4373   -2.1474   -2.9550 C.ar    1  UNL1       -0.0392
     19 C           8.8307   -2.2800   -2.9454 C.ar    1  UNL1       -0.0599
     20 C           9.5366   -2.2397   -1.7432 C.ar    1  UNL1       -0.0604
     21 C           8.8551   -2.1079   -0.5377 C.ar    1  UNL1       -0.0425
     22 C           7.4610   -2.0290   -0.5199 C.ar    1  UNL1        0.0729
     23 C           6.8329   -1.9578    0.7771 C.1     1  UNL1        0.1010
     24 N           6.3056   -1.9095    1.8209 N.1     1  UNL1       -0.1908
     25 H           2.2306    1.0757   -3.5443 H       1  UNL1        0.0233
     26 H           3.5899    1.2273   -2.4153 H       1  UNL1        0.0233
     27 H           1.9153    1.3410   -1.8302 H       1  UNL1        0.0233
     28 H           3.1944   -1.1384   -3.0713 H       1  UNL1        0.0318
     29 H           0.4393   -0.8002   -1.8227 H       1  UNL1        0.0233
     30 H           1.1439   -2.3228   -2.4084 H       1  UNL1        0.0233
     31 H           0.8221   -1.0087   -3.5404 H       1  UNL1        0.0233
     32 H           2.7840   -2.0004   -0.6004 H       1  UNL1        0.0597
     33 H           1.6688   -0.1339    0.3892 H       1  UNL1        0.1498
     34 H           3.5715    3.7127    0.6391 H       1  UNL1        0.0625
     35 H           2.8172    5.2739    2.3929 H       1  UNL1        0.0618
     36 H           1.2423    4.4756    4.1401 H       1  UNL1        0.0618
     37 H           0.7300    2.0526    4.3382 H       1  UNL1        0.0618
     38 H           1.6688    0.4376    2.7038 H       1  UNL1        0.0625
     39 H           4.8185   -2.4731   -2.5495 H       1  UNL1        0.1549
     40 H           6.9321   -2.0380   -3.9125 H       1  UNL1        0.0636
     41 H           9.3755   -2.4199   -3.8765 H       1  UNL1        0.0618
     42 H          10.6213   -2.3048   -1.7398 H       1  UNL1        0.0618
     43 H           9.4048   -2.0965    0.4007 H       1  UNL1        0.0631
@<TRIPOS>BOND
     1     1     2    1
     2     2     3    1
     3     5     6   am
     4     6     7    2
     5     6     8    1
     6     8     9   ar
     7     9    10   ar
     8    10    11   ar
     9    11    12   ar
    10    12    13   ar
    11     8    13   ar
    12     4    14    1
    13    14    15    2
    14    14    16   am
    15    16    17    1
    16    17    18   ar
    17    18    19   ar
    18    19    20   ar
    19    20    21   ar
    20    21    22   ar
    21    17    22   ar
    22    22    23    1
    23    23    24    3
    24     4     5    1
    25     4     2    1
    26     1    25    1
    27     1    26    1
    28     1    27    1
    29     2    28    1
    30     3    29    1
    31     3    30    1
    32     3    31    1
    33     4    32    1
    34     5    33    1
    35     9    34    1
    36    10    35    1
    37    11    36    1
    38    12    37    1
    39    13    38    1
    40    16    39    1
    41    18    40    1
    42    19    41    1
    43    20    42    1
    44    21    43    1
