@<TRIPOS>MOLECULE
*****
 32 33 0 0 0
SMALL
GASTEIGER

@<TRIPOS>ATOM
      1 O           1.1312    0.0815    0.1488 O.2     1  UNL1       -0.2636
      2 C           2.3638    0.0989    0.0992 C.2     1  UNL1        0.3153
      3 N           3.1153    1.0198    0.8284 N.am    1  UNL1       -0.2286
      4 N           2.4385    1.6657    1.8843 N.pl3   1  UNL1       -0.2627
      5 C           3.0751    2.7216    2.5703 C.ar    1  UNL1        0.0628
      6 C           4.1722    3.4125    2.0351 C.ar    1  UNL1       -0.0366
      7 C           4.8308    4.4076    2.7696 C.ar    1  UNL1       -0.0415
      8 C           4.4112    4.7181    4.0601 C.ar    1  UNL1        0.0425
      9 CL          5.2282    5.9432    4.9499 Cl      1  UNL1       -0.0835
     10 C           3.3330    4.0482    4.6253 C.ar    1  UNL1       -0.0232
     11 C           2.6660    3.0670    3.8806 C.ar    1  UNL1        0.0646
     12 CL          1.3466    2.2449    4.6444 Cl      1  UNL1       -0.0815
     13 C           3.1065   -0.9272   -0.7979 C.2     1  UNL1        0.3047
     14 O           2.4114   -1.7329   -1.4191 O.2     1  UNL1       -0.2648
     15 N           4.5084   -0.9528   -0.8026 N.am    1  UNL1       -0.2753
     16 C           5.2318   -1.7872   -1.7081 C.ar    1  UNL1        0.0693
     17 C           6.4186   -2.4188   -1.3083 C.ar    1  UNL1       -0.0377
     18 C           7.1261   -3.2342   -2.2121 C.ar    1  UNL1       -0.0598
     19 C           6.6797   -3.3930   -3.5255 C.ar    1  UNL1       -0.0589
     20 C           5.5212   -2.7449   -3.9373 C.ar    1  UNL1       -0.0246
     21 C           4.8097   -1.9573   -3.0360 C.ar    1  UNL1        0.1445
     22 F           3.7656   -1.2647   -3.5134 F       1  UNL1       -0.2035
     23 H           4.1066    0.8980    0.9739 H       1  UNL1        0.1732
     24 H           1.4145    1.7303    1.7944 H       1  UNL1        0.1700
     25 H           4.5105    3.2141    1.0223 H       1  UNL1        0.0637
     26 H           5.6671    4.9411    2.3241 H       1  UNL1        0.0633
     27 H           3.0168    4.2817    5.6391 H       1  UNL1        0.0647
     28 H           5.0366   -0.5078   -0.0698 H       1  UNL1        0.1554
     29 H           6.7902   -2.3428   -0.2896 H       1  UNL1        0.0637
     30 H           8.0285   -3.7562   -1.8956 H       1  UNL1        0.0618
     31 H           7.2336   -4.0095   -4.2305 H       1  UNL1        0.0618
     32 H           5.1659   -2.8242   -4.9598 H       1  UNL1        0.0647
@<TRIPOS>BOND
     1     1     2    2
     2     2     3   am
     3     3     4    1
     4     4     5    1
     5     5     6   ar
     6     6     7   ar
     7     7     8   ar
     8     8     9    1
     9     8    10   ar
    10    10    11   ar
    11     5    11   ar
    12    11    12    1
    13     2    13    1
    14    13    14    2
    15    13    15   am
    16    15    16    1
    17    16    17   ar
    18    17    18   ar
    19    18    19   ar
    20    19    20   ar
    21    20    21   ar
    22    16    21   ar
    23    21    22    1
    24     3    23    1
    25     4    24    1
    26     6    25    1
    27     7    26    1
    28    10    27    1
    29    15    28    1
    30    17    29    1
    31    18    30    1
    32    19    31    1
    33    20    32    1
