REMARK  3 active torsions:
REMARK  status: ('A' for Active; 'I' for Inactive)
REMARK    1  A    between atoms: C_7  and  N_8 
REMARK       I    between atoms: N_8  and  C_9 
REMARK    2  A    between atoms: C_9  and  C_11 
REMARK    3  A    between atoms: C_16  and  O_17 
ROOT
ATOM      1  N   UNL d   1      -0.703   2.527  -0.013  0.00  0.00    -0.321 N 
ATOM      2  C   UNL d   1      -0.081   3.766  -0.043  0.00  0.00     0.259 C 
ATOM      3  O   UNL d   1       1.131   3.983  -0.088  0.00  0.00    -0.267 OA
ATOM      4  H   UNL d   1      -1.720   2.508   0.029  0.00  0.00     0.169 HD
ENDROOT
BRANCH   1   5
ATOM      5  C   UNL d   1      -0.042   1.266   0.000  0.00  0.00     0.057 A 
ATOM      6  C   UNL d   1      -0.765   0.060   0.008  0.00  0.00     0.060 A 
ATOM      7  C   UNL d   1      -0.098  -1.176   0.015  0.00  0.00     0.026 A 
ATOM      8 CL   UNL d   1      -2.495   0.042   0.002  0.00  0.00    -0.082 Cl
ATOM      9  C   UNL d   1       1.297  -1.228   0.003  0.00  0.00     0.008 A 
ATOM     10  C   UNL d   1       2.032  -0.047   0.000  0.00  0.00    -0.060 A 
ATOM     11  C   UNL d   1       3.531  -0.039  -0.010  0.00  0.00     0.048 C 
ATOM     12  C   UNL d   1       1.355   1.178   0.008  0.00  0.00     0.038 A 
ENDBRANCH   1   5
BRANCH   2  13
ATOM     13  C   UNL d   1      -0.933   4.973  -0.060  0.00  0.00     0.065 A 
ATOM     14  C   UNL d   1      -0.528   6.030  -0.893  0.00  0.00     0.020 A 
ATOM     15  C   UNL d   1      -1.215   7.242  -0.883  0.00  0.00     0.001 A 
ATOM     16  C   UNL d   1      -2.293   7.411  -0.018  0.00  0.00     0.003 A 
ATOM     17  C   UNL d   1      -2.692   6.369   0.828  0.00  0.00     0.037 A 
ATOM     18  C   UNL d   1      -2.020   5.144   0.797  0.00  0.00     0.081 A 
BRANCH  18  19
ATOM     19  O   UNL d   1      -2.403   4.122   1.619  0.00  0.00    -0.360 OA
ATOM     20  H   UNL d   1      -3.123   4.419   2.198  0.00  0.00     0.217 HD
ENDBRANCH  18  19
ENDBRANCH   2  13
TORSDOF 3
