@<TRIPOS>MOLECULE
*****
 66 68 0 0 0
SMALL
GASTEIGER

@<TRIPOS>ATOM
      1 C          -5.2984   -4.8807   -5.4606 C.3     1  UNL1       -0.0394
      2 C          -4.5680   -5.2328   -4.1941 C.ar    1  UNL1       -0.0458
      3 C          -4.6546   -6.4930   -3.6593 C.ar    1  UNL1       -0.0585
      4 C          -3.8666   -6.7278   -2.5701 C.ar    1  UNL1       -0.0597
      5 C          -3.0930   -5.6699   -2.0340 C.ar    1  UNL1       -0.0400
      6 C          -3.2068   -4.3140   -2.2801 C.ar    1  UNL1        0.0409
      7 N          -2.6453   -3.1954   -1.4034 N.am    1  UNL1       -0.2506
      8 C          -2.8844   -1.6551   -1.5329 C.2     1  UNL1        0.2617
      9 O          -2.3083   -0.9138   -0.7062 O.2     1  UNL1       -0.2689
     10 C          -3.7919   -0.9731   -2.5269 C.ar    1  UNL1        0.1156
     11 S          -3.1843    0.1124   -3.7641 S.2     1  UNL1        0.0190
     12 N          -4.4796   -0.0731   -4.8486 N.ar    1  UNL1       -0.2031
     13 C          -5.4654   -0.7553   -4.2359 C.ar    1  UNL1        0.1554
     14 C          -6.6204   -1.3584   -4.9967 C.2     1  UNL1        0.2624
     15 N          -6.8155   -1.0811   -6.3273 N.am    1  UNL1       -0.3240
     16 O          -7.3688   -2.2018   -4.4894 O.2     1  UNL1       -0.2687
     17 C          -5.1183   -1.2067   -2.8570 C.ar    1  UNL1        0.0765
     18 N          -5.8397   -2.1361   -2.1734 N.pl3   1  UNL1       -0.3551
     19 C          -1.8562   -3.5586   -0.0844 C.3     1  UNL1        0.1323
     20 C          -0.4650   -2.8040   -0.0381 C.2     1  UNL1        0.2385
     21 O           0.0346   -2.2238   -1.0018 O.2     1  UNL1       -0.2734
     22 N           0.2649   -3.0092    1.1432 N.am    1  UNL1       -0.3135
     23 C           1.6857   -2.7585    1.1026 C.3     1  UNL1        0.0119
     24 C           2.4260   -3.3769    2.2845 C.3     1  UNL1       -0.0350
     25 C           3.9039   -2.9553    2.3106 C.3     1  UNL1       -0.0453
     26 C           4.0401   -1.4330    2.3751 C.3     1  UNL1       -0.0626
     27 C           4.6098   -3.5824    3.5117 C.3     1  UNL1       -0.0626
     28 C          -1.5407   -5.0715    0.2693 C.ar    1  UNL1       -0.0177
     29 C          -0.2441   -5.6152    0.0158 C.ar    1  UNL1       -0.0536
     30 C           0.0183   -6.9845    0.0249 C.ar    1  UNL1       -0.0261
     31 C          -1.0361   -7.8593    0.1843 C.ar    1  UNL1        0.1234
     32 F          -0.8440   -9.1626   -0.0580 F       1  UNL1       -0.2055
     33 C          -2.3115   -7.3801    0.4837 C.ar    1  UNL1       -0.0261
     34 C          -2.5515   -5.9904    0.6354 C.ar    1  UNL1       -0.0536
     35 C          -3.8045   -4.2163   -3.5256 C.ar    1  UNL1       -0.0261
     36 C          -3.5869   -3.0391   -4.3472 C.3     1  UNL1       -0.0377
     37 H          -5.6838   -5.7526   -5.9828 H       1  UNL1        0.0278
     38 H          -4.6394   -4.3454   -6.1539 H       1  UNL1        0.0278
     39 H          -6.1378   -4.2324   -5.1998 H       1  UNL1        0.0278
     40 H          -5.1927   -7.2903   -4.1571 H       1  UNL1        0.0620
     41 H          -3.7489   -7.7364   -2.1846 H       1  UNL1        0.0618
     42 H          -2.1938   -6.0369   -1.5894 H       1  UNL1        0.0636
     43 H          -6.2325   -0.4581   -6.8654 H       1  UNL1        0.1453
     44 H          -7.6252   -1.5064   -6.7682 H       1  UNL1        0.1453
     45 H          -6.4845   -2.6827   -2.7585 H       1  UNL1        0.1424
     46 H          -5.3045   -2.7966   -1.6117 H       1  UNL1        0.1424
     47 H          -2.4529   -3.1515    0.7476 H       1  UNL1        0.0651
     48 H          -0.0617   -3.7146    1.7949 H       1  UNL1        0.1487
     49 H           1.7748   -1.6732    1.0730 H       1  UNL1        0.0462
     50 H           2.1032   -3.1553    0.1674 H       1  UNL1        0.0462
     51 H           2.3582   -4.4735    2.2297 H       1  UNL1        0.0283
     52 H           1.9348   -3.0883    3.2214 H       1  UNL1        0.0283
     53 H           4.3942   -3.3146    1.3960 H       1  UNL1        0.0296
     54 H           3.5248   -1.0387    3.2576 H       1  UNL1        0.0232
     55 H           3.6154   -0.9481    1.4918 H       1  UNL1        0.0232
     56 H           5.0894   -1.1319    2.4171 H       1  UNL1        0.0232
     57 H           4.1470   -3.2579    4.4501 H       1  UNL1        0.0232
     58 H           5.6646   -3.2893    3.5359 H       1  UNL1        0.0232
     59 H           4.5641   -4.6754    3.4701 H       1  UNL1        0.0232
     60 H           0.5945   -4.9901   -0.2846 H       1  UNL1        0.0622
     61 H           1.0145   -7.3528   -0.2014 H       1  UNL1        0.0646
     62 H          -3.1461   -8.0764    0.4101 H       1  UNL1        0.0646
     63 H          -3.5871   -5.6576    0.7211 H       1  UNL1        0.0622
     64 H          -2.9557   -2.4377   -3.7455 H       1  UNL1        0.0278
     65 H          -4.6004   -2.7361   -4.5362 H       1  UNL1        0.0278
     66 H          -3.0464   -3.0651   -5.2784 H       1  UNL1        0.0278
@<TRIPOS>BOND
     1     1     2    1
     2     2     3   ar
     3     3     4   ar
     4     4     5   ar
     5     5     6   ar
     6     6     7    1
     7     7     8   am
     8     8     9    2
     9     8    10    1
    10    10    11   ar
    11    11    12   ar
    12    12    13   ar
    13    13    14    1
    14    14    15   am
    15    14    16    2
    16    13    17   ar
    17    10    17   ar
    18    17    18    1
    19    20    21    2
    20    20    22   am
    21    22    23    1
    22    23    24    1
    23    24    25    1
    24    25    26    1
    25    25    27    1
    26    19    28    1
    27    28    29   ar
    28    29    30   ar
    29    30    31   ar
    30    31    32    1
    31    31    33   ar
    32    33    34   ar
    33    28    34   ar
    34     6    35   ar
    35     2    35   ar
    36    35    36    1
    37    19    20    1
    38    19     7    1
    39     1    37    1
    40     1    38    1
    41     1    39    1
    42     3    40    1
    43     4    41    1
    44     5    42    1
    45    15    43    1
    46    15    44    1
    47    18    45    1
    48    18    46    1
    49    19    47    1
    50    22    48    1
    51    23    49    1
    52    23    50    1
    53    24    51    1
    54    24    52    1
    55    25    53    1
    56    26    54    1
    57    26    55    1
    58    26    56    1
    59    27    57    1
    60    27    58    1
    61    27    59    1
    62    29    60    1
    63    30    61    1
    64    33    62    1
    65    34    63    1
    66    36    64    1
    67    36    65    1
    68    36    66    1
