REMARK  8 active torsions:
REMARK  status: ('A' for Active; 'I' for Inactive)
REMARK    1  A    between atoms: C_2  and  N_3 
REMARK       I    between atoms: N_3  and  C_4 
REMARK    2  A    between atoms: C_4  and  C_6 
REMARK    3  A    between atoms: C_6  and  O_7 
REMARK    4  A    between atoms: O_7  and  C_8 
REMARK    5  A    between atoms: C_12  and  N_13 
REMARK    6  A    between atoms: C_14  and  N_13 
REMARK    7  A    between atoms: C_14  and  C_16 
REMARK       I    between atoms: C_16  and  N_18 
REMARK       I    between atoms: N_18  and  C_19 
REMARK       I    between atoms: C_19  and  N_21 
REMARK    8  A    between atoms: N_21  and  C_22 
ROOT
ATOM      1  N   UNL d   1       5.846  -5.955  -3.971  0.00  0.00    -0.377 N 
ATOM      2  H   UNL d   1       5.973  -5.114  -3.410  0.00  0.00     0.160 HD
ENDROOT
BRANCH   1   3
ATOM      3  C   UNL d   1       6.364  -5.872  -5.260  0.00  0.00     0.031 C 
ATOM      4  C   UNL d   1       6.683  -6.993  -6.032  0.00  0.00     0.029 C 
ATOM      5  C   UNL d   1       6.772  -6.953  -7.415  0.00  0.00     0.005 C 
ATOM      6  C   UNL d   1       6.771  -5.727  -8.048  0.00  0.00     0.037 C 
ATOM      7  C   UNL d   1       6.592  -4.561  -7.302  0.00  0.00     0.071 C 
ATOM      8  C   UNL d   1       6.355  -4.636  -5.923  0.00  0.00     0.065 C 
BRANCH   7   9
ATOM      9  O   UNL d   1       6.518  -3.417  -8.041  0.00  0.00    -0.342 OA
BRANCH   9  10
ATOM     10  C   UNL d   1       7.073  -2.235  -7.471  0.00  0.00     0.278 C 
BRANCH  10  11
ATOM     11  C   UNL d   1       6.779  -1.063  -8.421  0.00  0.00     0.241 C 
ATOM     12  N   UNL d   1       7.315   0.159  -8.044  0.00  0.00    -0.360 N 
ATOM     13  H   UNL d   1       7.870   0.241  -7.202  0.00  0.00     0.162 HD
ATOM     14  O   UNL d   1       6.104  -1.177  -9.442  0.00  0.00    -0.271 OA
BRANCH  12  15
ATOM     15  C   UNL d   1       7.099   1.328  -8.879  0.00  0.00     0.118 C 
ATOM     16  C   UNL d   1       7.763   2.577  -8.331  0.00  0.00     0.026 C 
ENDBRANCH  12  15
ENDBRANCH  10  11
ENDBRANCH   9  10
ENDBRANCH   7   9
ENDBRANCH   1   3
BRANCH   1  17
ATOM     17  C   UNL d   1       5.725  -7.189  -3.167  0.00  0.00     0.170 C 
ATOM     18  C   UNL d   1       6.991  -7.389  -2.309  0.00  0.00     0.042 C 
BRANCH  17  19
ATOM     19  C   UNL d   1       5.414  -8.477  -3.963  0.00  0.00     0.247 C 
ATOM     20  O   UNL d   1       6.148  -9.456  -3.780  0.00  0.00    -0.271 OA
ATOM     21  N   UNL d   1       4.333  -8.459  -4.853  0.00  0.00    -0.278 N 
ATOM     22  C   UNL d   1       4.280  -9.438  -5.814  0.00  0.00     0.323 C 
ATOM     23  H   UNL d   1       3.942  -7.552  -5.068  0.00  0.00     0.173 HD
ATOM     24  O   UNL d   1       5.030 -10.415  -5.781  0.00  0.00    -0.247 OA
ATOM     25  N   UNL d   1       3.326  -9.334  -6.803  0.00  0.00    -0.338 N 
ATOM     26  H   UNL d   1       2.651  -8.581  -6.786  0.00  0.00     0.164 HD
BRANCH  25  27
ATOM     27  C   UNL d   1       3.108 -10.419  -7.795  0.00  0.00     0.086 C 
ATOM     28  C   UNL d   1       4.385 -11.048  -8.379  0.00  0.00     0.025 C 
ATOM     29  C   UNL d   1       3.990 -12.413  -8.911  0.00  0.00     0.002 C 
ATOM     30  C   UNL d   1       2.760 -12.832  -8.114  0.00  0.00     0.002 C 
ATOM     31  C   UNL d   1       2.350 -11.635  -7.246  0.00  0.00     0.025 C 
ENDBRANCH  25  27
ENDBRANCH  17  19
ENDBRANCH   1  17
TORSDOF 8
