@<TRIPOS>MOLECULE
*****
 51 52 0 0 0
SMALL
GASTEIGER

@<TRIPOS>ATOM
      1 O           1.0575   -0.0416    0.0220 O.2     1  UNL1       -0.2741
      2 C           2.2875   -0.0778    0.0858 C.2     1  UNL1        0.2303
      3 C           3.0334   -0.7243    1.2629 C.3     1  UNL1        0.0896
      4 N           2.1620   -1.2925    2.2833 N.am    1  UNL1       -0.2908
      5 C           2.6947   -1.9044    3.3889 C.2     1  UNL1        0.3000
      6 O           3.9047   -1.9905    3.5866 O.2     1  UNL1       -0.2529
      7 N           1.7545   -2.4113    4.2390 N.am    1  UNL1       -0.2991
      8 C           2.0946   -3.0551    5.5061 C.3     1  UNL1        0.0159
      9 C           0.9004   -3.5396    6.3535 C.3     1  UNL1       -0.0254
     10 C          -0.4165   -2.8007    6.1274 C.3     1  UNL1       -0.0488
     11 C          -1.4886   -3.7171    6.6893 C.3     1  UNL1       -0.0527
     12 C          -0.9350   -5.1323    6.5474 C.3     1  UNL1       -0.0527
     13 C           0.5162   -4.9963    6.0849 C.3     1  UNL1       -0.0488
     14 N           3.0314    0.4802   -0.9275 N.am    1  UNL1       -0.3125
     15 C           4.4872    0.5189   -1.0240 C.3     1  UNL1        0.0271
     16 C           5.0023    1.2136   -2.2967 C.3     1  UNL1        0.0247
     17 N           6.4548    1.1388   -2.4124 N.pl3   1  UNL1       -0.3423
     18 C           7.1408    1.8304   -3.3987 C.ar    1  UNL1        0.0276
     19 C           8.2615    1.2420   -4.0040 C.ar    1  UNL1       -0.0344
     20 C           8.9676    1.8967   -5.0241 C.ar    1  UNL1        0.0173
     21 C           8.5127    3.1350   -5.4879 C.ar    1  UNL1        0.2733
     22 N           9.1433    3.7629   -6.6560 N.pl3   1  UNL1        0.0796
     23 O          10.0934    3.1711   -7.1877 O.2     1  UNL1        0.0414
     24 O           8.6709    4.8364   -7.0584 O.co2   1  UNL1       -0.5760
     25 C           7.4137    3.7495   -4.8847 C.ar    1  UNL1        0.0173
     26 C           6.7398    3.0932   -3.8500 C.ar    1  UNL1       -0.0344
     27 H           3.6610    0.0332    1.7423 H       1  UNL1        0.0558
     28 H           3.6639   -1.5323    0.8799 H       1  UNL1        0.0558
     29 H           1.1624   -1.2118    2.1448 H       1  UNL1        0.1507
     30 H           0.7941   -2.2540    3.9891 H       1  UNL1        0.1502
     31 H           2.6860   -2.3386    6.0901 H       1  UNL1        0.0465
     32 H           2.7655   -3.8953    5.2853 H       1  UNL1        0.0465
     33 H           1.1791   -3.4694    7.4171 H       1  UNL1        0.0316
     34 H          -0.6445   -2.6907    5.0654 H       1  UNL1        0.0268
     35 H          -0.4208   -1.8051    6.5797 H       1  UNL1        0.0268
     36 H          -2.4241   -3.5980    6.1313 H       1  UNL1        0.0265
     37 H          -1.6946   -3.4801    7.7378 H       1  UNL1        0.0265
     38 H          -1.5098   -5.7114    5.8163 H       1  UNL1        0.0265
     39 H          -1.0042   -5.6610    7.5045 H       1  UNL1        0.0265
     40 H           0.5879   -5.2203    5.0153 H       1  UNL1        0.0268
     41 H           1.1684   -5.7007    6.6145 H       1  UNL1        0.0268
     42 H           2.4724    0.8824   -1.6737 H       1  UNL1        0.1488
     43 H           4.8528   -0.5120   -0.9817 H       1  UNL1        0.0477
     44 H           4.8631    1.0423   -0.1380 H       1  UNL1        0.0477
     45 H           4.6430    2.2481   -2.2938 H       1  UNL1        0.0476
     46 H           4.5700    0.7217   -3.1766 H       1  UNL1        0.0476
     47 H           7.0042    0.7826   -1.6355 H       1  UNL1        0.1461
     48 H           8.5644    0.2348   -3.7219 H       1  UNL1        0.0638
     49 H           9.8466    1.4215   -5.4546 H       1  UNL1        0.0686
     50 H           7.0615    4.7274   -5.2051 H       1  UNL1        0.0686
     51 H           5.8989    3.6023   -3.3893 H       1  UNL1        0.0638
@<TRIPOS>UNITY_ATOM_ATTR
22 1
charge 1
24 1
charge -1
@<TRIPOS>BOND
     1     1     2    2
     2     2     3    1
     3     3     4    1
     4     4     5   am
     5     5     6    2
     6     5     7   am
     7     7     8    1
     8     8     9    1
     9     9    10    1
    10    10    11    1
    11    11    12    1
    12    12    13    1
    13     9    13    1
    14     2    14   am
    15    14    15    1
    16    15    16    1
    17    16    17    1
    18    17    18    1
    19    18    19   ar
    20    19    20   ar
    21    20    21   ar
    22    21    22    1
    23    22    23    2
    24    22    24    1
    25    21    25   ar
    26    25    26   ar
    27    18    26   ar
    28     3    27    1
    29     3    28    1
    30     4    29    1
    31     7    30    1
    32     8    31    1
    33     8    32    1
    34     9    33    1
    35    10    34    1
    36    10    35    1
    37    11    36    1
    38    11    37    1
    39    12    38    1
    40    12    39    1
    41    13    40    1
    42    13    41    1
    43    14    42    1
    44    15    43    1
    45    15    44    1
    46    16    45    1
    47    16    46    1
    48    17    47    1
    49    19    48    1
    50    20    49    1
    51    25    50    1
    52    26    51    1
