REMARK  5 active torsions:
REMARK  status: ('A' for Active; 'I' for Inactive)
REMARK    1  A    between atoms: C_2  and  C_4 
REMARK    2  A    between atoms: C_4  and  N_5 
REMARK       I    between atoms: N_5  and  C_6 
REMARK       I    between atoms: C_6  and  N_8 
REMARK    3  A    between atoms: N_8  and  N_9 
REMARK       I    between atoms: N_9  and  C_10 
REMARK    4  A    between atoms: C_10  and  C_12 
REMARK    5  A    between atoms: C_14  and  C_15 
ROOT
ATOM      1  N   UNL d   1       7.519   0.857  -3.852  0.00  0.00    -0.264 N 
ATOM      2  C   UNL d   1       8.912   0.816  -3.784  0.00  0.00     0.268 C 
ATOM      3  O   UNL d   1       9.485   0.583  -2.716  0.00  0.00    -0.269 OA
ATOM      4  H   UNL d   1       6.984   0.974  -4.712  0.00  0.00     0.190 HD
ENDROOT
BRANCH   2   5
ATOM      5  C   UNL d   1       9.686   1.123  -5.101  0.00  0.00     0.253 C 
ATOM      6  C   UNL d   1      10.175   2.562  -5.166  0.00  0.00     0.107 C 
ATOM      7  C   UNL d   1      11.611   2.348  -5.501  0.00  0.00     0.075 C 
ATOM      8  N   UNL d   1      11.978   1.111  -5.577  0.00  0.00    -0.137 NA
ATOM      9  O   UNL d   1      10.865   0.310  -5.209  0.00  0.00    -0.241 OA
BRANCH   7  10
ATOM     10  C   UNL d   1      12.545   3.479  -5.725  0.00  0.00    -0.009 A 
ATOM     11  C   UNL d   1      13.352   3.521  -6.870  0.00  0.00     0.013 A 
ATOM     12  C   UNL d   1      14.334   4.512  -7.001  0.00  0.00     0.001 A 
ATOM     13  C   UNL d   1      14.477   5.492  -6.018  0.00  0.00     0.000 A 
ATOM     14  C   UNL d   1      13.664   5.460  -4.885  0.00  0.00     0.001 A 
ATOM     15  C   UNL d   1      12.703   4.453  -4.734  0.00  0.00     0.013 A 
ENDBRANCH   7  10
ENDBRANCH   2   5
BRANCH   1  16
ATOM     16  N   UNL d   1       6.736   0.587  -2.674  0.00  0.00    -0.249 N 
ATOM     17  C   UNL d   1       5.351   0.592  -2.753  0.00  0.00     0.334 C 
ATOM     18  N   UNL d   1       4.697   0.356  -1.560  0.00  0.00    -0.341 N 
ATOM     19  O   UNL d   1       4.761   0.805  -3.815  0.00  0.00    -0.246 OA
ATOM     20  H   UNL d   1       5.237   0.181  -0.726  0.00  0.00     0.164 HD
ATOM     21  H   UNL d   1       7.258   0.376  -1.827  0.00  0.00     0.192 HD
BRANCH  18  22
ATOM     22  C   UNL d   1       3.229   0.315  -1.473  0.00  0.00     0.128 C 
BRANCH  22  23
ATOM     23  C   UNL d   1       2.669   0.001  -0.065  0.00  0.00    -0.005 C 
ATOM     24  C   UNL d   1       1.131   0.025  -0.055  0.00  0.00     0.011 C 
ATOM     25  C   UNL d   1       3.137  -1.370   0.425  0.00  0.00     0.011 C 
ENDBRANCH  22  23
ENDBRANCH  18  22
ENDBRANCH   1  16
TORSDOF 5
