@<TRIPOS>MOLECULE
*****
 30 31 0 0 0
SMALL
GASTEIGER

@<TRIPOS>ATOM
      1 C           2.5134   -0.2036   -0.0050 C.3     1  UNL1       -0.0390
      2 C           1.0268   -0.0343    0.0090 C.ar    1  UNL1       -0.0383
      3 C           0.2672   -1.2217    0.0081 C.ar    1  UNL1       -0.0581
      4 C          -1.1236   -1.1955    0.0011 C.ar    1  UNL1       -0.0615
      5 C          -1.7851    0.0231   -0.0038 C.ar    1  UNL1       -0.0610
      6 C          -1.0490    1.2124    0.0041 C.ar    1  UNL1       -0.0494
      7 C           0.3661    1.2150    0.0063 C.ar    1  UNL1        0.0399
      8 C           1.0216    2.5811   -0.0098 C.2     1  UNL1        0.2486
      9 O           0.2822    3.5690   -0.0957 O.2     1  UNL1       -0.2698
     10 N           2.4062    2.6684   -0.0246 N.am    1  UNL1       -0.2785
     11 C           3.1433    3.8605    0.0066 C.ar    1  UNL1        0.0770
     12 C           4.2784    3.9559   -0.8095 C.ar    1  UNL1       -0.0185
     13 C           4.9999    5.1458   -0.8320 C.ar    1  UNL1        0.0430
     14 CL          6.3512    5.3126   -1.8857 Cl      1  UNL1       -0.0835
     15 C           4.6219    6.2142   -0.0187 C.ar    1  UNL1       -0.0398
     16 C           3.5305    6.0889    0.8447 C.ar    1  UNL1       -0.0170
     17 C           2.8098    4.9029    0.8703 C.ar    1  UNL1        0.1381
     18 O           1.8655    4.6937    1.8354 O.3     1  UNL1       -0.5049
     19 H           2.8329   -1.2468    0.0125 H       1  UNL1        0.0278
     20 H           2.9426    0.2704    0.8847 H       1  UNL1        0.0278
     21 H           2.9109    0.2111   -0.9381 H       1  UNL1        0.0278
     22 H           0.7699   -2.1875    0.0075 H       1  UNL1        0.0620
     23 H          -1.6833   -2.1270   -0.0028 H       1  UNL1        0.0618
     24 H          -2.8720    0.0516   -0.0169 H       1  UNL1        0.0618
     25 H          -1.6004    2.1535    0.0026 H       1  UNL1        0.0625
     26 H           2.9736    1.8771   -0.2342 H       1  UNL1        0.1552
     27 H           4.5707    3.1371   -1.4628 H       1  UNL1        0.0652
     28 H           5.1841    7.1426   -0.0390 H       1  UNL1        0.0633
     29 H           3.2685    6.9058    1.5067 H       1  UNL1        0.0655
     30 H           1.5713    5.5440    2.1908 H       1  UNL1        0.2922
@<TRIPOS>BOND
     1     1     2    1
     2     2     3   ar
     3     3     4   ar
     4     4     5   ar
     5     5     6   ar
     6     6     7   ar
     7     2     7   ar
     8     7     8    1
     9     8     9    2
    10     8    10   am
    11    10    11    1
    12    11    12   ar
    13    12    13   ar
    14    13    14    1
    15    13    15   ar
    16    15    16   ar
    17    16    17   ar
    18    11    17   ar
    19    17    18    1
    20     1    19    1
    21     1    20    1
    22     1    21    1
    23     3    22    1
    24     4    23    1
    25     5    24    1
    26     6    25    1
    27    10    26    1
    28    12    27    1
    29    15    28    1
    30    16    29    1
    31    18    30    1
