@<TRIPOS>MOLECULE
*****
 28 29 0 0 0
SMALL
GASTEIGER

@<TRIPOS>ATOM
      1 C           2.1188   -0.0131   -0.0007 C.3     1  UNL1       -0.0063
      2 C           0.6372   -0.1156   -0.0009 C.ar    1  UNL1        0.1029
      3 C          -0.2052   -1.2031   -0.0060 C.ar    1  UNL1       -0.0202
      4 C          -1.5243   -0.6916    0.0010 C.ar    1  UNL1       -0.0110
      5 C          -1.4425    0.6923    0.0197 C.ar    1  UNL1        0.1909
      6 C          -2.4788    1.7306    0.0579 C.2     1  UNL1        0.2954
      7 O          -2.2424    2.9442    0.0160 O.2     1  UNL1       -0.2653
      8 N          -3.8027    1.2577    0.1586 N.am    1  UNL1       -0.2299
      9 N          -4.8623    2.1545   -0.0594 N.pl3   1  UNL1       -0.2641
     10 C          -6.1965    1.7259    0.0603 C.ar    1  UNL1        0.0458
     11 C          -6.6092    0.6758    0.8937 C.ar    1  UNL1       -0.0393
     12 C          -7.9494    0.2517    0.9276 C.ar    1  UNL1       -0.0586
     13 C          -8.8970    0.8463    0.0980 C.ar    1  UNL1       -0.0433
     14 C          -8.5017    1.8771   -0.7471 C.ar    1  UNL1        0.0428
     15 CL         -9.6600    2.5902   -1.8052 Cl      1  UNL1       -0.0835
     16 C          -7.1737    2.3246   -0.7551 C.ar    1  UNL1       -0.0210
     17 O          -0.1005    1.0409    0.0088 O.2     1  UNL1       -0.4553
     18 H           2.5751   -1.0122    0.0091 H       1  UNL1        0.0308
     19 H           2.4828    0.5170    0.8843 H       1  UNL1        0.0308
     20 H           2.4835    0.5003   -0.8952 H       1  UNL1        0.0308
     21 H           0.0992   -2.2409   -0.0118 H       1  UNL1        0.0652
     22 H          -2.4308   -1.2753   -0.0009 H       1  UNL1        0.0657
     23 H          -4.0168    0.2819   -0.0071 H       1  UNL1        0.1731
     24 H          -4.6447    3.1536   -0.0309 H       1  UNL1        0.1700
     25 H          -5.9030    0.2010    1.5689 H       1  UNL1        0.0636
     26 H          -8.2560   -0.5424    1.6053 H       1  UNL1        0.0619
     27 H          -9.9309    0.5077    0.1152 H       1  UNL1        0.0632
     28 H          -6.8938    3.1280   -1.4320 H       1  UNL1        0.0651
@<TRIPOS>BOND
     1     1     2    1
     2     2     3   ar
     3     3     4   ar
     4     4     5   ar
     5     5     6    1
     6     6     7    2
     7     6     8   am
     8     8     9    1
     9     9    10    1
    10    10    11   ar
    11    11    12   ar
    12    12    13   ar
    13    13    14   ar
    14    14    15    1
    15    14    16   ar
    16    10    16   ar
    17     5    17   ar
    18     2    17   ar
    19     1    18    1
    20     1    19    1
    21     1    20    1
    22     3    21    1
    23     4    22    1
    24     8    23    1
    25     9    24    1
    26    11    25    1
    27    12    26    1
    28    13    27    1
    29    16    28    1
