@<TRIPOS>MOLECULE
*****
 34 35 0 0 0
SMALL
GASTEIGER

@<TRIPOS>ATOM
      1 N           0.9821    0.0148    0.0973 N.1     1  UNL1       -0.1942
      2 C           2.2430    0.0148    0.0973 C.1     1  UNL1        0.0899
      3 C           3.7630    0.0148    0.0973 C.3     1  UNL1        0.1388
      4 N           4.2343   -1.2096   -0.6041 N.am    1  UNL1       -0.2883
      5 C           3.9128   -2.5018   -0.2022 C.2     1  UNL1        0.3005
      6 O           3.2285   -2.7834    0.7777 O.2     1  UNL1       -0.2651
      7 C           4.4877   -3.6362   -1.1053 C.2     1  UNL1        0.3032
      8 O           5.1902   -3.3003   -2.0548 O.2     1  UNL1       -0.2648
      9 N           4.0930   -4.9303   -0.7719 N.am    1  UNL1       -0.2777
     10 C           4.4961   -6.0862   -1.4863 C.ar    1  UNL1        0.0338
     11 C           3.5755   -7.1129   -1.7324 C.ar    1  UNL1       -0.0405
     12 C           3.9651   -8.2673   -2.4304 C.ar    1  UNL1       -0.0600
     13 C           5.2726   -8.4000   -2.8944 C.ar    1  UNL1       -0.0616
     14 C           6.2012   -7.3982   -2.6247 C.ar    1  UNL1       -0.0600
     15 C           5.8137   -6.2471   -1.9273 C.ar    1  UNL1       -0.0405
     16 C           4.2582    1.3175   -0.5079 C.ar    1  UNL1        0.0221
     17 C           5.3919    1.4231   -1.3274 C.ar    1  UNL1       -0.0504
     18 C           5.8115    2.6786   -1.7798 C.ar    1  UNL1       -0.0259
     19 C           5.0672    3.8166   -1.4810 C.ar    1  UNL1        0.1261
     20 F           5.4445    5.0023   -1.9717 F       1  UNL1       -0.2054
     21 C           3.9426    3.7425   -0.6850 C.ar    1  UNL1        0.0092
     22 C           3.5717    2.5084   -0.1844 C.ar    1  UNL1        0.1320
     23 F           2.5136    2.4801    0.6371 F       1  UNL1       -0.2050
     24 H           4.1227   -0.0598    1.1305 H       1  UNL1        0.0709
     25 H           4.7361   -1.1476   -1.4850 H       1  UNL1        0.1507
     26 H           3.3419   -5.0225   -0.0924 H       1  UNL1        0.1553
     27 H           2.5301   -7.0054   -1.4556 H       1  UNL1        0.0636
     28 H           3.2471   -9.0619   -2.6236 H       1  UNL1        0.0618
     29 H           5.5666   -9.2772   -3.4674 H       1  UNL1        0.0618
     30 H           7.2315   -7.5122   -2.9535 H       1  UNL1        0.0618
     31 H           6.5664   -5.4968   -1.7036 H       1  UNL1        0.0636
     32 H           5.9712    0.5539   -1.6294 H       1  UNL1        0.0623
     33 H           6.7211    2.7792   -2.3647 H       1  UNL1        0.0646
     34 H           3.3620    4.6225   -0.4365 H       1  UNL1        0.0675
@<TRIPOS>BOND
     1     1     2    3
     2     2     3    1
     3     3     4    1
     4     4     5   am
     5     5     6    2
     6     5     7    1
     7     7     8    2
     8     7     9   am
     9     9    10    1
    10    10    11   ar
    11    11    12   ar
    12    12    13   ar
    13    13    14   ar
    14    14    15   ar
    15    10    15   ar
    16     3    16    1
    17    16    17   ar
    18    17    18   ar
    19    18    19   ar
    20    19    20    1
    21    19    21   ar
    22    21    22   ar
    23    16    22   ar
    24    22    23    1
    25     3    24    1
    26     4    25    1
    27     9    26    1
    28    11    27    1
    29    12    28    1
    30    13    29    1
    31    14    30    1
    32    15    31    1
    33    17    32    1
    34    18    33    1
    35    21    34    1
