@<TRIPOS>MOLECULE
*****
 41 42 0 0 0
SMALL
GASTEIGER

@<TRIPOS>ATOM
      1 C           3.3495    0.3333   -1.3334 C.3     1  UNL1       -0.0189
      2 C           2.6200    0.1386   -0.0167 C.3     1  UNL1        0.1761
      3 O           1.1594    0.0202   -0.0955 O.3     1  UNL1       -0.4487
      4 C           0.3126   -0.3158   -1.1098 C.2     1  UNL1        0.3399
      5 O          -0.8920   -0.2067   -1.0291 O.2     1  UNL1       -0.2449
      6 C           0.8863   -0.9070   -2.3344 C.ar    1  UNL1        0.0591
      7 C           0.6394   -0.3930   -3.6134 C.ar    1  UNL1       -0.0460
      8 C           1.3330   -0.9203   -4.7290 C.ar    1  UNL1       -0.0397
      9 C           2.3657   -1.8583   -4.5424 C.ar    1  UNL1        0.0348
     10 N           3.2228   -2.2122   -5.6114 N.am    1  UNL1       -0.2696
     11 C           4.3516   -2.9789   -5.6801 C.2     1  UNL1        0.3013
     12 N           4.8889   -3.5193   -4.5636 N.am    1  UNL1       -0.3131
     13 O           4.8902   -3.2049   -6.7608 O.2     1  UNL1       -0.2527
     14 C           2.5092   -2.3953   -3.2679 C.ar    1  UNL1       -0.0397
     15 C           1.7367   -1.9869   -2.1879 C.ar    1  UNL1       -0.0460
     16 C           2.9760    1.4312    0.7329 C.2     1  UNL1        0.2578
     17 O           2.1274    2.2879    0.9654 O.2     1  UNL1       -0.2714
     18 N           4.3474    1.6010    0.9679 N.am    1  UNL1       -0.2812
     19 C           4.8711    2.7003    1.6796 C.ar    1  UNL1        0.0520
     20 C           6.0568    3.3086    1.2194 C.ar    1  UNL1       -0.0390
     21 C           6.6874    4.2893    1.9952 C.ar    1  UNL1       -0.0599
     22 C           6.1107    4.7052    3.1926 C.ar    1  UNL1       -0.0603
     23 C           4.9270    4.1232    3.6347 C.ar    1  UNL1       -0.0416
     24 C           4.3136    3.1153    2.8993 C.ar    1  UNL1        0.0621
     25 CL          3.0079    2.3032    3.7003 Cl      1  UNL1       -0.0816
     26 H           4.4208    0.4907   -1.2277 H       1  UNL1        0.0270
     27 H           2.8992    1.1592   -1.8893 H       1  UNL1        0.0270
     28 H           3.3513   -0.5379   -1.9506 H       1  UNL1        0.0270
     29 H           2.9772   -0.7226    0.5655 H       1  UNL1        0.0830
     30 H          -0.0576    0.4355   -3.7390 H       1  UNL1        0.0626
     31 H           1.0624   -0.5598   -5.7215 H       1  UNL1        0.0636
     32 H           2.9757   -1.8598   -6.5317 H       1  UNL1        0.1564
     33 H           4.8786   -3.0291   -3.6874 H       1  UNL1        0.1465
     34 H           5.7463   -4.0383   -4.7048 H       1  UNL1        0.1465
     35 H           3.2599   -3.1123   -3.0004 H       1  UNL1        0.0636
     36 H           1.9916   -2.3762   -1.2058 H       1  UNL1        0.0626
     37 H           5.0232    1.0407    0.4649 H       1  UNL1        0.1550
     38 H           6.4915    3.0681    0.2494 H       1  UNL1        0.0636
     39 H           7.6326    4.7283    1.6800 H       1  UNL1        0.0618
     40 H           6.5823    5.4719    3.8004 H       1  UNL1        0.0618
     41 H           4.4988    4.4127    4.5886 H       1  UNL1        0.0633
@<TRIPOS>BOND
     1     3     4    1
     2     4     5    2
     3     4     6    1
     4     6     7   ar
     5     7     8   ar
     6     8     9   ar
     7     9    10    1
     8    10    11   am
     9    11    12   am
    10    11    13    2
    11     9    14   ar
    12    14    15   ar
    13     6    15   ar
    14     2    16    1
    15    16    17    2
    16    16    18   am
    17    18    19    1
    18    19    20   ar
    19    20    21   ar
    20    21    22   ar
    21    22    23   ar
    22    23    24   ar
    23    19    24   ar
    24    24    25    1
    25     2     3    1
    26     2     1    1
    27     1    26    1
    28     1    27    1
    29     1    28    1
    30     2    29    1
    31     7    30    1
    32     8    31    1
    33    10    32    1
    34    12    33    1
    35    12    34    1
    36    14    35    1
    37    15    36    1
    38    18    37    1
    39    20    38    1
    40    21    39    1
    41    22    40    1
    42    23    41    1
