REMARK  13 active torsions:
REMARK  status: ('A' for Active; 'I' for Inactive)
REMARK    1  A    between atoms: C_2  and  C_3 
REMARK    2  A    between atoms: C_3  and  C_4 
REMARK    3  A    between atoms: C_4  and  C_5 
REMARK    4  A    between atoms: C_5  and  O_6 
REMARK    5  A    between atoms: O_6  and  C_7 
REMARK    6  A    between atoms: C_10  and  C_11 
REMARK    7  A    between atoms: N_12  and  N_13 
REMARK       I    between atoms: N_13  and  C_14 
REMARK    8  A    between atoms: C_14  and  C_16 
REMARK    9  A    between atoms: C_16  and  S_17 
REMARK   10  A    between atoms: S_17  and  C_18 
REMARK   11  A    between atoms: C_21  and  S_22 
REMARK   12  A    between atoms: S_22  and  C_23 
REMARK   13  A    between atoms: C_23  and  C_24 
ROOT
ATOM      1  N   UNL d   1      10.150  -7.982   5.658  0.00  0.00    -0.247 N 
ATOM      2  C   UNL d   1       9.705  -9.306   5.792  0.00  0.00     0.247 C 
ATOM      3  O   UNL d   1       8.637  -9.677   5.280  0.00  0.00    -0.271 OA
ATOM      4  H   UNL d   1      11.009  -7.646   6.080  0.00  0.00     0.192 HD
ENDROOT
BRANCH   2   5
ATOM      5  C   UNL d   1      10.610 -10.280   6.601  0.00  0.00     0.186 C 
BRANCH   5   6
ATOM      6  S   UNL d   1       9.827 -11.943   6.603  0.00  0.00    -0.092 SA
BRANCH   6   7
ATOM      7  C   UNL d   1      10.829 -13.044   7.512  0.00  0.00     0.159 A 
ATOM      8  N   UNL d   1      11.814 -12.705   8.311  0.00  0.00    -0.134 NA
ATOM      9  N   UNL d   1      12.380 -13.821   8.925  0.00  0.00    -0.134 NA
ATOM     10  C   UNL d   1      11.816 -14.958   8.558  0.00  0.00     0.159 A 
ATOM     11  S   UNL d   1      10.527 -14.747   7.458  0.00  0.00    -0.033 SA
BRANCH  10  12
ATOM     12  S   UNL d   1      12.439 -16.474   9.174  0.00  0.00    -0.097 SA
BRANCH  12  13
ATOM     13  C   UNL d   1      11.380 -17.803   8.513  0.00  0.00     0.120 C 
BRANCH  13  14
ATOM     14  C   UNL d   1      11.721 -19.188   9.054  0.00  0.00    -0.049 A 
ATOM     15  C   UNL d   1      11.454 -20.335   8.287  0.00  0.00     0.008 A 
ATOM     16  C   UNL d   1      11.597 -21.617   8.837  0.00  0.00     0.007 A 
ATOM     17  C   UNL d   1      12.089 -21.784  10.135  0.00  0.00    -0.062 A 
ATOM     18  C   UNL d   1      12.368 -23.146  10.694  0.00  0.00     0.048 C 
ATOM     19  C   UNL d   1      12.369 -20.652  10.900  0.00  0.00     0.007 A 
ATOM     20  C   UNL d   1      12.171 -19.375  10.371  0.00  0.00     0.008 A 
ENDBRANCH  13  14
ENDBRANCH  12  13
ENDBRANCH  10  12
ENDBRANCH   6   7
ENDBRANCH   5   6
ENDBRANCH   2   5
BRANCH   1  21
ATOM     21  N   UNL d   1       9.353  -7.103   4.939  0.00  0.00    -0.184 NA
ATOM     22  C   UNL d   1       9.715  -5.865   4.793  0.00  0.00     0.150 C 
BRANCH  22  23
ATOM     23  C   UNL d   1       8.854  -4.876   4.061  0.00  0.00    -0.017 A 
ATOM     24  C   UNL d   1       9.235  -3.531   3.966  0.00  0.00     0.015 A 
ATOM     25  C   UNL d   1       8.374  -2.591   3.368  0.00  0.00     0.037 A 
ATOM     26  C   UNL d   1       7.159  -2.984   2.799  0.00  0.00     0.068 A 
ATOM     27  C   UNL d   1       6.790  -4.326   2.870  0.00  0.00     0.037 A 
ATOM     28  C   UNL d   1       7.632  -5.265   3.498  0.00  0.00     0.015 A 
BRANCH  26  29
ATOM     29  O   UNL d   1       6.488  -2.005   2.115  0.00  0.00    -0.351 OA
BRANCH  29  30
ATOM     30  C   UNL d   1       5.064  -2.105   2.045  0.00  0.00     0.175 C 
BRANCH  30  31
ATOM     31  C   UNL d   1       4.548  -1.036   1.077  0.00  0.00     0.027 C 
BRANCH  31  32
ATOM     32  C   UNL d   1       3.021  -1.016   1.043  0.00  0.00     0.002 C 
BRANCH  32  33
ATOM     33  C   UNL d   1       2.491   0.049   0.085  0.00  0.00    -0.004 C 
ATOM     34  C   UNL d   1       0.971   0.059   0.076  0.00  0.00     0.005 C 
ENDBRANCH  32  33
ENDBRANCH  31  32
ENDBRANCH  30  31
ENDBRANCH  29  30
ENDBRANCH  26  29
ENDBRANCH  22  23
ENDBRANCH   1  21
TORSDOF 13
