REMARK  12 active torsions:
REMARK  status: ('A' for Active; 'I' for Inactive)
REMARK    1  A    between atoms: C_20  and  C_22 
REMARK    2  A    between atoms: C_20  and  O_21 
REMARK    3  A    between atoms: C_22  and  C_24 
REMARK    4  A    between atoms: C_24  and  O_25 
REMARK    5  A    between atoms: O_25  and  C_26 
REMARK    6  A    between atoms: C_26  and  C_28 
REMARK    7  A    between atoms: C_28  and  C_29 
REMARK    8  A    between atoms: C_29  and  C_30 
REMARK       I    between atoms: C_30  and  N_32 
REMARK    9  A    between atoms: N_32  and  C_33 
REMARK   10  A    between atoms: C_33  and  C_34 
REMARK   11  A    between atoms: C_34  and  C_35 
REMARK   12  A    between atoms: C_35  and  N_36 
ROOT
ATOM      1  C   UNL d   1       0.900  -0.045  -0.005  0.00  0.00     0.016 C 
ATOM      2  C   UNL d   1       2.447   0.030   0.061  0.00  0.00    -0.030 C 
ATOM      3  C   UNL d   1       2.802   0.272   1.541  0.00  0.00     0.017 C 
ATOM      4  C   UNL d   1       4.258  -0.110   1.810  0.00  0.00     0.079 C 
ATOM      5  C   UNL d   1       3.861  -1.528   2.082  0.00  0.00     0.132 C 
ATOM      6  O   UNL d   1       3.794  -1.903   3.201  0.00  0.00    -0.298 OA
ATOM      7  C   UNL d   1       3.199  -2.212   0.756  0.00  0.00     0.077 C 
ATOM      8  C   UNL d   1       3.161  -1.340  -0.289  0.00  0.00    -0.013 C 
ATOM      9  C   UNL d   1       4.534  -1.351  -0.947  0.00  0.00     0.012 C 
ATOM     10  C   UNL d   1       5.022  -0.027  -1.483  0.00  0.00     0.006 C 
ATOM     11  C   UNL d   1       4.487   1.195  -0.706  0.00  0.00    -0.005 C 
ATOM     12  C   UNL d   1       2.958   1.257  -0.687  0.00  0.00    -0.001 C 
ATOM     13  C   UNL d   1       2.471   2.567  -0.001  0.00  0.00     0.007 C 
ATOM     14  C   UNL d   1       3.067   3.806  -0.613  0.00  0.00     0.013 C 
ATOM     15  C   UNL d   1       4.639   3.812  -0.651  0.00  0.00    -0.002 C 
ATOM     16  C   UNL d   1       5.210   3.964   0.767  0.00  0.00     0.019 C 
ATOM     17  C   UNL d   1       5.013   2.471  -1.196  0.00  0.00     0.002 C 
ATOM     18  C   UNL d   1       6.533   2.589  -1.240  0.00  0.00     0.009 C 
ATOM     19  C   UNL d   1       6.398   3.133  -2.614  0.00  0.00     0.047 C 
ATOM     20  C   UNL d   1       5.406   4.540  -1.893  0.00  0.00     0.128 C 
ENDROOT
BRANCH  20  21
ATOM     21  C   UNL d   1       5.781   6.114  -2.147  0.00  0.00     0.185 C 
ATOM     22  O   UNL d   1       5.833   6.518  -3.326  0.00  0.00    -0.292 OA
BRANCH  21  23
ATOM     23  C   UNL d   1       5.760   7.251  -1.009  0.00  0.00     0.260 C 
BRANCH  23  24
ATOM     24  O   UNL d   1       5.759   8.659  -1.546  0.00  0.00    -0.314 OA
BRANCH  24  25
ATOM     25  C   UNL d   1       5.986   9.733  -0.708  0.00  0.00     0.259 C 
ATOM     26  O   UNL d   1       6.150   9.614   0.504  0.00  0.00    -0.265 OA
BRANCH  25  27
ATOM     27  C   UNL d   1       6.036  11.113  -1.417  0.00  0.00     0.120 C 
BRANCH  27  28
ATOM     28  C   UNL d   1       6.392  12.300  -0.463  0.00  0.00     0.112 C 
BRANCH  28  29
ATOM     29  C   UNL d   1       6.474  13.660  -1.178  0.00  0.00     0.217 C 
ATOM     30  O   UNL d   1       6.275  13.792  -2.379  0.00  0.00    -0.274 OA
ATOM     31  N   UNL d   1       6.795  14.757  -0.380  0.00  0.00    -0.361 N 
ATOM     32  H   UNL d   1       6.940  14.625   0.614  0.00  0.00     0.162 HD
BRANCH  31  33
ATOM     33  C   UNL d   1       6.885  16.092  -0.971  0.00  0.00     0.124 C 
BRANCH  33  34
ATOM     34  C   UNL d   1       7.239  17.186   0.037  0.00  0.00     0.040 C 
BRANCH  34  35
ATOM     35  C   UNL d   1       7.341  18.562  -0.629  0.00  0.00     0.130 C 
BRANCH  35  36
ATOM     36  N   UNL d   1       7.717  19.619   0.331  0.00  0.00    -0.352 N 
ATOM     37  C   UNL d   1       7.091  20.856   0.482  0.00  0.00     0.108 A 
ATOM     38  C   UNL d   1       7.806  21.552   1.417  0.00  0.00     0.106 A 
ATOM     39  N   UNL d   1       8.829  20.724   1.814  0.00  0.00    -0.361 N 
ATOM     40  C   UNL d   1       8.776  19.564   1.157  0.00  0.00     0.182 A 
ATOM     41  H   UNL d   1       9.541  20.956   2.503  0.00  0.00     0.166 HD
ENDBRANCH  35  36
ENDBRANCH  34  35
ENDBRANCH  33  34
ENDBRANCH  31  33
ENDBRANCH  28  29
ENDBRANCH  27  28
ENDBRANCH  25  27
ENDBRANCH  24  25
ENDBRANCH  23  24
ENDBRANCH  21  23
ENDBRANCH  20  21
BRANCH  20  42
ATOM     42  O   UNL d   1       4.147   4.881  -2.581  0.00  0.00    -0.381 OA
ATOM     43  H   UNL d   1       3.706   5.488  -1.927  0.00  0.00     0.211 HD
ENDBRANCH  20  42
TORSDOF 12
