@<TRIPOS>MOLECULE
*****
 25 26 0 0 0
SMALL
GASTEIGER

@<TRIPOS>ATOM
      1 O           0.9511    0.0844   -0.0711 O.2     1  UNL1       -0.2740
      2 C           2.1804    0.0266   -0.0580 C.2     1  UNL1        0.2321
      3 N           2.9288   -1.1392   -0.2374 N.am    1  UNL1       -0.2362
      4 N           2.2577   -2.3620   -0.4135 N.pl3   1  UNL1       -0.2617
      5 C           2.9769   -3.5356   -0.7269 C.ar    1  UNL1        0.0826
      6 C           4.1036   -3.9273    0.0159 C.ar    1  UNL1       -0.0337
      7 C           4.7495   -5.1523   -0.2297 C.ar    1  UNL1       -0.0216
      8 C           4.2937   -5.9887   -1.2427 C.ar    1  UNL1        0.1614
      9 F           4.9007   -7.1666   -1.4499 F       1  UNL1       -0.2024
     10 C           3.2175   -5.6051   -2.0260 C.ar    1  UNL1        0.1952
     11 F           2.7963   -6.4071   -3.0163 F       1  UNL1       -0.1994
     12 C           2.5709   -4.3911   -1.7739 C.ar    1  UNL1        0.1834
     13 F           1.5363   -4.0401   -2.5544 F       1  UNL1       -0.2004
     14 C           3.0113    1.2406    0.2106 C.3     1  UNL1        0.0370
     15 C           3.7955    1.7434   -0.9930 C.3     1  UNL1       -0.0412
     16 C           2.8627    2.6674   -0.2873 C.3     1  UNL1       -0.0412
     17 H           3.9428   -1.1269   -0.2675 H       1  UNL1        0.1727
     18 H           1.2775   -2.2933   -0.6998 H       1  UNL1        0.1701
     19 H           4.4438   -3.3180    0.8490 H       1  UNL1        0.0638
     20 H           5.5926   -5.4701    0.3784 H       1  UNL1        0.0648
     21 H           3.3820    1.2543    1.2312 H       1  UNL1        0.0395
     22 H           3.4755    1.4412   -1.9874 H       1  UNL1        0.0273
     23 H           4.8668    1.8418   -0.8888 H       1  UNL1        0.0273
     24 H           1.9639    2.9984   -0.7918 H       1  UNL1        0.0273
     25 H           3.3358    3.4711    0.2793 H       1  UNL1        0.0273
@<TRIPOS>BOND
     1     1     2    2
     2     2     3   am
     3     3     4    1
     4     4     5    1
     5     5     6   ar
     6     6     7   ar
     7     7     8   ar
     8     8     9    1
     9     8    10   ar
    10    10    11    1
    11    10    12   ar
    12     5    12   ar
    13    12    13    1
    14     2    14    1
    15    14    15    1
    16    15    16    1
    17    14    16    1
    18     3    17    1
    19     4    18    1
    20     6    19    1
    21     7    20    1
    22    14    21    1
    23    15    22    1
    24    15    23    1
    25    16    24    1
    26    16    25    1
