REMARK  7 active torsions:
REMARK  status: ('A' for Active; 'I' for Inactive)
REMARK    1  A    between atoms: C_2  and  C_3 
REMARK    2  A    between atoms: C_3  and  C_4 
REMARK    3  A    between atoms: C_4  and  C_5 
REMARK    4  A    between atoms: C_5  and  N_6 
REMARK       I    between atoms: N_6  and  C_7 
REMARK       I    between atoms: C_7  and  N_9 
REMARK    5  A    between atoms: N_9  and  N_10 
REMARK       I    between atoms: N_10  and  C_11 
REMARK    6  A    between atoms: C_11  and  C_13 
REMARK    7  A    between atoms: C_16  and  N_17 
ROOT
ATOM      1  N   UNL d   1       9.382   5.332  -0.193  0.00  0.00    -0.262 N 
ATOM      2  C   UNL d   1      10.774   5.322  -0.183  0.00  0.00     0.271 C 
ATOM      3  O   UNL d   1      11.438   4.283  -0.217  0.00  0.00    -0.266 OA
ATOM      4  H   UNL d   1       8.827   6.186  -0.144  0.00  0.00     0.190 HD
ENDROOT
BRANCH   1   5
ATOM      5  N   UNL d   1       8.621   4.114  -0.161  0.00  0.00    -0.249 N 
ATOM      6  C   UNL d   1       7.233   4.190  -0.147  0.00  0.00     0.334 C 
ATOM      7  N   UNL d   1       6.576   2.973  -0.125  0.00  0.00    -0.342 N 
ATOM      8  O   UNL d   1       6.639   5.268  -0.163  0.00  0.00    -0.246 OA
ATOM      9  H   UNL d   1       7.108   2.115  -0.112  0.00  0.00     0.164 HD
ATOM     10  H   UNL d   1       9.147   3.247  -0.127  0.00  0.00     0.192 HD
BRANCH   7  11
ATOM     11  C   UNL d   1       5.110   2.894  -0.124  0.00  0.00     0.124 C 
BRANCH  11  12
ATOM     12  C   UNL d   1       4.554   1.461  -0.104  0.00  0.00     0.020 C 
BRANCH  12  13
ATOM     13  C   UNL d   1       3.016   1.436  -0.104  0.00  0.00     0.001 C 
BRANCH  13  14
ATOM     14  C   UNL d   1       2.469   0.005  -0.084  0.00  0.00    -0.004 C 
ATOM     15  C   UNL d   1       0.947  -0.009  -0.084  0.00  0.00     0.005 C 
ENDBRANCH  13  14
ENDBRANCH  12  13
ENDBRANCH  11  12
ENDBRANCH   7  11
ENDBRANCH   1   5
BRANCH   2  16
ATOM     16  C   UNL d   1      11.495   6.652  -0.175  0.00  0.00     0.055 A 
ATOM     17  C   UNL d   1      12.629   6.822  -1.005  0.00  0.00     0.021 A 
ATOM     18  C   UNL d   1      13.338   8.042  -1.046  0.00  0.00     0.037 A 
ATOM     19  C   UNL d   1      12.930   9.107  -0.237  0.00  0.00     0.104 A 
ATOM     20  C   UNL d   1      11.837   8.944   0.622  0.00  0.00     0.060 A 
ATOM     21  C   UNL d   1      11.133   7.723   0.657  0.00  0.00     0.052 A 
ATOM     22 CL   UNL d   1       9.858   7.606   1.816  0.00  0.00    -0.083 Cl
BRANCH  19  23
ATOM     23  N   UNL d   1      13.642  10.398  -0.282  0.00  0.00    -0.116 N 
ATOM     24  O   UNL d   1      14.599  10.504  -1.061  0.00  0.00    -0.532 OA
ATOM     25  O   UNL d   1      13.234  11.305   0.458  0.00  0.00    -0.532 OA
ENDBRANCH  19  23
ENDBRANCH   2  16
TORSDOF 7
