REMARK  5 active torsions:
REMARK  status: ('A' for Active; 'I' for Inactive)
REMARK       I    between atoms: N_1  and  C_2 
REMARK    1  A    between atoms: C_2  and  C_4 
REMARK    2  A    between atoms: C_4  and  C_5 
REMARK    3  A    between atoms: C_5  and  C_6 
REMARK    4  A    between atoms: N_22  and  C_23 
REMARK    5  A    between atoms: C_23  and  C_24 
ROOT
ATOM      1  C   UNL d   1       5.472  -2.193  -1.160  0.00  0.00     0.237 A 
ATOM      2  N   UNL d   1       5.348  -1.950  -2.604  0.00  0.00     0.113 N 
ATOM      3  C   UNL d   1       6.682  -1.849  -3.189  0.00  0.00     0.279 A 
ATOM      4  C   UNL d   1       6.786  -2.915  -4.329  0.00  0.00     0.267 C 
ATOM      5  O   UNL d   1       6.535  -4.107  -4.254  0.00  0.00    -0.270 OA
ATOM      6  N   UNL d   1       7.208  -2.238  -5.467  0.00  0.00    -0.324 N 
ATOM      7  C   UNL d   1       7.224  -0.867  -5.269  0.00  0.00     0.044 A 
ATOM      8  C   UNL d   1       7.485   0.110  -6.204  0.00  0.00     0.032 A 
ATOM      9  C   UNL d   1       7.397   1.443  -5.788  0.00  0.00     0.026 A 
ATOM     10  C   UNL d   1       7.066   1.763  -4.460  0.00  0.00     0.034 A 
ATOM     11 CL   UNL d   1       6.971   3.414  -3.984  0.00  0.00    -0.084 Cl
ATOM     12  C   UNL d   1       6.812   0.760  -3.523  0.00  0.00     0.036 A 
ATOM     13  C   UNL d   1       6.888  -0.560  -3.951  0.00  0.00     0.019 A 
ATOM     14  C   UNL d   1       7.707  -1.964  -2.087  0.00  0.00     0.147 A 
ATOM     15  C   UNL d   1       8.620  -3.139  -2.205  0.00  0.00     0.235 C 
ATOM     16  O   UNL d   1       9.064  -3.585  -3.236  0.00  0.00    -0.272 OA
ATOM     17  N   UNL d   1       8.904  -3.601  -0.951  0.00  0.00    -0.283 N 
ATOM     18  C   UNL d   1       7.721  -3.447  -0.247  0.00  0.00     0.234 C 
ATOM     19  O   UNL d   1       7.264  -4.157   0.636  0.00  0.00    -0.272 OA
ATOM     20  C   UNL d   1       6.975  -2.190  -0.788  0.00  0.00     0.128 A 
ATOM     21  H   UNL d   1       4.793  -1.130  -2.849  0.00  0.00     0.318 HD
ATOM     22  H   UNL d   1       7.399  -2.728  -6.327  0.00  0.00     0.169 HD
ENDROOT
BRANCH   1  23
ATOM     23  C   UNL d   1       4.671  -1.048  -0.493  0.00  0.00     0.045 C 
BRANCH  23  24
ATOM     24  C   UNL d   1       3.148  -1.197  -0.663  0.00  0.00     0.105 C 
BRANCH  24  25
ATOM     25  C   UNL d   1       2.416  -0.049   0.001  0.00  0.00     0.215 C 
ATOM     26  N   UNL d   1       1.056  -0.116  -0.054  0.00  0.00    -0.370 N 
ATOM     27  H   UNL d   1       0.536   0.630   0.391  0.00  0.00     0.159 HD
ATOM     28  H   UNL d   1       0.544  -0.869  -0.492  0.00  0.00     0.159 HD
ATOM     29  O   UNL d   1       2.971   0.897   0.547  0.00  0.00    -0.274 OA
ENDBRANCH  24  25
ENDBRANCH  23  24
ENDBRANCH   1  23
BRANCH  17  30
ATOM     30  C   UNL d   1       9.978  -4.638  -0.963  0.00  0.00     0.175 C 
BRANCH  30  31
ATOM     31  C   UNL d   1      11.055  -4.716   0.112  0.00  0.00    -0.018 C 
ATOM     32  C   UNL d   1      11.709  -3.563   0.588  0.00  0.00     0.010 C 
ATOM     33  C   UNL d   1      12.802  -3.650   1.470  0.00  0.00     0.001 C 
ATOM     34  C   UNL d   1      13.231  -4.886   1.944  0.00  0.00     0.002 C 
ATOM     35  C   UNL d   1      12.613  -6.041   1.480  0.00  0.00     0.024 C 
ATOM     36  C   UNL d   1      11.600  -5.959   0.512  0.00  0.00     0.042 C 
ATOM     37 CL   UNL d   1      11.137  -7.458  -0.224  0.00  0.00    -0.084 Cl
ENDBRANCH  30  31
ENDBRANCH  17  30
TORSDOF 5
