REMARK  2 active torsions:
REMARK  status: ('A' for Active; 'I' for Inactive)
REMARK       I    between atoms: C_2  and  N_4 
REMARK    1  A    between atoms: N_4  and  C_5 
REMARK    2  A    between atoms: C_10  and  C_11 
ROOT
ATOM      1  C   UNL d   1       4.504  -1.144  -1.470  0.00  0.00     0.138 C 
ATOM      2  N   UNL d   1       3.272  -1.102  -1.908  0.00  0.00    -0.240 NA
ATOM      3  C   UNL d   1       2.531  -2.307  -1.865  0.00  0.00     0.084 A 
ATOM      4  C   UNL d   1       1.224  -2.305  -2.345  0.00  0.00     0.034 A 
ATOM      5  C   UNL d   1       0.456  -3.468  -2.318  0.00  0.00     0.002 A 
ATOM      6  C   UNL d   1       1.000  -4.649  -1.811  0.00  0.00     0.002 A 
ATOM      7  C   UNL d   1       2.262  -4.642  -1.210  0.00  0.00     0.032 A 
ATOM      8  C   UNL d   1       3.016  -3.466  -1.229  0.00  0.00     0.064 A 
ATOM      9  N   UNL d   1       4.318  -3.432  -0.708  0.00  0.00    -0.320 N 
ATOM     10  C   UNL d   1       5.179  -2.499  -1.245  0.00  0.00     0.275 C 
ATOM     11  O   UNL d   1       6.319  -2.721  -1.572  0.00  0.00    -0.266 OA
ATOM     12  H   UNL d   1       4.707  -4.191  -0.173  0.00  0.00     0.169 HD
ENDROOT
BRANCH   1  13
ATOM     13  C   UNL d   1       5.237   0.091  -1.029  0.00  0.00     0.025 A 
ATOM     14  C   UNL d   1       6.639   0.159  -1.137  0.00  0.00     0.016 A 
ATOM     15  C   UNL d   1       7.343   1.306  -0.761  0.00  0.00     0.001 A 
ATOM     16  C   UNL d   1       6.653   2.418  -0.293  0.00  0.00     0.002 A 
ATOM     17  C   UNL d   1       5.263   2.362  -0.146  0.00  0.00     0.030 A 
ATOM     18  C   UNL d   1       4.546   1.204  -0.497  0.00  0.00     0.047 A 
BRANCH  18  19
ATOM     19  N   UNL d   1       3.141   1.228  -0.304  0.00  0.00    -0.327 N 
ATOM     20  C   UNL d   1       2.452   0.186   0.296  0.00  0.00     0.218 C 
ATOM     21  C   UNL d   1       0.962   0.184   0.055  0.00  0.00     0.117 C 
ATOM     22  O   UNL d   1       2.985  -0.681   0.989  0.00  0.00    -0.274 OA
ATOM     23  H   UNL d   1       2.640   2.049  -0.616  0.00  0.00     0.169 HD
ENDBRANCH  18  19
ENDBRANCH   1  13
TORSDOF 2
