@<TRIPOS>MOLECULE
*****
 58 60 0 0 0
SMALL
GASTEIGER

@<TRIPOS>ATOM
      1 C           1.0537    0.0495    0.0599 C.3     1  UNL1       -0.0544
      2 C           2.5897    0.1157    0.0741 C.3     1  UNL1        0.0303
      3 C           3.0859    0.3982   -1.3377 C.3     1  UNL1       -0.0544
      4 C           3.0303    1.2000    1.0621 C.2     1  UNL1        0.2198
      5 O           2.1863    1.8356    1.6954 O.2     1  UNL1       -0.2752
      6 N           4.3991    1.4088    1.1836 N.am    1  UNL1       -0.2853
      7 C           4.9565    2.2648    2.1656 C.ar    1  UNL1        0.0335
      8 C           6.1567    2.9445    1.9501 C.ar    1  UNL1       -0.0387
      9 C           6.7460    3.6873    2.9988 C.ar    1  UNL1       -0.0391
     10 C           6.1261    3.8092    4.2541 C.ar    1  UNL1        0.0276
     11 N           6.7320    4.4944    5.2929 N.pl3   1  UNL1       -0.3354
     12 C           6.0459    4.7726    6.5703 C.3     1  UNL1        0.0861
     13 C           6.8997    5.7139    7.4305 C.2     1  UNL1        0.2343
     14 O           7.9355    6.1940    6.9617 O.2     1  UNL1       -0.2738
     15 N           6.4533    5.9245    8.7419 N.am    1  UNL1       -0.2842
     16 C           7.0327    6.9005    9.5925 C.ar    1  UNL1        0.0352
     17 C           7.0817    6.7770   10.9763 C.ar    1  UNL1       -0.0404
     18 C           7.5812    7.8427   11.7492 C.ar    1  UNL1       -0.0583
     19 C           8.0363    9.0283   11.1409 C.ar    1  UNL1       -0.0404
     20 C           7.9635    9.1622    9.7546 C.ar    1  UNL1        0.0354
     21 N           8.3172   10.3701    9.1018 N.am    1  UNL1       -0.2814
     22 C           8.1488   10.6117    7.7408 C.2     1  UNL1        0.2483
     23 O           7.6635    9.8641    6.8847 O.2     1  UNL1       -0.2699
     24 C           8.5863   11.9107    7.2207 C.ar    1  UNL1        0.0370
     25 C           7.8343   12.5242    6.2056 C.ar    1  UNL1       -0.0496
     26 C           8.3262   13.6626    5.5750 C.ar    1  UNL1       -0.0610
     27 C           9.5360   14.2129    5.9969 C.ar    1  UNL1       -0.0617
     28 C          10.2845   13.5932    7.0012 C.ar    1  UNL1       -0.0610
     29 C           9.8199   12.4294    7.6057 C.ar    1  UNL1       -0.0496
     30 C           7.4873    8.0815    9.0214 C.ar    1  UNL1       -0.0192
     31 C           4.9360    3.1117    4.4399 C.ar    1  UNL1       -0.0391
     32 C           4.3528    2.3705    3.4150 C.ar    1  UNL1       -0.0387
     33 H           0.6862   -0.7126   -0.6336 H       1  UNL1        0.0237
     34 H           0.6266    1.0140   -0.2437 H       1  UNL1        0.0237
     35 H           0.6588   -0.1806    1.0563 H       1  UNL1        0.0237
     36 H           2.9756   -0.8512    0.4210 H       1  UNL1        0.0389
     37 H           2.7385    1.3789   -1.6802 H       1  UNL1        0.0237
     38 H           2.7152   -0.3576   -2.0390 H       1  UNL1        0.0237
     39 H           4.1779    0.3931   -1.3898 H       1  UNL1        0.0237
     40 H           5.0412    0.9701    0.5366 H       1  UNL1        0.1548
     41 H           6.6261    2.9589    0.9690 H       1  UNL1        0.0637
     42 H           7.7067    4.1693    2.8221 H       1  UNL1        0.0637
     43 H           7.4679    5.1663    5.0669 H       1  UNL1        0.1466
     44 H           5.9273    3.8339    7.1186 H       1  UNL1        0.0557
     45 H           5.0670    5.2398    6.4042 H       1  UNL1        0.0557
     46 H           5.6737    5.3958    9.1106 H       1  UNL1        0.1549
     47 H           6.8014    5.8494   11.4669 H       1  UNL1        0.0636
     48 H           7.6052    7.7538   12.8346 H       1  UNL1        0.0619
     49 H           8.4265    9.8257   11.7688 H       1  UNL1        0.0636
     50 H           8.6402   11.1313    9.6867 H       1  UNL1        0.1551
     51 H           6.8855   12.0937    5.8853 H       1  UNL1        0.0625
     52 H           7.7825   14.1045    4.7434 H       1  UNL1        0.0618
     53 H           9.9074   15.1199    5.5280 H       1  UNL1        0.0618
     54 H          11.2500   13.9974    7.2896 H       1  UNL1        0.0618
     55 H          10.4400   11.9029    8.3240 H       1  UNL1        0.0625
     56 H           7.4030    8.1563    7.9512 H       1  UNL1        0.0655
     57 H           4.4337    3.1056    5.3996 H       1  UNL1        0.0637
     58 H           3.4364    1.8360    3.6416 H       1  UNL1        0.0637
@<TRIPOS>BOND
     1     1     2    1
     2     2     3    1
     3     2     4    1
     4     4     5    2
     5     4     6   am
     6     6     7    1
     7     7     8   ar
     8     8     9   ar
     9     9    10   ar
    10    10    11    1
    11    11    12    1
    12    12    13    1
    13    13    14    2
    14    13    15   am
    15    15    16    1
    16    16    17   ar
    17    17    18   ar
    18    18    19   ar
    19    19    20   ar
    20    20    21    1
    21    21    22   am
    22    22    23    2
    23    22    24    1
    24    24    25   ar
    25    25    26   ar
    26    26    27   ar
    27    27    28   ar
    28    28    29   ar
    29    24    29   ar
    30    20    30   ar
    31    16    30   ar
    32    10    31   ar
    33    31    32   ar
    34     7    32   ar
    35     1    33    1
    36     1    34    1
    37     1    35    1
    38     2    36    1
    39     3    37    1
    40     3    38    1
    41     3    39    1
    42     6    40    1
    43     8    41    1
    44     9    42    1
    45    11    43    1
    46    12    44    1
    47    12    45    1
    48    15    46    1
    49    17    47    1
    50    18    48    1
    51    19    49    1
    52    21    50    1
    53    25    51    1
    54    26    52    1
    55    27    53    1
    56    28    54    1
    57    29    55    1
    58    30    56    1
    59    31    57    1
    60    32    58    1
