@<TRIPOS>MOLECULE
*****
 52 55 0 0 0
SMALL
GASTEIGER

@<TRIPOS>ATOM
      1 C           1.1196   -0.3011    0.5347 C.3     1  UNL1        0.0790
      2 O           2.4859   -0.0837    0.1790 O.3     1  UNL1       -0.4915
      3 C           2.9735   -0.3881   -1.0760 C.ar    1  UNL1        0.1616
      4 C           4.1071   -1.2243   -1.0280 C.ar    1  UNL1       -0.0143
      5 C           4.9065   -1.4566   -2.1625 C.ar    1  UNL1       -0.0339
      6 C           4.5947   -0.8759   -3.3950 C.ar    1  UNL1        0.0566
      7 N           5.2860   -1.2751   -4.5490 N.ar    1  UNL1       -0.2448
      8 C           5.4745   -2.6150   -4.9064 C.ar    1  UNL1        0.3333
      9 O           5.0856   -3.6455   -4.3589 O.2     1  UNL1       -0.2461
     10 N           6.1929   -2.6296   -6.0889 N.ar    1  UNL1       -0.3025
     11 C           6.4589   -1.3169   -6.4712 C.ar    1  UNL1        0.1174
     12 C           7.1626   -0.7647   -7.5049 C.ar    1  UNL1        0.1540
     13 C           7.8655   -1.5532   -8.5855 C.2     1  UNL1        0.2621
     14 N           7.8180   -2.9269   -8.5718 N.am    1  UNL1       -0.3240
     15 O           8.4888   -1.0104   -9.4932 O.2     1  UNL1       -0.2687
     16 N           7.2795    0.5860   -7.5956 N.ar    1  UNL1       -0.2252
     17 C           6.6881    1.3621   -6.6511 C.ar    1  UNL1        0.1326
     18 C           6.8399    2.8678   -6.7767 C.3     1  UNL1        0.0113
     19 C           7.6584    3.3126   -8.0042 C.3     1  UNL1       -0.0208
     20 C           7.7910    4.8162   -8.0845 C.ar    1  UNL1       -0.0470
     21 C           9.0078    5.4414   -7.7822 C.ar    1  UNL1       -0.0586
     22 C           9.0855    6.8328   -7.7075 C.ar    1  UNL1       -0.0615
     23 C           7.9764    7.6127   -8.0288 C.ar    1  UNL1       -0.0617
     24 C           6.7754    7.0014   -8.3825 C.ar    1  UNL1       -0.0615
     25 C           6.6811    5.6095   -8.4053 C.ar    1  UNL1       -0.0586
     26 N           5.9716    0.8834   -5.6012 N.ar    1  UNL1       -0.2123
     27 C           5.8772   -0.4538   -5.5447 C.ar    1  UNL1        0.1698
     28 C           3.4768   -0.0545   -3.4607 C.ar    1  UNL1        0.0078
     29 C           2.6639    0.2025   -2.3251 C.ar    1  UNL1        0.1634
     30 O           1.6734    1.0837   -2.6926 O.3     1  UNL1       -0.4914
     31 C           0.7228    1.3665   -1.7081 C.3     1  UNL1        0.0790
     32 H           1.0199   -0.3813    1.6210 H       1  UNL1        0.0660
     33 H           0.6770   -1.1695    0.0410 H       1  UNL1        0.0660
     34 H           0.5109    0.5890    0.3799 H       1  UNL1        0.0660
     35 H           4.3968   -1.6985   -0.0905 H       1  UNL1        0.0656
     36 H           5.8014   -2.0701   -2.0641 H       1  UNL1        0.0639
     37 H           6.4161   -3.5122   -6.5005 H       1  UNL1        0.1706
     38 H           7.3600   -3.4984   -7.8947 H       1  UNL1        0.1453
     39 H           8.2985   -3.4202   -9.3146 H       1  UNL1        0.1453
     40 H           7.3127    3.2538   -5.8635 H       1  UNL1        0.0347
     41 H           5.8369    3.3116   -6.8193 H       1  UNL1        0.0347
     42 H           7.1931    2.9514   -8.9301 H       1  UNL1        0.0317
     43 H           8.6590    2.8624   -7.9644 H       1  UNL1        0.0317
     44 H           9.9005    4.8498   -7.5907 H       1  UNL1        0.0620
     45 H          10.0077    7.3081   -7.3838 H       1  UNL1        0.0618
     46 H           8.0500    8.6965   -8.0066 H       1  UNL1        0.0618
     47 H           5.9053    7.6078   -8.6193 H       1  UNL1        0.0618
     48 H           5.7328    5.1453   -8.6661 H       1  UNL1        0.0620
     49 H           3.1770    0.3728   -4.4153 H       1  UNL1        0.0676
     50 H          -0.0359    2.0834   -2.0209 H       1  UNL1        0.0660
     51 H           1.2426    1.8334   -0.8656 H       1  UNL1        0.0660
     52 H           0.1711    0.4408   -1.5166 H       1  UNL1        0.0660
@<TRIPOS>BOND
     1     1     2    1
     2     2     3    1
     3     3     4   ar
     4     4     5   ar
     5     5     6   ar
     6     6     7    1
     7     7     8   ar
     8     8     9    2
     9     8    10   ar
    10    10    11   ar
    11    11    12   ar
    12    12    13    1
    13    13    14   am
    14    13    15    2
    15    12    16   ar
    16    16    17   ar
    17    17    18    1
    18    18    19    1
    19    19    20    1
    20    20    21   ar
    21    21    22   ar
    22    22    23   ar
    23    23    24   ar
    24    24    25   ar
    25    20    25   ar
    26    17    26   ar
    27    26    27   ar
    28    11    27   ar
    29     7    27   ar
    30     6    28   ar
    31    28    29   ar
    32     3    29   ar
    33    29    30    1
    34    30    31    1
    35     1    32    1
    36     1    33    1
    37     1    34    1
    38     4    35    1
    39     5    36    1
    40    10    37    1
    41    14    38    1
    42    14    39    1
    43    18    40    1
    44    18    41    1
    45    19    42    1
    46    19    43    1
    47    21    44    1
    48    22    45    1
    49    23    46    1
    50    24    47    1
    51    25    48    1
    52    28    49    1
    53    31    50    1
    54    31    51    1
    55    31    52    1
