REMARK  3 active torsions:
REMARK  status: ('A' for Active; 'I' for Inactive)
REMARK    1  A    between atoms: C_5  and  C_6 
REMARK       I    between atoms: C_6  and  N_8 
REMARK    2  A    between atoms: N_8  and  C_9 
REMARK    3  A    between atoms: C_14  and  C_15 
REMARK       I    between atoms: C_15  and  N_16 
ROOT
ATOM      1  C   UNL d   1       3.014   2.821  -0.270  0.00  0.00     0.256 C 
ATOM      2  O   UNL d   1       2.289   3.771  -0.570  0.00  0.00    -0.267 OA
ATOM      3  N   UNL d   1       4.396   2.930  -0.170  0.00  0.00    -0.322 N 
ATOM      4  H   UNL d   1       4.983   2.113  -0.228  0.00  0.00     0.169 HD
ENDROOT
BRANCH   3   5
ATOM      5  C   UNL d   1       5.058   4.179  -0.061  0.00  0.00     0.050 A 
ATOM      6  C   UNL d   1       6.223   4.349  -0.836  0.00  0.00     0.030 A 
ATOM      7  C   UNL d   1       6.971   5.528  -0.764  0.00  0.00     0.002 A 
ATOM      8  C   UNL d   1       6.545   6.564   0.056  0.00  0.00     0.001 A 
ATOM      9  C   UNL d   1       5.400   6.403   0.841  0.00  0.00     0.019 A 
ATOM     10  C   UNL d   1       4.644   5.214   0.810  0.00  0.00     0.058 A 
BRANCH  10  11
ATOM     11  C   UNL d   1       3.517   5.035   1.793  0.00  0.00     0.251 C 
ATOM     12  N   UNL d   1       3.010   6.137   2.422  0.00  0.00    -0.366 N 
ATOM     13  H   UNL d   1       3.447   7.042   2.459  0.00  0.00     0.159 HD
ATOM     14  H   UNL d   1       2.229   5.958   3.038  0.00  0.00     0.159 HD
ATOM     15  O   UNL d   1       3.053   3.944   2.124  0.00  0.00    -0.268 OA
ENDBRANCH  10  11
ENDBRANCH   3   5
BRANCH   1  16
ATOM     16  C   UNL d   1       2.387   1.473  -0.085  0.00  0.00     0.033 A 
ATOM     17  C   UNL d   1       3.112   0.281  -0.025  0.00  0.00     0.017 A 
ATOM     18  C   UNL d   1       2.443  -0.950   0.010  0.00  0.00     0.009 A 
ATOM     19  C   UNL d   1       1.041  -1.016   0.012  0.00  0.00    -0.045 A 
ATOM     20  C   UNL d   1       0.369  -2.360  -0.001  0.00  0.00     0.049 C 
ATOM     21  C   UNL d   1       0.318   0.184   0.013  0.00  0.00     0.017 A 
ATOM     22  C   UNL d   1       0.984   1.414  -0.025  0.00  0.00     0.036 A 
ATOM     23 BR   UNL d   1      -1.583   0.207   0.018  0.00  0.00    -0.051 Br
ENDBRANCH   1  16
TORSDOF 3
