REMARK  6 active torsions:
REMARK  status: ('A' for Active; 'I' for Inactive)
REMARK    1  A    between atoms: O_2  and  C_3 
REMARK    2  A    between atoms: C_9  and  C_10 
REMARK       I    between atoms: C_10  and  N_12 
REMARK    3  A    between atoms: N_12  and  C_13 
REMARK    4  A    between atoms: C_19  and  N_20 
REMARK    5  A    between atoms: N_20  and  C_21 
REMARK    6  A    between atoms: C_24  and  C_25 
REMARK       I    between atoms: C_25  and  N_26 
ROOT
ATOM      1  C   UNL d   1       2.999   1.267  -0.101  0.00  0.00     0.102 C 
ATOM      2  C   UNL d   1       2.637   2.354   0.686  0.00  0.00     0.040 C 
ATOM      3  C   UNL d   1       3.440   3.500   0.697  0.00  0.00     0.004 C 
ATOM      4  C   UNL d   1       4.674   3.509   0.042  0.00  0.00     0.014 C 
ATOM      5  C   UNL d   1       4.982   2.486  -0.848  0.00  0.00     0.002 A 
ATOM      6  C   UNL d   1       6.127   2.556  -1.756  0.00  0.00     0.035 A 
ATOM      7  C   UNL d   1       6.332   1.634  -2.717  0.00  0.00     0.084 A 
ATOM      8  C   UNL d   1       5.385   0.522  -2.778  0.00  0.00     0.164 A 
ATOM      9  O   UNL d   1       4.331   0.412  -1.901  0.00  0.00    -0.289 OA
ATOM     10  C   UNL d   1       4.123   1.395  -0.921  0.00  0.00     0.121 A 
ENDROOT
BRANCH   8  11
ATOM     11  N   UNL d   1       5.583  -0.514  -3.473  0.00  0.00    -0.336 N 
ATOM     12  H   UNL d   1       6.477  -0.654  -3.932  0.00  0.00     0.168 HD
BRANCH  11  13
ATOM     13  C   UNL d   1       4.678  -1.530  -3.728  0.00  0.00     0.034 C 
ATOM     14  C   UNL d   1       3.328  -1.287  -3.946  0.00  0.00     0.030 C 
ATOM     15  C   UNL d   1       2.460  -2.367  -3.926  0.00  0.00     0.019 C 
ATOM     16  C   UNL d   1       2.956  -3.668  -3.769  0.00  0.00     0.032 C 
ATOM     17  C   UNL d   1       4.344  -3.891  -3.734  0.00  0.00     0.019 C 
ATOM     18  C   UNL d   1       5.214  -2.813  -3.699  0.00  0.00     0.030 C 
BRANCH  16  19
ATOM     19  C   UNL d   1       2.049  -4.829  -3.580  0.00  0.00     0.249 C 
ATOM     20  N   UNL d   1       0.704  -4.593  -3.550  0.00  0.00    -0.366 N 
ATOM     21  H   UNL d   1       0.250  -3.698  -3.641  0.00  0.00     0.159 HD
ATOM     22  H   UNL d   1       0.100  -5.391  -3.398  0.00  0.00     0.159 HD
ATOM     23  O   UNL d   1       2.501  -5.953  -3.419  0.00  0.00    -0.268 OA
ENDBRANCH  16  19
ENDBRANCH  11  13
ENDBRANCH   8  11
BRANCH   7  24
ATOM     24  C   UNL d   1       7.554   1.784  -3.594  0.00  0.00     0.261 C 
ATOM     25  O   UNL d   1       8.275   2.763  -3.403  0.00  0.00    -0.267 OA
ATOM     26  N   UNL d   1       7.816   0.828  -4.579  0.00  0.00    -0.307 N 
ATOM     27  H   UNL d   1       7.143   0.348  -5.155  0.00  0.00     0.170 HD
BRANCH  26  28
ATOM     28  C   UNL d   1       8.951   0.913  -5.399  0.00  0.00     0.129 C 
ATOM     29  C   UNL d   1      10.165   1.348  -4.914  0.00  0.00     0.050 C 
ATOM     30  C   UNL d   1      11.165   1.628  -5.826  0.00  0.00     0.005 C 
ATOM     31  C   UNL d   1      10.951   1.362  -7.173  0.00  0.00     0.019 C 
ATOM     32  C   UNL d   1       9.757   0.761  -7.540  0.00  0.00     0.119 C 
ATOM     33  N   UNL d   1       8.739   0.529  -6.675  0.00  0.00    -0.243 NA
ENDBRANCH  26  28
ENDBRANCH   7  24
BRANCH   1  34
ATOM     34  O   UNL d   1       2.368   0.055  -0.102  0.00  0.00    -0.353 OA
ATOM     35  C   UNL d   1       0.949   0.102  -0.013  0.00  0.00     0.210 C 
ENDBRANCH   1  34
TORSDOF 6
