REMARK  10 active torsions:
REMARK  status: ('A' for Active; 'I' for Inactive)
REMARK    1  A    between atoms: C_2  and  C_3 
REMARK    2  A    between atoms: C_3  and  C_4 
REMARK    3  A    between atoms: C_4  and  O_5 
REMARK    4  A    between atoms: O_5  and  C_6 
REMARK    5  A    between atoms: C_9  and  N_10 
REMARK       I    between atoms: N_10  and  C_11 
REMARK    6  A    between atoms: C_11  and  C_13 
REMARK    7  A    between atoms: C_13  and  N_14 
REMARK    8  A    between atoms: N_14  and  C_15 
REMARK    9  A    between atoms: C_20  and  C_21 
REMARK       I    between atoms: C_21  and  N_23 
REMARK   10  A    between atoms: N_23  and  C_24 
ROOT
ATOM      1  N   UNL d   1      13.700  -3.105  -1.160  0.00  0.00    -0.381 N 
ATOM      2  H   UNL d   1      13.135  -3.075  -0.305  0.00  0.00     0.160 HD
ENDROOT
BRANCH   1   3
ATOM      3  C   UNL d   1      12.986  -2.700  -2.378  0.00  0.00     0.223 C 
BRANCH   3   4
ATOM      4  C   UNL d   1      11.496  -2.570  -2.036  0.00  0.00     0.239 C 
ATOM      5  N   UNL d   1      10.620  -2.344  -3.100  0.00  0.00    -0.326 N 
ATOM      6  H   UNL d   1      10.999  -2.237  -4.035  0.00  0.00     0.169 HD
ATOM      7  O   UNL d   1      11.176  -2.649  -0.846  0.00  0.00    -0.271 OA
BRANCH   5   8
ATOM      8  C   UNL d   1       9.215  -2.146  -2.950  0.00  0.00     0.034 A 
ATOM      9  C   UNL d   1       8.405  -1.828  -4.048  0.00  0.00     0.032 A 
ATOM     10  C   UNL d   1       7.038  -1.519  -3.859  0.00  0.00     0.039 A 
ATOM     11  C   UNL d   1       6.454  -1.586  -2.590  0.00  0.00     0.068 A 
ATOM     12  C   UNL d   1       7.243  -1.958  -1.517  0.00  0.00     0.039 A 
ATOM     13  C   UNL d   1       8.595  -2.233  -1.703  0.00  0.00     0.032 A 
BRANCH  11  14
ATOM     14  O   UNL d   1       5.105  -1.379  -2.499  0.00  0.00    -0.351 OA
BRANCH  14  15
ATOM     15  C   UNL d   1       4.663  -0.748  -1.289  0.00  0.00     0.175 C 
BRANCH  15  16
ATOM     16  C   UNL d   1       3.138  -0.753  -1.265  0.00  0.00     0.026 C 
BRANCH  16  17
ATOM     17  C   UNL d   1       2.602   0.010  -0.056  0.00  0.00    -0.002 C 
ATOM     18  C   UNL d   1       1.083   0.014  -0.043  0.00  0.00     0.005 C 
ENDBRANCH  16  17
ENDBRANCH  15  16
ENDBRANCH  14  15
ENDBRANCH  11  14
ENDBRANCH   5   8
ENDBRANCH   3   4
ENDBRANCH   1   3
BRANCH   1  19
ATOM     19  C   UNL d   1      15.064  -3.133  -1.011  0.00  0.00     0.029 A 
ATOM     20  C   UNL d   1      15.637  -4.088  -0.169  0.00  0.00     0.031 A 
ATOM     21  C   UNL d   1      17.016  -4.157   0.009  0.00  0.00     0.027 A 
ATOM     22  C   UNL d   1      17.855  -3.304  -0.699  0.00  0.00     0.049 A 
ATOM     23 CL   UNL d   1      19.547  -3.629  -0.474  0.00  0.00    -0.083 Cl
ATOM     24  C   UNL d   1      17.299  -2.317  -1.540  0.00  0.00     0.055 A 
ATOM     25  C   UNL d   1      15.906  -2.257  -1.690  0.00  0.00     0.048 A 
BRANCH  24  26
ATOM     26  C   UNL d   1      18.158  -1.325  -2.220  0.00  0.00     0.253 C 
ATOM     27  O   UNL d   1      19.370  -1.437  -2.047  0.00  0.00    -0.268 OA
ATOM     28  N   UNL d   1      17.605  -0.309  -2.991  0.00  0.00    -0.352 N 
ATOM     29  H   UNL d   1      16.609  -0.247  -3.135  0.00  0.00     0.163 HD
BRANCH  28  30
ATOM     30  C   UNL d   1      18.401   0.729  -3.665  0.00  0.00     0.084 C 
ATOM     31  C   UNL d   1      17.925   2.127  -3.239  0.00  0.00     0.025 C 
ATOM     32  C   UNL d   1      18.795   3.237  -3.835  0.00  0.00     0.002 C 
ATOM     33  C   UNL d   1      20.275   3.033  -3.526  0.00  0.00     0.000 C 
ATOM     34  C   UNL d   1      20.745   1.684  -4.037  0.00  0.00     0.002 C 
ATOM     35  C   UNL d   1      19.908   0.589  -3.432  0.00  0.00     0.025 C 
ENDBRANCH  28  30
ENDBRANCH  24  26
ENDBRANCH   1  19
TORSDOF 10
