@<TRIPOS>MOLECULE
*****
 50 53 0 0 0
SMALL
GASTEIGER

@<TRIPOS>ATOM
      1 C           2.8739    0.1197    1.4070 C.3     1  UNL1       -0.0466
      2 C           2.4683   -0.0226   -0.0672 C.3     1  UNL1        0.0214
      3 C           2.9759    1.1509   -0.9125 C.3     1  UNL1       -0.0038
      4 C           4.5188    1.2337   -0.8073 C.3     1  UNL1        0.1508
      5 C           5.0760    2.2775   -1.7594 C.3     1  UNL1        0.4118
      6 F           6.1286    1.8826   -2.4971 F       1  UNL1       -0.1684
      7 F           4.1345    2.7225   -2.6295 F       1  UNL1       -0.1684
      8 F           5.4744    3.3723   -1.0546 F       1  UNL1       -0.1684
      9 N           5.1039   -0.0991   -0.9469 N.ar    1  UNL1       -0.2383
     10 N           6.4283   -0.3100   -0.9842 N.ar    1  UNL1       -0.1767
     11 C           6.5265   -1.6396   -1.1280 C.ar    1  UNL1        0.0635
     12 C           5.2818   -2.3256   -1.0364 C.ar    1  UNL1        0.0971
     13 C           4.9606   -3.7620   -1.0604 C.2     1  UNL1        0.2650
     14 O           3.8034   -4.1832   -0.9245 O.2     1  UNL1       -0.2685
     15 N           6.0185   -4.6429   -1.2362 N.am    1  UNL1       -0.2310
     16 N           5.8330   -6.0822   -1.2644 N.am    1  UNL1       -0.2453
     17 C           6.9420   -6.9104   -1.5031 C.2     1  UNL1        0.1510
     18 S           8.4531   -6.2047   -1.7964 S.2     1  UNL1       -0.0171
     19 N           6.6560   -8.2933   -1.5027 N.am    1  UNL1       -0.2953
     20 C           7.6375   -9.3410   -1.6969 C.ar    1  UNL1        0.0404
     21 C           8.8370   -9.2753   -0.9735 C.ar    1  UNL1       -0.0399
     22 C           9.8843  -10.1640   -1.2002 C.ar    1  UNL1       -0.0594
     23 C           9.7342  -11.1887   -2.1223 C.ar    1  UNL1       -0.0539
     24 C           8.5194  -11.3639   -2.7937 C.ar    1  UNL1       -0.0161
     25 C           8.3925  -12.4477   -3.6805 C.ar    1  UNL1       -0.0540
     26 C           7.2106  -12.6591   -4.3811 C.ar    1  UNL1       -0.0612
     27 C           6.1489  -11.7796   -4.2084 C.ar    1  UNL1       -0.0611
     28 C           6.2628  -10.6869   -3.3347 C.ar    1  UNL1       -0.0523
     29 C           7.4395  -10.4462   -2.5876 C.ar    1  UNL1        0.0033
     30 C           4.3871   -1.2782   -0.8651 C.ar    1  UNL1        0.1301
     31 N           3.0488   -1.2278   -0.6514 N.pl3   1  UNL1       -0.3260
     32 H           2.5180    1.0715    1.8149 H       1  UNL1        0.0247
     33 H           3.9606    0.0957    1.5502 H       1  UNL1        0.0247
     34 H           2.4774   -0.7004    2.0103 H       1  UNL1        0.0247
     35 H           1.3755   -0.0797   -0.1337 H       1  UNL1        0.0496
     36 H           2.4953    2.0898   -0.6138 H       1  UNL1        0.0306
     37 H           2.6942    0.9676   -1.9610 H       1  UNL1        0.0306
     38 H           4.7717    1.5645    0.2102 H       1  UNL1        0.0636
     39 H           7.5177   -2.0484   -1.2700 H       1  UNL1        0.0856
     40 H           6.9809   -4.3345   -1.3599 H       1  UNL1        0.1731
     41 H           4.8722   -6.4024   -1.1529 H       1  UNL1        0.1718
     42 H           5.6912   -8.5751   -1.6223 H       1  UNL1        0.1539
     43 H           8.9775   -8.5142   -0.2117 H       1  UNL1        0.0636
     44 H          10.8196  -10.0438   -0.6605 H       1  UNL1        0.0618
     45 H          10.5770  -11.8545   -2.3028 H       1  UNL1        0.0624
     46 H           9.2185  -13.1426   -3.8324 H       1  UNL1        0.0624
     47 H           7.1244  -13.5031   -5.0618 H       1  UNL1        0.0618
     48 H           5.2266  -11.9398   -4.7614 H       1  UNL1        0.0618
     49 H           5.4129  -10.0175   -3.2542 H       1  UNL1        0.0624
     50 H           2.4919   -2.0853   -0.6401 H       1  UNL1        0.1477
@<TRIPOS>BOND
     1     2     3    1
     2     3     4    1
     3     5     6    1
     4     5     7    1
     5     5     8    1
     6     4     9    1
     7     9    10   ar
     8    10    11   ar
     9    11    12   ar
    10    12    13    1
    11    13    14    2
    12    13    15   am
    13    15    16    1
    14    16    17    1
    15    17    18    2
    16    17    19    1
    17    19    20    1
    18    20    21   ar
    19    21    22   ar
    20    22    23   ar
    21    23    24   ar
    22    24    25   ar
    23    25    26   ar
    24    26    27   ar
    25    27    28   ar
    26    28    29   ar
    27    20    29   ar
    28    24    29   ar
    29    12    30   ar
    30     9    30   ar
    31    30    31    1
    32     2    31    1
    33     4     5    1
    34     2     1    1
    35     1    32    1
    36     1    33    1
    37     1    34    1
    38     2    35    1
    39     3    36    1
    40     3    37    1
    41     4    38    1
    42    11    39    1
    43    15    40    1
    44    16    41    1
    45    19    42    1
    46    21    43    1
    47    22    44    1
    48    23    45    1
    49    25    46    1
    50    26    47    1
    51    27    48    1
    52    28    49    1
    53    31    50    1
