@<TRIPOS>MOLECULE
*****
 32 34 0 0 0
SMALL
GASTEIGER

@<TRIPOS>ATOM
      1 O           1.0495    0.1557    0.0547 O.2     1  UNL1       -0.2654
      2 C           2.2774    0.1350    0.0380 C.ar    1  UNL1        0.2791
      3 N           3.0380    1.2668    0.0508 N.ar    1  UNL1       -0.2919
      4 C           4.4056    1.2243    0.0652 C.ar    1  UNL1        0.2201
      5 N           5.0612    2.4451    0.0759 N.pl3   1  UNL1       -0.2838
      6 C           6.4674    2.5691    0.0864 C.ar    1  UNL1        0.0351
      7 C           7.2299    2.0075   -0.9489 C.ar    1  UNL1       -0.0377
      8 C           8.6246    1.9959   -0.8950 C.ar    1  UNL1       -0.0232
      9 C           9.2638    2.4409    0.2530 C.ar    1  UNL1        0.1417
     10 F          10.5915    2.2791    0.3566 F       1  UNL1       -0.2040
     11 C           8.5292    3.0275    1.2805 C.ar    1  UNL1        0.0778
     12 CL          9.3172    3.5281    2.7303 Cl      1  UNL1       -0.0805
     13 C           7.1388    3.1660    1.1638 C.ar    1  UNL1       -0.0193
     14 N           5.0290    0.0815    0.0806 N.ar    1  UNL1       -0.1141
     15 N           4.3497   -1.1481    0.0767 N.ar    1  UNL1       -0.1405
     16 C           3.0524   -1.1602    0.0328 C.ar    1  UNL1        0.1574
     17 C           2.3080   -2.4458    0.0247 C.ar    1  UNL1        0.0075
     18 C           1.3746   -2.7254   -0.9803 C.ar    1  UNL1       -0.0523
     19 C           0.5602   -3.8580   -0.8804 C.ar    1  UNL1       -0.0611
     20 C           0.7492   -4.7657    0.1610 C.ar    1  UNL1       -0.0617
     21 C           1.7641   -4.5508    1.0936 C.ar    1  UNL1       -0.0611
     22 C           2.5155   -3.3713    1.0535 C.ar    1  UNL1       -0.0523
     23 H           2.5320    2.1357    0.0693 H       1  UNL1        0.1717
     24 H           4.5482    3.3052    0.2006 H       1  UNL1        0.1550
     25 H           6.7296    1.5537   -1.8017 H       1  UNL1        0.0637
     26 H           9.2074    1.6001   -1.7199 H       1  UNL1        0.0647
     27 H           6.5893    3.6720    1.9522 H       1  UNL1        0.0652
     28 H           1.2641   -2.0668   -1.8372 H       1  UNL1        0.0624
     29 H          -0.2250   -4.0331   -1.6125 H       1  UNL1        0.0618
     30 H           0.1103   -5.6429    0.2415 H       1  UNL1        0.0618
     31 H           1.9582   -5.2968    1.8607 H       1  UNL1        0.0618
     32 H           3.2432   -3.1726    1.8365 H       1  UNL1        0.0624
@<TRIPOS>BOND
     1     1     2    2
     2     2     3   ar
     3     3     4   ar
     4     4     5    1
     5     5     6    1
     6     6     7   ar
     7     7     8   ar
     8     8     9   ar
     9     9    10    1
    10     9    11   ar
    11    11    12    1
    12    11    13   ar
    13     6    13   ar
    14     4    14   ar
    15    14    15   ar
    16    15    16   ar
    17     2    16   ar
    18    16    17    1
    19    17    18   ar
    20    18    19   ar
    21    19    20   ar
    22    20    21   ar
    23    21    22   ar
    24    17    22   ar
    25     3    23    1
    26     5    24    1
    27     7    25    1
    28     8    26    1
    29    13    27    1
    30    18    28    1
    31    19    29    1
    32    20    30    1
    33    21    31    1
    34    22    32    1
