@<TRIPOS>MOLECULE
*****
 32 33 0 0 0
SMALL
GASTEIGER

@<TRIPOS>ATOM
      1 C           1.0198    0.1217    0.0583 C.3     1  UNL1       -0.0372
      2 C           2.5187    0.2009    0.0582 C.ar    1  UNL1       -0.0120
      3 C           3.3599    1.3301    0.0550 C.ar    1  UNL1        0.0814
      4 C           3.2055    2.8252    0.0495 C.2     1  UNL1        0.2702
      5 O           4.1887    3.5741    0.0482 O.2     1  UNL1       -0.2679
      6 N           1.9143    3.3861    0.0432 N.am    1  UNL1       -0.2025
      7 N           1.7375    4.7713    0.0183 N.2     1  UNL1       -0.1874
      8 C           0.5172    5.2186    0.0786 C.2     1  UNL1        0.0542
      9 C           0.2028    6.6800    0.0905 C.ar    1  UNL1        0.0129
     10 C           0.9035    7.5380   -0.7670 C.ar    1  UNL1       -0.0503
     11 C           0.6287    8.9135   -0.7779 C.ar    1  UNL1       -0.0427
     12 C          -0.3385    9.4411    0.0755 C.ar    1  UNL1        0.0424
     13 CL         -0.6519   11.1346    0.0665 Cl      1  UNL1       -0.0835
     14 C          -1.0494    8.6022    0.9309 C.ar    1  UNL1       -0.0244
     15 C          -0.7875    7.2209    0.9291 C.ar    1  UNL1        0.0510
     16 CL         -1.6969    6.2372    2.0204 Cl      1  UNL1       -0.0828
     17 S           5.0305    0.7956    0.0487 S.2     1  UNL1       -0.0678
     18 C           4.6546   -0.8583    0.0490 C.ar    1  UNL1        0.0814
     19 N           5.6204   -1.8058    0.0401 N.pl3   1  UNL1       -0.3516
     20 C           3.2927   -1.0453    0.0602 C.ar    1  UNL1        0.0833
     21 C           2.7541   -2.3799    0.0699 C.1     1  UNL1        0.1018
     22 N           2.3751   -3.4815    0.0784 N.1     1  UNL1       -0.1908
     23 H           0.5224    1.0841    0.0554 H       1  UNL1        0.0278
     24 H           0.6673   -0.4228    0.9427 H       1  UNL1        0.0278
     25 H           0.6682   -0.4261   -0.8247 H       1  UNL1        0.0278
     26 H           1.0942    2.8105    0.0732 H       1  UNL1        0.1776
     27 H          -0.3501    4.5365    0.1318 H       1  UNL1        0.0852
     28 H           1.6606    7.1416   -1.4398 H       1  UNL1        0.0625
     29 H           1.1779    9.5694   -1.4507 H       1  UNL1        0.0632
     30 H          -1.7967    9.0261    1.5998 H       1  UNL1        0.0647
     31 H           6.6078   -1.5666    0.0311 H       1  UNL1        0.1428
     32 H           5.4268   -2.8060    0.0376 H       1  UNL1        0.1428
@<TRIPOS>BOND
     1     1     2    1
     2     2     3   ar
     3     3     4    1
     4     4     5    2
     5     4     6   am
     6     6     7    1
     7     7     8    2
     8     8     9    1
     9     9    10   ar
    10    10    11   ar
    11    11    12   ar
    12    12    13    1
    13    12    14   ar
    14    14    15   ar
    15     9    15   ar
    16    15    16    1
    17     3    17   ar
    18    17    18   ar
    19    18    19    1
    20    18    20   ar
    21     2    20   ar
    22    20    21    1
    23    21    22    3
    24     1    23    1
    25     1    24    1
    26     1    25    1
    27     6    26    1
    28     8    27    1
    29    10    28    1
    30    11    29    1
    31    14    30    1
    32    19    31    1
    33    19    32    1
