REMARK  8 active torsions:
REMARK  status: ('A' for Active; 'I' for Inactive)
REMARK    1  A    between atoms: C_9  and  C_10 
REMARK    2  A    between atoms: C_10  and  C_11 
REMARK    3  A    between atoms: C_11  and  C_12 
REMARK    4  A    between atoms: C_11  and  N_29 
REMARK    5  A    between atoms: C_12  and  O_13 
REMARK    6  A    between atoms: O_13  and  C_14 
REMARK    7  A    between atoms: C_18  and  C_19 
REMARK    8  A    between atoms: N_29  and  C_30 
ROOT
ATOM      1  C   UNL d   1       0.918   3.672   0.102  0.00  0.00     0.110 C 
ENDROOT
BRANCH   1   2
ATOM      2  C   UNL d   1       2.031   2.610  -0.070  0.00  0.00     0.064 C 
BRANCH   2   3
ATOM      3  C   UNL d   1       1.510   1.174  -0.246  0.00  0.00    -0.048 A 
ATOM      4  C   UNL d   1       2.478   0.024  -0.069  0.00  0.00     0.155 A 
ATOM      5  N   UNL d   1       1.576  -1.141  -0.048  0.00  0.00    -0.385 N 
ATOM      6  C   UNL d   1       0.351  -0.751  -0.185  0.00  0.00     0.038 A 
ATOM      7  H   UNL d   1       1.824  -2.112   0.086  0.00  0.00     0.160 HD
ATOM      8  C   UNL d   1       0.246   0.704  -0.406  0.00  0.00    -0.006 A 
ATOM      9  C   UNL d   1      -0.877  -1.554  -0.071  0.00  0.00     0.030 C 
ATOM     10  C   UNL d   1      -1.079   1.283  -0.488  0.00  0.00     0.014 C 
ATOM     11  C   UNL d   1      -2.159   0.526  -0.257  0.00  0.00     0.001 C 
ATOM     12  C   UNL d   1      -2.057  -0.903  -0.090  0.00  0.00     0.002 C 
ENDBRANCH   2   3
ENDBRANCH   1   2
BRANCH   1  13
ATOM     13  C   UNL d   1       0.142   3.397   1.437  0.00  0.00     0.201 C 
BRANCH  13  14
ATOM     14  O   UNL d   1       0.067   2.048   1.865  0.00  0.00    -0.348 OA
BRANCH  14  15
ATOM     15  C   UNL d   1      -0.995   1.636   2.609  0.00  0.00     0.087 C 
ATOM     16  C   UNL d   1      -0.834   0.356   3.119  0.00  0.00     0.152 C 
ATOM     17  N   UNL d   1      -1.631  -0.217   4.031  0.00  0.00    -0.269 NA
ATOM     18  C   UNL d   1      -2.659   0.546   4.456  0.00  0.00     0.128 C 
ATOM     19  C   UNL d   1      -3.007   1.779   3.897  0.00  0.00    -0.006 C 
ATOM     20  C   UNL d   1      -2.171   2.307   2.907  0.00  0.00     0.052 C 
BRANCH  19  21
ATOM     21  C   UNL d   1      -4.054   2.612   4.472  0.00  0.00    -0.023 C 
ATOM     22  C   UNL d   1      -5.248   2.938   3.784  0.00  0.00     0.014 C 
ATOM     23  C   UNL d   1      -6.268   3.645   4.439  0.00  0.00     0.028 C 
ATOM     24  C   UNL d   1      -5.982   4.113   5.703  0.00  0.00     0.059 C 
ATOM     25  C   UNL d   1      -4.706   4.042   6.247  0.00  0.00     0.060 C 
ATOM     26  N   UNL d   1      -6.833   4.545   6.753  0.00  0.00    -0.149 NA
ATOM     27  C   UNL d   1      -3.815   3.145   5.747  0.00  0.00     0.040 C 
ATOM     28  N   UNL d   1      -4.707   4.706   7.496  0.00  0.00    -0.149 NA
ATOM     29  O   UNL d   1      -6.046   4.587   7.948  0.00  0.00    -0.202 OA
ATOM     30  H   UNL d   1      -4.671   5.709   7.266  0.00  0.00     0.162 HD
ATOM     31  H   UNL d   1      -7.176   5.482   6.582  0.00  0.00     0.162 HD
ENDBRANCH  19  21
ENDBRANCH  14  15
ENDBRANCH  13  14
ENDBRANCH   1  13
BRANCH   1  32
ATOM     32  N   UNL d   1       1.368   5.092   0.016  0.00  0.00    -0.383 N 
ATOM     33  H   UNL d   1       2.345   5.302  -0.169  0.00  0.00     0.160 HD
BRANCH  32  34
ATOM     34  C   UNL d   1       0.443   6.156  -0.000  0.00  0.00     0.030 C 
ATOM     35  C   UNL d   1      -0.589   6.189   0.989  0.00  0.00     0.031 C 
ATOM     36  C   UNL d   1      -1.623   7.117   1.124  0.00  0.00     0.039 C 
ATOM     37  C   UNL d   1      -1.630   8.051   0.110  0.00  0.00     0.117 C 
ATOM     38  N   UNL d   1      -2.483   9.062  -0.049  0.00  0.00    -0.103 NA
ATOM     39  C   UNL d   1      -0.662   8.051  -0.974  0.00  0.00     0.119 C 
ATOM     40  O   UNL d   1      -2.272   9.486  -1.346  0.00  0.00    -0.106 OA
ATOM     41  N   UNL d   1      -1.107   8.938  -1.879  0.00  0.00    -0.103 NA
ATOM     42  C   UNL d   1       0.469   7.175  -0.985  0.00  0.00     0.065 C 
ENDBRANCH  32  34
ENDBRANCH   1  32
TORSDOF 8
