@<TRIPOS>MOLECULE
*****
 60 62 0 0 0
SMALL
GASTEIGER

@<TRIPOS>ATOM
      1 C           1.0857    0.0404    0.0639 C.3     1  UNL1       -0.0639
      2 C           2.6092    0.0551    0.0742 C.3     1  UNL1       -0.0402
      3 C           3.1447    1.2727    0.8265 C.3     1  UNL1        0.0114
      4 N           4.5978    1.3263    0.8689 N.am    1  UNL1       -0.3138
      5 C           5.2550    2.3683    1.5049 C.2     1  UNL1        0.2331
      6 O           4.6496    3.2750    2.0789 O.2     1  UNL1       -0.2738
      7 C           6.8073    2.3295    1.4591 C.3     1  UNL1        0.0969
      8 C           7.2892    2.3632    0.0094 C.3     1  UNL1       -0.0381
      9 N           7.3615    3.4525    2.2210 N.am    1  UNL1       -0.2999
     10 C           8.7244    3.6282    2.3661 C.2     1  UNL1        0.2516
     11 O           9.5294    2.8101    1.9284 O.2     1  UNL1       -0.2696
     12 C           9.1332    4.8570    3.0156 C.ar    1  UNL1        0.0795
     13 S          10.3168    5.7994    2.2112 S.2     1  UNL1       -0.0636
     14 C          10.2788    6.9900    3.4163 C.ar    1  UNL1        0.1163
     15 N          11.0183    8.1208    3.3026 N.ar    1  UNL1       -0.2257
     16 C          10.8939    8.9409    4.2999 C.ar    1  UNL1        0.1212
     17 C          11.6895   10.2180    4.3135 C.3     1  UNL1        0.0565
     18 S          11.3885   11.2001    5.8411 S.3     1  UNL1       -0.1172
     19 C          12.4213   12.6440    5.6434 C.ar    1  UNL1        0.0114
     20 C          11.8519   13.8711    6.0277 C.ar    1  UNL1       -0.0451
     21 C          12.5085   15.0821    5.7755 C.ar    1  UNL1       -0.0494
     22 C          11.9043   16.3951    6.1709 C.3     1  UNL1       -0.0397
     23 C          13.7724   15.0540    5.1921 C.ar    1  UNL1       -0.0585
     24 C          14.4380   13.8436    5.0524 C.ar    1  UNL1       -0.0575
     25 C          13.7558   12.6312    5.2080 C.ar    1  UNL1       -0.0370
     26 C          14.4804   11.3856    4.8066 C.3     1  UNL1       -0.0387
     27 N          10.1126    8.6947    5.3998 N.ar    1  UNL1       -0.3096
     28 C           9.3454    7.5813    5.5591 C.ar    1  UNL1        0.2601
     29 O           8.6455    7.4301    6.5634 O.2     1  UNL1       -0.2671
     30 C           9.4327    6.6506    4.4543 C.ar    1  UNL1        0.0756
     31 C           8.7578    5.4012    4.2368 C.ar    1  UNL1       -0.0168
     32 C           7.8128    4.7610    5.1986 C.3     1  UNL1       -0.0377
     33 H           0.7117   -0.8360   -0.4754 H       1  UNL1        0.0230
     34 H           0.6879    0.9344   -0.4274 H       1  UNL1        0.0230
     35 H           0.6871    0.0050    1.0832 H       1  UNL1        0.0230
     36 H           2.9767    0.0570   -0.9590 H       1  UNL1        0.0278
     37 H           2.9756   -0.8675    0.5398 H       1  UNL1        0.0278
     38 H           2.7800    1.2688    1.8599 H       1  UNL1        0.0462
     39 H           2.7881    2.1949    0.3532 H       1  UNL1        0.0462
     40 H           5.1266    0.5913    0.4159 H       1  UNL1        0.1487
     41 H           7.1449    1.4126    1.9554 H       1  UNL1        0.0592
     42 H           6.9444    3.2735   -0.4925 H       1  UNL1        0.0252
     43 H           6.9266    1.4997   -0.5533 H       1  UNL1        0.0252
     44 H           8.3803    2.3489   -0.0645 H       1  UNL1        0.0252
     45 H           6.7089    4.1575    2.5507 H       1  UNL1        0.1498
     46 H          11.4781   10.7951    3.4069 H       1  UNL1        0.0459
     47 H          12.7060    9.8337    4.2784 H       1  UNL1        0.0459
     48 H          10.8782   13.8923    6.5158 H       1  UNL1        0.0631
     49 H          10.9607   16.2548    6.7068 H       1  UNL1        0.0278
     50 H          11.7160   17.0184    5.2921 H       1  UNL1        0.0278
     51 H          12.5885   16.9215    6.8464 H       1  UNL1        0.0278
     52 H          14.2619   15.9698    4.8720 H       1  UNL1        0.0620
     53 H          15.4971   13.8464    4.8061 H       1  UNL1        0.0621
     54 H          15.5422   11.5473    4.6139 H       1  UNL1        0.0278
     55 H          14.0737   11.0623    3.8462 H       1  UNL1        0.0278
     56 H          14.3875   10.6115    5.5752 H       1  UNL1        0.0278
     57 H          10.0949    9.3769    6.1479 H       1  UNL1        0.1701
     58 H           7.6526    5.3568    6.0984 H       1  UNL1        0.0278
     59 H           8.2035    3.7893    5.5159 H       1  UNL1        0.0278
     60 H           6.8359    4.6193    4.7311 H       1  UNL1        0.0278
@<TRIPOS>BOND
     1     1     2    1
     2     2     3    1
     3     3     4    1
     4     4     5   am
     5     5     6    2
     6     5     7    1
     7     7     8    1
     8     7     9    1
     9     9    10   am
    10    10    11    2
    11    10    12    1
    12    12    13   ar
    13    13    14   ar
    14    14    15   ar
    15    15    16   ar
    16    16    17    1
    17    17    18    1
    18    18    19    1
    19    19    20   ar
    20    20    21   ar
    21    21    22    1
    22    21    23   ar
    23    23    24   ar
    24    24    25   ar
    25    19    25   ar
    26    25    26    1
    27    16    27   ar
    28    27    28   ar
    29    28    29    2
    30    28    30   ar
    31    14    30   ar
    32    30    31   ar
    33    12    31   ar
    34    31    32    1
    35     1    33    1
    36     1    34    1
    37     1    35    1
    38     2    36    1
    39     2    37    1
    40     3    38    1
    41     3    39    1
    42     4    40    1
    43     7    41    1
    44     8    42    1
    45     8    43    1
    46     8    44    1
    47     9    45    1
    48    17    46    1
    49    17    47    1
    50    20    48    1
    51    22    49    1
    52    22    50    1
    53    22    51    1
    54    23    52    1
    55    24    53    1
    56    26    54    1
    57    26    55    1
    58    26    56    1
    59    27    57    1
    60    32    58    1
    61    32    59    1
    62    32    60    1
