@<TRIPOS>MOLECULE
*****
 41 44 0 0 0
SMALL
GASTEIGER

@<TRIPOS>ATOM
      1 N          -1.8930   -2.2054    0.0129 N.pl3   1  UNL1       -0.3575
      2 C          -1.4386   -0.8944   -0.0339 C.ar    1  UNL1        0.0324
      3 C          -2.4420    0.0928   -0.0501 C.ar    1  UNL1       -0.0404
      4 C          -2.1031    1.4090   -0.0161 C.ar    1  UNL1       -0.0594
      5 C          -0.7715    1.7020    0.0935 C.ar    1  UNL1       -0.0521
      6 C           0.2949    0.8321   -0.0148 C.ar    1  UNL1        0.0051
      7 C           1.6202    1.3320   -0.0360 C.ar    1  UNL1        0.0412
      8 N           1.9780    2.7442   -0.0584 N.am    1  UNL1       -0.2847
      9 C           1.2101    3.9408   -0.1531 C.2     1  UNL1        0.2209
     10 O           0.0667    4.1706   -0.4418 O.2     1  UNL1       -0.2751
     11 C           2.0193    5.1568    0.0782 C.3     1  UNL1        0.0432
     12 C           1.6088    6.5922    0.3335 C.3     1  UNL1       -0.0338
     13 C           1.7990    6.1674   -1.0687 C.3     1  UNL1       -0.0040
     14 C           2.8942    6.5486   -2.0033 C.ar    1  UNL1       -0.0435
     15 C           4.2434    6.2872   -1.7596 C.ar    1  UNL1       -0.0583
     16 C           5.2245    6.7241   -2.6488 C.ar    1  UNL1       -0.0615
     17 C           4.8670    7.3327   -3.8511 C.ar    1  UNL1       -0.0617
     18 C           3.5281    7.5449   -4.1503 C.ar    1  UNL1       -0.0615
     19 C           2.5574    7.1617   -3.2296 C.ar    1  UNL1       -0.0583
     20 C           2.6579    0.3696   -0.0123 C.ar    1  UNL1       -0.0399
     21 C           2.3695   -1.0104   -0.0115 C.ar    1  UNL1       -0.0594
     22 C           1.0415   -1.4575   -0.0305 C.ar    1  UNL1       -0.0522
     23 C          -0.0390   -0.5432   -0.0376 C.ar    1  UNL1        0.0045
     24 H          -2.8917   -2.3653    0.0168 H       1  UNL1        0.1423
     25 H          -1.2612   -2.9855   -0.0026 H       1  UNL1        0.1423
     26 H          -3.4975   -0.1476   -0.0391 H       1  UNL1        0.0636
     27 H          -2.8048    2.2340    0.0064 H       1  UNL1        0.0618
     28 H          -0.6115    2.6946    0.4127 H       1  UNL1        0.0624
     29 H           2.9757    2.9006   -0.0270 H       1  UNL1        0.1548
     30 H           2.7664    4.9900    0.8374 H       1  UNL1        0.0400
     31 H           2.3687    7.1819    0.8385 H       1  UNL1        0.0279
     32 H           0.6035    6.8577    0.6374 H       1  UNL1        0.0279
     33 H           0.8314    6.1280   -1.5855 H       1  UNL1        0.0356
     34 H           4.5368    5.7398   -0.8689 H       1  UNL1        0.0620
     35 H           6.2718    6.5965   -2.3949 H       1  UNL1        0.0618
     36 H           5.6335    7.6354   -4.5575 H       1  UNL1        0.0618
     37 H           3.2335    8.0178   -5.0834 H       1  UNL1        0.0618
     38 H           1.5096    7.3312   -3.4784 H       1  UNL1        0.0620
     39 H           3.7104    0.6520    0.0060 H       1  UNL1        0.0636
     40 H           3.1738   -1.7489   -0.0056 H       1  UNL1        0.0618
     41 H           0.8535   -2.5294   -0.0342 H       1  UNL1        0.0624
@<TRIPOS>BOND
     1     1     2    1
     2     2     3   ar
     3     3     4   ar
     4     4     5   ar
     5     5     6   ar
     6     6     7   ar
     7     7     8    1
     8     8     9   am
     9     9    10    2
    10     9    11    1
    11    11    12    1
    12    12    13    1
    13    11    13    1
    14    14    15   ar
    15    15    16   ar
    16    16    17   ar
    17    17    18   ar
    18    18    19   ar
    19    14    19   ar
    20     7    20   ar
    21    20    21   ar
    22    21    22   ar
    23    22    23   ar
    24     2    23   ar
    25     6    23   ar
    26    13    14    1
    27     1    24    1
    28     1    25    1
    29     3    26    1
    30     4    27    1
    31     5    28    1
    32     8    29    1
    33    11    30    1
    34    12    31    1
    35    12    32    1
    36    13    33    1
    37    15    34    1
    38    16    35    1
    39    17    36    1
    40    18    37    1
    41    19    38    1
    42    20    39    1
    43    21    40    1
    44    22    41    1
