@<TRIPOS>MOLECULE
*****
 66 69 0 0 0
SMALL
GASTEIGER

@<TRIPOS>ATOM
      1 C           1.1721   -0.6869   -0.4640 C.3     1  UNL1        0.0790
      2 O           2.5527   -0.4492   -0.1665 O.3     1  UNL1       -0.4913
      3 C           3.0332    0.8272   -0.3827 C.ar    1  UNL1        0.1657
      4 C           4.2540    0.9264   -1.1475 C.ar    1  UNL1       -0.0089
      5 C           4.9085    2.1700   -1.3565 C.ar    1  UNL1       -0.0160
      6 C           6.3927    2.4216   -1.7644 C.2     1  UNL1       -0.0280
      7 C           7.2283    3.5361   -1.6634 C.2     1  UNL1        0.0967
      8 N           6.8319    4.7737   -1.0917 N.am    1  UNL1       -0.2773
      9 C           6.0172    4.9447    0.0155 C.2     1  UNL1        0.2484
     10 O           5.8643    4.0099    0.8674 O.2     1  UNL1       -0.2699
     11 C           5.2404    6.2206    0.2647 C.ar    1  UNL1        0.0370
     12 C           4.3958    6.2356    1.3930 C.ar    1  UNL1       -0.0496
     13 C           3.4966    7.2750    1.6580 C.ar    1  UNL1       -0.0610
     14 C           3.5110    8.4046    0.8680 C.ar    1  UNL1       -0.0617
     15 C           4.3579    8.4397   -0.2410 C.ar    1  UNL1       -0.0610
     16 C           5.1789    7.3353   -0.5820 C.ar    1  UNL1       -0.0496
     17 C           8.7564    3.4497   -2.2827 C.2     1  UNL1        0.2583
     18 O           9.1186    2.3940   -2.8037 O.2     1  UNL1       -0.2688
     19 N           9.6434    4.5823   -2.2009 N.am    1  UNL1       -0.3100
     20 C          11.2015    4.6896   -2.6763 C.3     1  UNL1        0.0160
     21 C          12.0866    6.1948   -2.2354 C.3     1  UNL1       -0.0101
     22 C          13.6823    6.8512   -2.7026 C.ar    1  UNL1       -0.0209
     23 C          13.4484    7.2738   -4.0140 C.ar    1  UNL1        0.0060
     24 N          14.6304    6.7728   -4.4956 N.ar    1  UNL1       -0.3604
     25 C          15.5307    7.6805   -4.0479 C.ar    1  UNL1        0.0467
     26 C          16.5300    8.2390   -4.8946 C.ar    1  UNL1       -0.0378
     27 C          17.3555    9.2696   -4.5434 C.ar    1  UNL1       -0.0598
     28 C          17.1109    9.7269   -3.2910 C.ar    1  UNL1       -0.0611
     29 C          16.0319    9.0895   -2.3374 C.ar    1  UNL1       -0.0523
     30 C          15.1099    7.9167   -2.7538 C.ar    1  UNL1        0.0029
     31 C           4.0831    3.2633   -1.1121 C.ar    1  UNL1       -0.0089
     32 C           3.0418    3.2149   -0.1637 C.ar    1  UNL1        0.1657
     33 O           2.6178    4.4323    0.3421 O.3     1  UNL1       -0.4913
     34 C           1.7974    4.4722    1.5285 C.3     1  UNL1        0.0790
     35 C           2.5369    1.9817    0.2368 C.ar    1  UNL1        0.2035
     36 O           1.6991    2.1013    1.2925 O.3     1  UNL1       -0.4885
     37 C           0.5763    1.3096    1.4534 C.3     1  UNL1        0.0791
     38 H           1.0130   -1.7482   -0.6539 H       1  UNL1        0.0660
     39 H           0.7854   -0.0726   -1.2840 H       1  UNL1        0.0660
     40 H           0.5294   -0.5899    0.4046 H       1  UNL1        0.0660
     41 H           4.6563    0.0073   -1.5746 H       1  UNL1        0.0661
     42 H           6.8337    1.5070   -2.1758 H       1  UNL1        0.0644
     43 H           7.4126    5.5749   -1.2951 H       1  UNL1        0.1553
     44 H           4.3434    5.3480    2.0261 H       1  UNL1        0.0625
     45 H           2.7562    7.1810    2.4506 H       1  UNL1        0.0618
     46 H           2.8530    9.2328    1.1210 H       1  UNL1        0.0618
     47 H           4.3537    9.3378   -0.8549 H       1  UNL1        0.0618
     48 H           5.7265    7.3730   -1.5159 H       1  UNL1        0.0625
     49 H           9.2536    5.4351   -1.8492 H       1  UNL1        0.1491
     50 H          11.1429    4.5272   -3.7697 H       1  UNL1        0.0465
     51 H          11.6710    3.7951   -2.2487 H       1  UNL1        0.0465
     52 H          11.8800    6.4094   -1.1999 H       1  UNL1        0.0329
     53 H          11.4583    6.8427   -2.8688 H       1  UNL1        0.0329
     54 H          13.1573    8.3282   -4.1452 H       1  UNL1        0.0810
     55 H          14.9423    5.8147   -4.4310 H       1  UNL1        0.1653
     56 H          16.5465    7.8597   -5.8886 H       1  UNL1        0.0638
     57 H          18.0824    9.6529   -5.2841 H       1  UNL1        0.0618
     58 H          17.7335   10.6071   -3.0118 H       1  UNL1        0.0618
     59 H          16.1084    9.6202   -1.3940 H       1  UNL1        0.0624
     60 H           4.3634    4.2113   -1.5461 H       1  UNL1        0.0661
     61 H           1.7652    5.4665    1.9661 H       1  UNL1        0.0660
     62 H           2.1718    3.8578    2.3640 H       1  UNL1        0.0660
     63 H           0.7623    4.2624    1.2523 H       1  UNL1        0.0660
     64 H          -0.1292    1.7281    2.1739 H       1  UNL1        0.0660
     65 H           0.9606    0.3945    1.8980 H       1  UNL1        0.0660
     66 H           0.0324    1.2713    0.5054 H       1  UNL1        0.0660
@<TRIPOS>BOND
     1     1     2    1
     2     2     3    1
     3     3     4   ar
     4     4     5   ar
     5     5     6    1
     6     6     7    2
     7     7     8    1
     8     8     9   am
     9     9    10    2
    10     9    11    1
    11    11    12   ar
    12    12    13   ar
    13    13    14   ar
    14    14    15   ar
    15    15    16   ar
    16    11    16   ar
    17     7    17    1
    18    17    18    2
    19    17    19   am
    20    19    20    1
    21    20    21    1
    22    21    22    1
    23    22    23   ar
    24    23    24   ar
    25    24    25   ar
    26    25    26   ar
    27    26    27   ar
    28    27    28   ar
    29    28    29   ar
    30    29    30   ar
    31    22    30   ar
    32    25    30   ar
    33     5    31   ar
    34    31    32   ar
    35    32    33    1
    36    33    34    1
    37    32    35   ar
    38     3    35   ar
    39    35    36    1
    40    36    37    1
    41     1    38    1
    42     1    39    1
    43     1    40    1
    44     4    41    1
    45     6    42    1
    46     8    43    1
    47    12    44    1
    48    13    45    1
    49    14    46    1
    50    15    47    1
    51    16    48    1
    52    19    49    1
    53    20    50    1
    54    20    51    1
    55    21    52    1
    56    21    53    1
    57    23    54    1
    58    24    55    1
    59    26    56    1
    60    27    57    1
    61    28    58    1
    62    29    59    1
    63    31    60    1
    64    34    61    1
    65    34    62    1
    66    34    63    1
    67    37    64    1
    68    37    65    1
    69    37    66    1
