REMARK  6 active torsions:
REMARK  status: ('A' for Active; 'I' for Inactive)
REMARK    1  A    between atoms: C_4  and  S_5 
REMARK    2  A    between atoms: S_5  and  C_6 
REMARK    3  A    between atoms: C_6  and  C_7 
REMARK       I    between atoms: C_7  and  N_9 
REMARK    4  A    between atoms: N_9  and  C_10 
REMARK    5  A    between atoms: C_22  and  N_23 
REMARK       I    between atoms: N_23  and  C_24 
REMARK    6  A    between atoms: C_24  and  C_26 
ROOT
ATOM      1  N   UNL d   1       2.561  -0.758  -0.244  0.00  0.00    -0.382 N 
ATOM      2  C   UNL d   1       1.303  -0.286  -0.040  0.00  0.00     0.156 A 
ATOM      3  N   UNL d   1       1.300   1.083  -0.010  0.00  0.00    -0.205 NA
ATOM      4  C   UNL d   1       0.187   1.706  -0.003  0.00  0.00     0.171 A 
ATOM      5  N   UNL d   1      -1.018   1.075   0.021  0.00  0.00    -0.300 N 
ATOM      6  C   UNL d   1      -1.115  -0.298   0.034  0.00  0.00     0.278 A 
ATOM      7  O   UNL d   1      -2.203  -0.874   0.012  0.00  0.00    -0.265 OA
ATOM      8  C   UNL d   1       0.192  -1.075   0.049  0.00  0.00     0.149 A 
ATOM      9  H   UNL d   1       3.316  -0.142   0.011  0.00  0.00     0.157 HD
ATOM     10  H   UNL d   1       2.726  -1.749  -0.089  0.00  0.00     0.157 HD
ATOM     11  H   UNL d   1      -1.866   1.624   0.008  0.00  0.00     0.171 HD
ENDROOT
BRANCH   4  12
ATOM     12  S   UNL d   1       0.142   3.441  -0.029  0.00  0.00    -0.083 SA
BRANCH  12  13
ATOM     13  C   UNL d   1       1.948   3.970  -0.067  0.00  0.00     0.185 C 
BRANCH  13  14
ATOM     14  C   UNL d   1       2.017   5.524  -0.090  0.00  0.00     0.231 C 
ATOM     15  O   UNL d   1       0.989   6.205  -0.105  0.00  0.00    -0.272 OA
ATOM     16  N   UNL d   1       3.290   6.119  -0.137  0.00  0.00    -0.326 N 
ATOM     17  H   UNL d   1       4.100   5.561  -0.379  0.00  0.00     0.169 HD
BRANCH  16  18
ATOM     18  C   UNL d   1       3.447   7.545  -0.160  0.00  0.00     0.037 A 
ATOM     19  C   UNL d   1       2.649   8.356   0.678  0.00  0.00     0.032 A 
ATOM     20  C   UNL d   1       2.761   9.752   0.684  0.00  0.00     0.042 A 
ATOM     21  C   UNL d   1       3.663  10.325  -0.179  0.00  0.00     0.105 A 
ATOM     22  C   UNL d   1       4.450   9.557  -1.005  0.00  0.00     0.107 A 
ATOM     23  O   UNL d   1       3.880  11.660  -0.323  0.00  0.00    -0.323 OA
ATOM     24  C   UNL d   1       4.391   8.165  -0.999  0.00  0.00     0.069 A 
ATOM     25  O   UNL d   1       5.244  10.333  -1.801  0.00  0.00    -0.323 OA
ATOM     26  C   UNL d   1       4.816  11.662  -1.418  0.00  0.00     0.352 A 
ENDBRANCH  16  18
ENDBRANCH  13  14
ENDBRANCH  12  13
ENDBRANCH   4  12
BRANCH   8  27
ATOM     27  N   UNL d   1       0.131  -2.499   0.090  0.00  0.00    -0.315 N 
ATOM     28  C   UNL d   1       1.196  -3.397   0.222  0.00  0.00     0.263 C 
ATOM     29  O   UNL d   1       2.382  -3.043   0.322  0.00  0.00    -0.267 OA
ATOM     30  H   UNL d   1      -0.812  -2.888   0.112  0.00  0.00     0.169 HD
BRANCH  28  31
ATOM     31  C   UNL d   1       0.966  -4.822   0.239  0.00  0.00     0.072 A 
ATOM     32  C   UNL d   1       0.195  -5.622  -0.575  0.00  0.00     0.025 A 
ATOM     33  C   UNL d   1       0.447  -7.012  -0.346  0.00  0.00     0.009 A 
ATOM     34  C   UNL d   1       1.405  -7.229   0.619  0.00  0.00     0.050 A 
ATOM     35  S   UNL d   1       2.005  -5.769   1.249  0.00  0.00    -0.097 SA
ENDBRANCH  28  31
ENDBRANCH   8  27
TORSDOF 6
