REMARK  7 active torsions:
REMARK  status: ('A' for Active; 'I' for Inactive)
REMARK    1  A    between atoms: C_5  and  N_6 
REMARK       I    between atoms: N_6  and  C_7 
REMARK    2  A    between atoms: C_7  and  C_9 
REMARK    3  A    between atoms: C_9  and  N_10 
REMARK    4  A    between atoms: N_10  and  C_11 
REMARK    5  A    between atoms: C_14  and  C_15 
REMARK       I    between atoms: C_15  and  N_17 
REMARK    6  A    between atoms: N_17  and  C_18 
REMARK    7  A    between atoms: C_18  and  C_19 
ROOT
ATOM      1  C   UNL d   1      -7.430   2.913  -0.106  0.00  0.00     0.028 A 
ATOM      2  C   UNL d   1      -8.324   2.203   0.691  0.00  0.00     0.030 A 
ATOM      3  C   UNL d   1      -9.702   2.457   0.665  0.00  0.00     0.019 A 
ATOM      4  C   UNL d   1     -10.238   3.423  -0.192  0.00  0.00     0.032 A 
ATOM      5  C   UNL d   1      -9.347   4.143  -1.004  0.00  0.00     0.019 A 
ATOM      6  C   UNL d   1      -7.959   3.896  -0.950  0.00  0.00     0.030 A 
ENDROOT
BRANCH   1   7
ATOM      7  N   UNL d   1      -6.090   2.614  -0.114  0.00  0.00    -0.381 N 
ATOM      8  H   UNL d   1      -5.401   3.361  -0.224  0.00  0.00     0.160 HD
BRANCH   7   9
ATOM      9  C   UNL d   1      -5.532   1.251  -0.077  0.00  0.00     0.223 C 
BRANCH   9  10
ATOM     10  C   UNL d   1      -3.997   1.356  -0.056  0.00  0.00     0.239 C 
ATOM     11  N   UNL d   1      -3.274   0.159  -0.034  0.00  0.00    -0.326 N 
ATOM     12  H   UNL d   1      -3.776  -0.721  -0.052  0.00  0.00     0.169 HD
ATOM     13  O   UNL d   1      -3.506   2.489  -0.061  0.00  0.00    -0.271 OA
BRANCH  11  14
ATOM     14  C   UNL d   1      -1.847   0.084  -0.010  0.00  0.00     0.034 A 
ATOM     15  C   UNL d   1      -1.184  -1.153  -0.003  0.00  0.00     0.030 A 
ATOM     16  C   UNL d   1       0.229  -1.208   0.003  0.00  0.00     0.009 A 
ATOM     17  C   UNL d   1       0.994  -0.036   0.002  0.00  0.00    -0.062 A 
ATOM     18  C   UNL d   1       2.492  -0.033  -0.013  0.00  0.00     0.048 C 
ATOM     19  C   UNL d   1       0.335   1.185   0.007  0.00  0.00     0.009 A 
ATOM     20  C   UNL d   1      -1.055   1.234   0.004  0.00  0.00     0.030 A 
ENDBRANCH  11  14
ENDBRANCH   9  10
ENDBRANCH   7   9
ENDBRANCH   1   7
BRANCH   4  21
ATOM     21  C   UNL d   1     -11.716   3.704  -0.278  0.00  0.00     0.251 C 
ATOM     22  O   UNL d   1     -12.144   4.528  -1.089  0.00  0.00    -0.268 OA
ATOM     23  N   UNL d   1     -12.557   3.008   0.563  0.00  0.00    -0.351 N 
ATOM     24  H   UNL d   1     -12.191   2.353   1.234  0.00  0.00     0.163 HD
BRANCH  23  25
ATOM     25  C   UNL d   1     -14.004   3.189   0.563  0.00  0.00     0.187 C 
BRANCH  25  26
ATOM     26  C   UNL d   1     -14.589   2.182   1.492  0.00  0.00     0.070 A 
ATOM     27  C   UNL d   1     -14.446   0.810   1.544  0.00  0.00     0.036 A 
ATOM     28  C   UNL d   1     -15.157   0.367   2.679  0.00  0.00     0.027 A 
ATOM     29  C   UNL d   1     -15.736   1.487   3.228  0.00  0.00     0.142 A 
ATOM     30  O   UNL d   1     -15.394   2.600   2.516  0.00  0.00    -0.325 OA
ENDBRANCH  25  26
ENDBRANCH  23  25
ENDBRANCH   4  21
TORSDOF 7
