REMARK  9 active torsions:
REMARK  status: ('A' for Active; 'I' for Inactive)
REMARK    1  A    between atoms: C_5  and  S_6 
REMARK    2  A    between atoms: S_6  and  N_9 
REMARK    3  A    between atoms: N_9  and  C_10 
REMARK    4  A    between atoms: C_10  and  C_11 
REMARK    5  A    between atoms: C_17  and  C_18 
REMARK    6  A    between atoms: C_18  and  O_20 
REMARK    7  A    between atoms: O_20  and  C_21 
REMARK    8  A    between atoms: C_21  and  C_22 
REMARK       I    between atoms: C_22  and  N_24 
REMARK       I    between atoms: N_24  and  C_25 
REMARK       I    between atoms: C_25  and  N_27 
REMARK    9  A    between atoms: C_28  and  N_27 
ROOT
ATOM      1  C   UNL d   1       9.698  -2.457  -1.354  0.00  0.00     0.294 C 
ATOM      2  O   UNL d   1       9.247  -2.602  -0.237  0.00  0.00    -0.259 OA
ENDROOT
BRANCH   1   3
ATOM      3  C   UNL d   1      10.020  -3.613  -2.289  0.00  0.00     0.046 A 
ATOM      4  C   UNL d   1       9.780  -4.921  -1.798  0.00  0.00     0.042 A 
ATOM      5  C   UNL d   1      10.031  -6.046  -2.597  0.00  0.00     0.075 A 
ATOM      6  C   UNL d   1      10.539  -5.890  -3.890  0.00  0.00     0.025 A 
ATOM      7  C   UNL d   1      10.786  -4.609  -4.385  0.00  0.00     0.009 A 
ATOM      8  C   UNL d   1      10.527  -3.463  -3.604  0.00  0.00    -0.046 A 
ATOM      9  C   UNL d   1      10.802  -2.118  -4.224  0.00  0.00     0.049 C 
BRANCH   5  10
ATOM     10  S   UNL d   1       9.705  -7.707  -2.044  0.00  0.00     0.241 S 
ATOM     11  O   UNL d   1       8.627  -8.221  -2.865  0.00  0.00    -0.206 OA
ATOM     12  O   UNL d   1      10.973  -8.392  -1.954  0.00  0.00    -0.206 OA
BRANCH  10  13
ATOM     13  N   UNL d   1       9.072  -7.586  -0.468  0.00  0.00    -0.209 NA
ATOM     14  H   UNL d   1       8.210  -7.041  -0.458  0.00  0.00     0.140 HD
BRANCH  13  15
ATOM     15  C   UNL d   1       8.810  -8.933   0.094  0.00  0.00     0.169 C 
BRANCH  15  16
ATOM     16  C   UNL d   1       8.247  -8.922   1.478  0.00  0.00     0.066 A 
ATOM     17  C   UNL d   1       7.837  -9.982   2.265  0.00  0.00     0.036 A 
ATOM     18  C   UNL d   1       7.386  -9.437   3.486  0.00  0.00     0.027 A 
ATOM     19  C   UNL d   1       7.545  -8.076   3.374  0.00  0.00     0.142 A 
ATOM     20  O   UNL d   1       8.060  -7.748   2.154  0.00  0.00    -0.326 OA
ENDBRANCH  15  16
ENDBRANCH  13  15
ENDBRANCH  10  13
ENDBRANCH   5  10
ENDBRANCH   1   3
BRANCH   1  21
ATOM     21  O   UNL d   1       9.970  -1.260  -1.923  0.00  0.00    -0.308 OA
BRANCH  21  22
ATOM     22  C   UNL d   1       9.727  -0.025  -1.222  0.00  0.00     0.282 C 
BRANCH  22  23
ATOM     23  C   UNL d   1      10.104   1.172  -2.171  0.00  0.00     0.249 C 
ATOM     24  O   UNL d   1      10.579   0.990  -3.287  0.00  0.00    -0.271 OA
ATOM     25  N   UNL d   1       9.821   2.430  -1.641  0.00  0.00    -0.277 N 
ATOM     26  C   UNL d   1      10.140   3.684  -2.147  0.00  0.00     0.323 C 
ATOM     27  H   UNL d   1       9.696   2.329  -0.669  0.00  0.00     0.173 HD
ATOM     28  O   UNL d   1      10.610   3.868  -3.267  0.00  0.00    -0.247 OA
ATOM     29  N   UNL d   1       9.929   4.817  -1.380  0.00  0.00    -0.338 N 
ATOM     30  H   UNL d   1      10.173   5.643  -1.921  0.00  0.00     0.164 HD
BRANCH  29  31
ATOM     31  C   UNL d   1       9.451   5.108   0.003  0.00  0.00     0.089 C 
ATOM     32  C   UNL d   1      10.163   6.327   0.644  0.00  0.00     0.026 C 
ATOM     33  C   UNL d   1      11.668   6.094   0.803  0.00  0.00     0.002 C 
ATOM     34  C   UNL d   1      11.977   4.769   1.510  0.00  0.00     0.001 C 
ATOM     35  C   UNL d   1      11.205   3.599   0.904  0.00  0.00     0.006 C 
ATOM     36  C   UNL d   1       9.685   3.900   0.890  0.00  0.00     0.004 C 
ATOM     37  C   UNL d   1       9.081   3.906   2.274  0.00  0.00     0.012 C 
ENDBRANCH  29  31
ENDBRANCH  22  23
ENDBRANCH  21  22
ENDBRANCH   1  21
TORSDOF 9
