@<TRIPOS>MOLECULE
*****
 51 55 0 0 0
SMALL
GASTEIGER

@<TRIPOS>ATOM
      1 O           1.4446   -0.0011    0.3531 O.2     1  UNL1       -0.2746
      2 C           2.6635    0.1230    0.1241 C.2     1  UNL1        0.2275
      3 C           3.1979   -0.0597   -1.2901 C.3     1  UNL1        0.0779
      4 S           1.9027   -0.1036   -2.6189 S.3     1  UNL1       -0.0785
      5 C           2.8128   -0.3228   -4.0946 C.ar    1  UNL1        0.1678
      6 N           3.0706   -1.4574   -4.7101 N.ar    1  UNL1       -0.2214
      7 C           3.7537   -1.1024   -5.8593 C.ar    1  UNL1        0.0976
      8 C           4.3211   -2.0370   -6.8235 C.ar    1  UNL1        0.0025
      9 C           5.7067   -2.0267   -7.0476 C.ar    1  UNL1       -0.0525
     10 C           6.2793   -2.8247   -8.0389 C.ar    1  UNL1       -0.0611
     11 C           5.4826   -3.7058   -8.7633 C.ar    1  UNL1       -0.0617
     12 C           4.1026   -3.7256   -8.5545 C.ar    1  UNL1       -0.0611
     13 C           3.5184   -2.8827   -7.5975 C.ar    1  UNL1       -0.0525
     14 C           3.8889    0.2779   -5.9587 C.ar    1  UNL1        0.0747
     15 C           4.4687    1.1025   -7.0221 C.ar    1  UNL1        0.0004
     16 C           5.5620    1.9486   -6.8020 C.ar    1  UNL1       -0.0526
     17 C           6.1008    2.6969   -7.8589 C.ar    1  UNL1       -0.0611
     18 C           5.6120    2.5389   -9.1560 C.ar    1  UNL1       -0.0617
     19 C           4.5436    1.6799   -9.3904 C.ar    1  UNL1       -0.0611
     20 C           3.9710    0.9775   -8.3282 C.ar    1  UNL1       -0.0526
     21 N           3.2309    0.7525   -4.8394 N.ar    1  UNL1       -0.3324
     22 N           3.4631    0.2912    1.2546 N.am    1  UNL1       -0.2847
     23 C           4.7954    0.4028    1.8760 C.ar    1  UNL1        0.0355
     24 C           4.8409   -0.6034    2.7822 C.ar    1  UNL1       -0.0384
     25 C           6.0419   -1.2776    2.7765 C.ar    1  UNL1       -0.0345
     26 C           6.8481   -0.5614    3.5335 C.ar    1  UNL1        0.0669
     27 N           6.8552   -0.6946    4.9003 N.ar    1  UNL1       -0.3061
     28 C           7.7203    0.2021    5.3867 C.ar    1  UNL1        0.3250
     29 O           8.3081    0.0275    6.4954 O.2     1  UNL1       -0.2468
     30 N           7.9008    1.2048    4.3363 N.ar    1  UNL1       -0.3061
     31 C           7.2529    0.6357    3.0228 C.ar    1  UNL1        0.0686
     32 C           6.1456    1.0514    1.9171 C.ar    1  UNL1       -0.0150
     33 H           3.7216   -1.0159   -1.3175 H       1  UNL1        0.0475
     34 H           3.8281    0.7972   -1.4824 H       1  UNL1        0.0475
     35 H           6.3473   -1.3819   -6.4515 H       1  UNL1        0.0624
     36 H           7.3440   -2.7542   -8.2436 H       1  UNL1        0.0618
     37 H           5.9394   -4.3776   -9.4861 H       1  UNL1        0.0618
     38 H           3.4817   -4.3944   -9.1462 H       1  UNL1        0.0618
     39 H           2.4387   -2.8863   -7.4712 H       1  UNL1        0.0624
     40 H           6.0362    2.0054   -5.8257 H       1  UNL1        0.0624
     41 H           6.9119    3.3983   -7.6775 H       1  UNL1        0.0618
     42 H           6.0706    3.0730   -9.9850 H       1  UNL1        0.0618
     43 H           4.1535    1.5504  -10.3967 H       1  UNL1        0.0618
     44 H           3.1454    0.2994   -8.5336 H       1  UNL1        0.0624
     45 H           3.0442    1.7197   -4.6228 H       1  UNL1        0.1679
     46 H           2.7891    0.0149    1.9810 H       1  UNL1        0.1548
     47 H           4.4123   -0.2633    3.7418 H       1  UNL1        0.0637
     48 H           6.5827   -1.3916    1.8036 H       1  UNL1        0.0639
     49 H           6.4242   -1.4744    5.3732 H       1  UNL1        0.1704
     50 H           8.9047    1.4243    4.3882 H       1  UNL1        0.1704
     51 H           6.5294    0.9711    0.8610 H       1  UNL1        0.0657
@<TRIPOS>BOND
     1     1     2    2
     2     2     3    1
     3     3     4    1
     4     4     5    1
     5     5     6   ar
     6     6     7   ar
     7     7     8    1
     8     8     9   ar
     9     9    10   ar
    10    10    11   ar
    11    11    12   ar
    12    12    13   ar
    13     8    13   ar
    14     7    14   ar
    15    14    15    1
    16    15    16   ar
    17    16    17   ar
    18    17    18   ar
    19    18    19   ar
    20    19    20   ar
    21    15    20   ar
    22    14    21   ar
    23     5    21   ar
    24     2    22   am
    25    22    23    1
    26    23    24   ar
    27    24    25   ar
    28    25    26   ar
    29    26    27   ar
    30    27    28   ar
    31    28    29    2
    32    28    30   ar
    33    30    31   ar
    34    26    31   ar
    35    31    32   ar
    36    23    32   ar
    37     3    33    1
    38     3    34    1
    39     9    35    1
    40    10    36    1
    41    11    37    1
    42    12    38    1
    43    13    39    1
    44    16    40    1
    45    17    41    1
    46    18    42    1
    47    19    43    1
    48    20    44    1
    49    21    45    1
    50    22    46    1
    51    24    47    1
    52    25    48    1
    53    27    49    1
    54    30    50    1
    55    32    51    1
