REMARK  8 active torsions:
REMARK  status: ('A' for Active; 'I' for Inactive)
REMARK    1  A    between atoms: N_5  and  C_6 
REMARK    2  A    between atoms: C_6  and  C_7 
REMARK    3  A    between atoms: C_7  and  N_8 
REMARK       I    between atoms: N_8  and  C_9 
REMARK    4  A    between atoms: C_9  and  C_11 
REMARK    5  A    between atoms: C_12  and  C_11 
REMARK    6  A    between atoms: C_14  and  O_15 
REMARK    7  A    between atoms: N_16  and  C_17 
REMARK    8  A    between atoms: C_17  and  C_18 
ROOT
ATOM      1  N   UNL d   1      -4.694  -3.102  -4.258  0.00  0.00    -0.358 N 
ATOM      2  C   UNL d   1      -5.515  -2.901  -5.321  0.00  0.00     0.220 C 
ATOM      3  O   UNL d   1      -6.697  -2.615  -5.157  0.00  0.00    -0.274 OA
ATOM      4  H   UNL d   1      -3.770  -3.390  -4.491  0.00  0.00     0.162 HD
ENDROOT
BRANCH   2   5
ATOM      5  C   UNL d   1      -4.901  -3.071  -6.733  0.00  0.00     0.140 C 
BRANCH   5   6
ATOM      6  C   UNL d   1      -3.443  -3.546  -6.904  0.00  0.00     0.213 C 
ATOM      7  N   UNL d   1      -3.100  -3.887  -8.326  0.00  0.00    -0.235 NA
ATOM      8  C   UNL d   1      -3.196  -5.192  -8.310  0.00  0.00     0.244 C 
ATOM      9  N   UNL d   1      -3.659  -5.813  -7.214  0.00  0.00    -0.276 N 
ATOM     10  C   UNL d   1      -3.133  -4.922  -6.375  0.00  0.00     0.252 C 
ATOM     11  O   UNL d   1      -2.192  -5.223  -5.707  0.00  0.00    -0.270 OA
BRANCH   8  12
ATOM     12  O   UNL d   1      -2.743  -5.935  -9.321  0.00  0.00    -0.331 OA
ATOM     13  H   UNL d   1      -2.351  -5.336  -9.983  0.00  0.00     0.221 HD
ENDBRANCH   8  12
BRANCH   9  14
ATOM     14  C   UNL d   1      -3.690  -7.235  -6.859  0.00  0.00     0.174 C 
BRANCH  14  15
ATOM     15  C   UNL d   1      -4.008  -7.551  -5.386  0.00  0.00    -0.037 A 
ATOM     16  C   UNL d   1      -5.110  -6.952  -4.731  0.00  0.00     0.012 A 
ATOM     17  C   UNL d   1      -5.437  -7.294  -3.411  0.00  0.00     0.040 A 
ATOM     18  C   UNL d   1      -4.648  -8.235  -2.765  0.00  0.00     0.105 A 
ATOM     19  C   UNL d   1      -3.564  -8.802  -3.379  0.00  0.00     0.105 A 
ATOM     20  O   UNL d   1      -4.785  -8.709  -1.494  0.00  0.00    -0.323 OA
ATOM     21  C   UNL d   1      -3.220  -8.480  -4.673  0.00  0.00     0.048 A 
ATOM     22  O   UNL d   1      -2.922  -9.724  -2.611  0.00  0.00    -0.323 OA
ATOM     23  C   UNL d   1      -3.632  -9.602  -1.386  0.00  0.00     0.352 A 
ENDBRANCH  14  15
ENDBRANCH   9  14
ENDBRANCH   5   6
ENDBRANCH   2   5
BRANCH   1  24
ATOM     24  C   UNL d   1      -5.053  -3.064  -2.837  0.00  0.00     0.164 C 
BRANCH  24  25
ATOM     25  C   UNL d   1      -3.881  -3.470  -1.814  0.00  0.00     0.175 C 
ATOM     26  C   UNL d   1      -2.689  -2.486  -1.970  0.00  0.00     0.043 C 
ATOM     27  C   UNL d   1      -1.930  -2.609  -3.281  0.00  0.00     0.003 C 
ATOM     28  C   UNL d   1      -1.495  -4.049  -3.503  0.00  0.00     0.000 C 
ATOM     29  C   UNL d   1      -2.620  -5.061  -3.388  0.00  0.00     0.003 C 
ATOM     30  C   UNL d   1      -3.428  -4.873  -2.190  0.00  0.00     0.043 C 
BRANCH  25  31
ATOM     31  N   UNL d   1      -4.381  -3.447  -0.385  0.00  0.00     0.103 N 
ATOM     32  C   UNL d   1      -3.342  -3.725   0.650  0.00  0.00     0.301 C 
ATOM     33  C   UNL d   1      -2.800  -5.139   0.687  0.00  0.00     0.264 C 
ATOM     34  N   UNL d   1      -3.975  -6.103   0.702  0.00  0.00    -0.072 N 
ATOM     35  C   UNL d   1      -3.445  -7.409   0.392  0.00  0.00     0.269 C 
ATOM     36  C   UNL d   1      -5.240  -5.817  -0.120  0.00  0.00     0.264 C 
ATOM     37  H   UNL d   1      -4.319  -6.117   1.660  0.00  0.00     0.279 HD
ATOM     38  C   UNL d   1      -5.554  -4.324  -0.119  0.00  0.00     0.301 C 
ENDBRANCH  25  31
ENDBRANCH  24  25
ENDBRANCH   1  24
TORSDOF 8
