REMARK  5 active torsions:
REMARK  status: ('A' for Active; 'I' for Inactive)
REMARK    1  A    between atoms: O_2  and  C_3 
REMARK       I    between atoms: C_3  and  N_5 
REMARK    2  A    between atoms: N_5  and  C_6 
REMARK    3  A    between atoms: C_9  and  C_10 
REMARK    4  A    between atoms: C_10  and  N_11 
REMARK       I    between atoms: N_11  and  C_12 
REMARK       I    between atoms: C_12  and  N_14 
REMARK    5  A    between atoms: N_14  and  C_15 
ROOT
ATOM      1  C   UNL d   1       7.535  -5.951  -1.244  0.00  0.00     0.162 C 
ENDROOT
BRANCH   1   2
ATOM      2  C   UNL d   1       6.781  -4.647  -1.009  0.00  0.00    -0.040 A 
ATOM      3  C   UNL d   1       7.193  -3.737  -0.009  0.00  0.00     0.011 A 
ATOM      4  C   UNL d   1       6.424  -2.590   0.308  0.00  0.00     0.030 A 
ATOM      5  C   UNL d   1       5.245  -2.318  -0.391  0.00  0.00     0.036 A 
ATOM      6  C   UNL d   1       4.870  -3.187  -1.410  0.00  0.00     0.030 A 
ATOM      7  C   UNL d   1       5.628  -4.316  -1.722  0.00  0.00     0.011 A 
BRANCH   5   8
ATOM      8  N   UNL d   1       4.457  -1.173  -0.129  0.00  0.00    -0.303 N 
ATOM      9  C   UNL d   1       3.079  -1.175  -0.205  0.00  0.00     0.364 C 
ATOM     10  O   UNL d   1       2.375  -2.169  -0.397  0.00  0.00    -0.238 OA
ATOM     11  H   UNL d   1       4.905  -0.327   0.198  0.00  0.00     0.171 HD
BRANCH   9  12
ATOM     12  O   UNL d   1       2.552   0.064   0.009  0.00  0.00    -0.309 OA
ATOM     13  C   UNL d   1       1.113   0.074   0.000  0.00  0.00     0.215 C 
ENDBRANCH   9  12
ENDBRANCH   5   8
ENDBRANCH   1   2
BRANCH   1  14
ATOM     14  N   UNL d   1       6.976  -6.839  -2.271  0.00  0.00    -0.339 N 
ATOM     15  C   UNL d   1       7.518  -8.080  -2.525  0.00  0.00     0.321 C 
ATOM     16  O   UNL d   1       8.514  -8.477  -1.931  0.00  0.00    -0.247 OA
ATOM     17  N   UNL d   1       6.852  -8.773  -3.531  0.00  0.00    -0.306 N 
ATOM     18  H   UNL d   1       6.253  -8.256  -4.158  0.00  0.00     0.171 HD
ATOM     19  H   UNL d   1       6.115  -6.603  -2.727  0.00  0.00     0.164 HD
BRANCH  17  20
ATOM     20  C   UNL d   1       7.342  -9.988  -4.002  0.00  0.00     0.072 A 
ATOM     21  C   UNL d   1       7.490 -10.448  -5.332  0.00  0.00     0.169 A 
ATOM     22  N   UNL d   1       8.025 -11.673  -5.398  0.00  0.00    -0.185 NA
ATOM     23  N   UNL d   1       8.203 -12.006  -4.107  0.00  0.00    -0.287 N 
ATOM     24  C   UNL d   1       7.790 -11.039  -3.238  0.00  0.00     0.140 A 
ATOM     25  H   UNL d   1       8.603 -12.913  -3.889  0.00  0.00     0.188 HD
ENDBRANCH  17  20
ENDBRANCH   1  14
TORSDOF 5
