REMARK  13 active torsions:
REMARK  status: ('A' for Active; 'I' for Inactive)
REMARK    1  A    between atoms: C_4  and  O_5 
REMARK    2  A    between atoms: O_5  and  C_6 
REMARK    3  A    between atoms: C_6  and  C_8 
REMARK    4  A    between atoms: C_8  and  C_9 
REMARK    5  A    between atoms: C_9  and  C_10 
REMARK    6  A    between atoms: C_10  and  C_11 
REMARK    7  A    between atoms: C_11  and  C_12 
REMARK    8  A    between atoms: C_12  and  N_13 
REMARK       I    between atoms: N_13  and  C_14 
REMARK    9  A    between atoms: C_14  and  O_16 
REMARK   10  A    between atoms: O_16  and  C_17 
REMARK   11  A    between atoms: C_17  and  C_18 
REMARK   12  A    between atoms: C_27  and  C_28 
REMARK   13  A    between atoms: C_28  and  C_29 
ROOT
ATOM      1  C   UNL d   1       0.828   0.052  -0.020  0.00  0.00     0.048 C 
ATOM      2  C   UNL d   1       2.319   0.054  -0.020  0.00  0.00    -0.057 A 
ATOM      3  C   UNL d   1       2.936  -1.184  -0.028  0.00  0.00     0.045 A 
ATOM      4  C   UNL d   1       4.307  -1.295  -0.011  0.00  0.00     0.093 A 
ATOM      5  C   UNL d   1       5.112  -0.131   0.045  0.00  0.00     0.038 A 
ATOM      6  C   UNL d   1       6.568  -0.125   0.124  0.00  0.00    -0.034 A 
ATOM      7  C   UNL d   1       7.178  -1.463   0.198  0.00  0.00     0.050 C 
ATOM      8  C   UNL d   1       7.322   0.999   0.028  0.00  0.00     0.029 A 
ATOM      9  C   UNL d   1       6.626   2.323  -0.011  0.00  0.00     0.295 A 
ATOM     10  O   UNL d   1       7.246   3.382  -0.033  0.00  0.00    -0.259 OA
ATOM     11  O   UNL d   1       5.230   2.306  -0.004  0.00  0.00    -0.274 OA
ATOM     12  C   UNL d   1       4.481   1.110   0.011  0.00  0.00     0.093 A 
ATOM     13  C   UNL d   1       3.090   1.217  -0.016  0.00  0.00     0.045 A 
ENDROOT
BRANCH   4  14
ATOM     14  O   UNL d   1       4.872  -2.610  -0.075  0.00  0.00    -0.278 OA
BRANCH  14  15
ATOM     15  C   UNL d   1       4.217  -3.836  -0.012  0.00  0.00     0.264 C 
ATOM     16  O   UNL d   1       3.002  -3.979   0.021  0.00  0.00    -0.265 OA
BRANCH  15  17
ATOM     17  C   UNL d   1       5.170  -5.015   0.012  0.00  0.00     0.111 C 
BRANCH  17  18
ATOM     18  C   UNL d   1       4.260  -6.252   0.020  0.00  0.00     0.010 C 
BRANCH  18  19
ATOM     19  C   UNL d   1       4.983  -7.584   0.034  0.00  0.00     0.002 C 
BRANCH  19  20
ATOM     20  C   UNL d   1       3.965  -8.738   0.036  0.00  0.00     0.020 C 
BRANCH  20  21
ATOM     21  C   UNL d   1       4.676 -10.089   0.049  0.00  0.00     0.125 C 
BRANCH  21  22
ATOM     22  N   UNL d   1       3.782 -11.233   0.052  0.00  0.00    -0.337 N 
ATOM     23  C   UNL d   1       4.282 -12.519   0.071  0.00  0.00     0.360 C 
ATOM     24  O   UNL d   1       5.465 -12.792   0.073  0.00  0.00    -0.239 OA
ATOM     25  H   UNL d   1       2.779 -11.113   0.050  0.00  0.00     0.164 HD
BRANCH  23  26
ATOM     26  O   UNL d   1       3.273 -13.438   0.090  0.00  0.00    -0.299 OA
BRANCH  26  27
ATOM     27  C   UNL d   1       3.712 -14.822   0.107  0.00  0.00     0.219 C 
BRANCH  27  28
ATOM     28  C   UNL d   1       2.544 -15.801   0.095  0.00  0.00    -0.034 A 
ATOM     29  C   UNL d   1       2.759 -17.191   0.193  0.00  0.00     0.009 A 
ATOM     30  C   UNL d   1       1.704 -18.095  -0.000  0.00  0.00     0.001 A 
ATOM     31  C   UNL d   1       0.406 -17.624  -0.180  0.00  0.00     0.000 A 
ATOM     32  C   UNL d   1       0.163 -16.255  -0.152  0.00  0.00     0.001 A 
ATOM     33  C   UNL d   1       1.227 -15.354  -0.070  0.00  0.00     0.009 A 
ENDBRANCH  27  28
ENDBRANCH  26  27
ENDBRANCH  23  26
ENDBRANCH  21  22
ENDBRANCH  20  21
ENDBRANCH  19  20
ENDBRANCH  18  19
ENDBRANCH  17  18
ENDBRANCH  15  17
ENDBRANCH  14  15
ENDBRANCH   4  14
BRANCH   8  34
ATOM     34  C   UNL d   1       8.873   1.093  -0.068  0.00  0.00     0.084 C 
BRANCH  34  35
ATOM     35  C   UNL d   1       9.666  -0.224  -0.199  0.00  0.00    -0.054 C 
ATOM     36  C   UNL d   1       9.467  -1.065  -1.314  0.00  0.00     0.007 C 
ATOM     37  C   UNL d   1       9.612  -2.462  -1.164  0.00  0.00     0.001 C 
ATOM     38  C   UNL d   1      10.198  -2.991  -0.018  0.00  0.00     0.000 C 
ATOM     39  C   UNL d   1      10.667  -2.123   0.966  0.00  0.00     0.001 C 
ATOM     40  C   UNL d   1      10.348  -0.756   0.911  0.00  0.00     0.007 C 
ENDBRANCH  34  35
ENDBRANCH   8  34
TORSDOF 13
