@<TRIPOS>MOLECULE
*****
 52 54 0 0 0
SMALL
GASTEIGER

@<TRIPOS>ATOM
      1 C           1.0308   -0.1188    0.0858 C.3     1  UNL1        0.0790
      2 O           2.4518   -0.0983    0.1061 O.3     1  UNL1       -0.4914
      3 C           3.0447    1.1347    0.1778 C.ar    1  UNL1        0.1616
      4 C           4.4413    1.0720    0.2331 C.ar    1  UNL1       -0.0110
      5 C           5.2084    2.2471    0.1728 C.ar    1  UNL1       -0.0190
      6 C           6.7106    2.1862    0.0100 C.3     1  UNL1        0.0792
      7 N           7.2714    2.8319    1.1921 N.am    1  UNL1       -0.3153
      8 C           8.4966    3.4000    1.2117 C.2     1  UNL1        0.1350
      9 S           9.2304    3.8511    2.6305 S.2     1  UNL1       -0.0185
     10 N           9.0515    3.6600    0.0013 N.am    1  UNL1       -0.3001
     11 C           8.3835    3.5365   -1.2066 C.2     1  UNL1        0.0167
     12 C           9.0257    4.3136   -2.3251 C.3     1  UNL1       -0.0260
     13 C           7.2298    2.8172   -1.2738 C.2     1  UNL1        0.0571
     14 C           6.5005    2.6637   -2.6159 C.2     1  UNL1        0.2628
     15 O           6.9304    3.2527   -3.6164 O.2     1  UNL1       -0.2687
     16 N           5.3629    1.8677   -2.6912 N.am    1  UNL1       -0.2031
     17 N           4.6611    1.7673   -3.8671 N.2     1  UNL1       -0.1873
     18 C           3.5650    1.0703   -3.8672 C.2     1  UNL1        0.0563
     19 C           2.7944    0.8540   -5.1241 C.ar    1  UNL1        0.0362
     20 C           1.3952    0.9563   -5.1112 C.ar    1  UNL1       -0.0496
     21 C           0.6729    0.7934   -6.3005 C.ar    1  UNL1       -0.0609
     22 C           1.3392    0.5009   -7.4892 C.ar    1  UNL1       -0.0583
     23 C           2.7283    0.3653   -7.4952 C.ar    1  UNL1       -0.0193
     24 C           3.4655    0.5389   -6.3176 C.ar    1  UNL1        0.1287
     25 O           4.8184    0.3674   -6.2278 O.3     1  UNL1       -0.4945
     26 C           5.5418    0.1478   -7.4236 C.3     1  UNL1        0.0788
     27 C           4.5630    3.4913    0.1373 C.ar    1  UNL1       -0.0528
     28 C           3.1775    3.5627    0.1288 C.ar    1  UNL1       -0.0162
     29 C           2.4216    2.3911    0.1439 C.ar    1  UNL1        0.1585
     30 O           1.0605    2.5104    0.1038 O.3     1  UNL1       -0.5033
     31 H           0.7020   -1.1605    0.0723 H       1  UNL1        0.0660
     32 H           0.6449    0.3524   -0.8252 H       1  UNL1        0.0660
     33 H           0.6249    0.3367    0.9948 H       1  UNL1        0.0660
     34 H           4.9293    0.0963    0.2159 H       1  UNL1        0.0659
     35 H           7.0610    1.1459    0.0481 H       1  UNL1        0.0601
     36 H           6.8212    2.6981    2.0892 H       1  UNL1        0.1486
     37 H           9.9465    4.1402    0.0290 H       1  UNL1        0.1535
     38 H           9.9306    4.8347   -1.9894 H       1  UNL1        0.0290
     39 H           8.3431    5.0967   -2.6743 H       1  UNL1        0.0290
     40 H           9.3199    3.6643   -3.1523 H       1  UNL1        0.0290
     41 H           4.9961    1.3429   -1.9183 H       1  UNL1        0.1776
     42 H           3.1458    0.6064   -2.9545 H       1  UNL1        0.0852
     43 H           0.8585    1.1912   -4.1961 H       1  UNL1        0.0625
     44 H          -0.4096    0.9032   -6.3102 H       1  UNL1        0.0618
     45 H           0.7824    0.3731   -8.4157 H       1  UNL1        0.0619
     46 H           3.2097    0.1181   -8.4357 H       1  UNL1        0.0654
     47 H           6.6040    0.1178   -7.1663 H       1  UNL1        0.0660
     48 H           5.3907    0.9621   -8.1395 H       1  UNL1        0.0660
     49 H           5.2718   -0.8201   -7.8558 H       1  UNL1        0.0660
     50 H           5.1486    4.4076    0.0651 H       1  UNL1        0.0622
     51 H           2.7086    4.5399    0.0734 H       1  UNL1        0.0655
     52 H           0.8110    3.4459    0.1683 H       1  UNL1        0.2923
@<TRIPOS>BOND
     1     1     2    1
     2     2     3    1
     3     3     4   ar
     4     4     5   ar
     5     5     6    1
     6     6     7    1
     7     7     8    1
     8     8     9    2
     9     8    10    1
    10    10    11    1
    11    11    12    1
    12    11    13    2
    13     6    13    1
    14    13    14    1
    15    14    15    2
    16    14    16   am
    17    16    17    1
    18    17    18    2
    19    18    19    1
    20    19    20   ar
    21    20    21   ar
    22    21    22   ar
    23    22    23   ar
    24    23    24   ar
    25    19    24   ar
    26    24    25    1
    27    25    26    1
    28     5    27   ar
    29    27    28   ar
    30    28    29   ar
    31     3    29   ar
    32    29    30    1
    33     1    31    1
    34     1    32    1
    35     1    33    1
    36     4    34    1
    37     6    35    1
    38     7    36    1
    39    10    37    1
    40    12    38    1
    41    12    39    1
    42    12    40    1
    43    16    41    1
    44    18    42    1
    45    20    43    1
    46    21    44    1
    47    22    45    1
    48    23    46    1
    49    26    47    1
    50    26    48    1
    51    26    49    1
    52    27    50    1
    53    28    51    1
    54    30    52    1
