REMARK  8 active torsions:
REMARK  status: ('A' for Active; 'I' for Inactive)
REMARK    1  A    between atoms: N_2  and  C_4 
REMARK    2  A    between atoms: C_5  and  N_6 
REMARK    3  A    between atoms: N_6  and  C_7 
REMARK    4  A    between atoms: C_7  and  C_8 
REMARK    5  A    between atoms: C_8  and  C_9 
REMARK    6  A    between atoms: C_9  and  O_10 
REMARK    7  A    between atoms: C_12  and  N_13 
REMARK    8  A    between atoms: N_16  and  C_17 
ROOT
ATOM      1  C   UNL d   1       2.911  -0.327   1.194  0.00  0.00     0.162 A 
ATOM      2  C   UNL d   1       2.505  -1.368   2.060  0.00  0.00     0.066 A 
ATOM      3  C   UNL d   1       3.268  -1.599   3.252  0.00  0.00     0.063 A 
ATOM      4  C   UNL d   1       4.394  -0.858   3.712  0.00  0.00     0.066 A 
ATOM      5  C   UNL d   1       4.742   0.196   2.820  0.00  0.00     0.146 A 
ATOM      6  N   UNL d   1       5.738   1.088   2.916  0.00  0.00    -0.101 NA
ATOM      7  O   UNL d   1       5.661   1.872   1.780  0.00  0.00    -0.106 OA
ATOM      8  N   UNL d   1       4.600   1.510   0.976  0.00  0.00    -0.100 NA
ATOM      9  C   UNL d   1       4.016   0.459   1.569  0.00  0.00     0.155 A 
ENDROOT
BRANCH   4  10
ATOM     10  N   UNL d   1       4.987  -1.178   4.922  0.00  0.00    -0.376 N 
ATOM     11  C   UNL d   1       5.168  -0.195   5.994  0.00  0.00     0.143 C 
ATOM     12  C   UNL d   1       4.593  -0.795   7.320  0.00  0.00     0.144 C 
ATOM     13  N   UNL d   1       5.166  -2.132   7.617  0.00  0.00    -0.364 N 
ATOM     14  C   UNL d   1       5.106  -3.087   6.475  0.00  0.00     0.144 C 
ATOM     15  C   UNL d   1       5.637  -2.474   5.153  0.00  0.00     0.143 C 
BRANCH  13  16
ATOM     16  C   UNL d   1       5.900  -2.400   8.743  0.00  0.00     0.102 A 
ATOM     17  C   UNL d   1       7.219  -2.874   8.731  0.00  0.00     0.048 A 
ATOM     18  C   UNL d   1       7.829  -3.313   9.911  0.00  0.00     0.005 A 
ATOM     19  C   UNL d   1       7.149  -3.207  11.115  0.00  0.00     0.017 A 
ATOM     20  C   UNL d   1       5.885  -2.639  11.109  0.00  0.00     0.089 A 
ATOM     21  N   UNL d   1       5.303  -2.294   9.946  0.00  0.00    -0.352 N 
ATOM     22  H   UNL d   1       4.335  -1.987   9.948  0.00  0.00     0.166 HD
ENDBRANCH  13  16
ENDBRANCH   4  10
BRANCH   2  23
ATOM     23  N   UNL d   1       1.456  -2.227   1.721  0.00  0.00    -0.388 N 
ATOM     24  H   UNL d   1       0.816  -1.917   0.982  0.00  0.00     0.159 HD
BRANCH  23  25
ATOM     25  C   UNL d   1       0.962  -3.258   2.616  0.00  0.00     0.122 C 
BRANCH  25  26
ATOM     26  C   UNL d   1      -0.263  -3.946   2.033  0.00  0.00     0.045 C 
BRANCH  26  27
ATOM     27  C   UNL d   1      -0.709  -5.071   2.955  0.00  0.00     0.165 C 
BRANCH  27  28
ATOM     28  O   UNL d   1      -1.836  -5.736   2.415  0.00  0.00    -0.401 OA
ATOM     29  H   UNL d   1      -2.553  -5.085   2.312  0.00  0.00     0.209 HD
ENDBRANCH  27  28
ENDBRANCH  26  27
ENDBRANCH  25  26
ENDBRANCH  23  25
ENDBRANCH   2  23
BRANCH   1  30
ATOM     30  N   UNL d   1       2.222  -0.033  -0.039  0.00  0.00    -0.111 N 
ATOM     31  O   UNL d   1       0.986  -0.033  -0.009  0.00  0.00    -0.532 OA
ATOM     32  O   UNL d   1       2.908   0.142  -1.059  0.00  0.00    -0.532 OA
ENDBRANCH   1  30
TORSDOF 8
