@<TRIPOS>MOLECULE
*****
 50 52 0 0 0
SMALL
GASTEIGER

@<TRIPOS>ATOM
      1 O           1.1460    0.1853    0.2490 O.2     1  UNL1       -0.2698
      2 C           2.3538   -0.0276    0.0822 C.2     1  UNL1        0.2496
      3 N           2.9173   -1.0618   -0.6904 N.am    1  UNL1       -0.2636
      4 C           2.1887   -2.1202   -1.2864 C.2     1  UNL1        0.1411
      5 S           0.5235   -2.3385   -1.0277 S.2     1  UNL1       -0.0182
      6 N           2.9670   -3.0098   -2.0814 N.am    1  UNL1       -0.2937
      7 C           2.3469   -4.0274   -2.9017 C.ar    1  UNL1        0.0750
      8 C           2.6481   -5.3923   -2.7680 C.ar    1  UNL1       -0.0305
      9 C           1.8524   -6.3610   -3.4276 C.ar    1  UNL1        0.0176
     10 C           0.7687   -5.9599   -4.2293 C.ar    1  UNL1        0.2767
     11 N          -0.0709   -6.9578   -4.9140 N.pl3   1  UNL1        0.0797
     12 O           0.2106   -8.1538   -4.7610 O.2     1  UNL1        0.0414
     13 O          -1.0061   -6.5409   -5.6150 O.co2   1  UNL1       -0.5760
     14 C           0.5052   -4.6039   -4.4229 C.ar    1  UNL1        0.0588
     15 C           1.3312   -3.6658   -3.8068 C.ar    1  UNL1        0.1444
     16 O           1.1857   -2.3415   -4.1336 O.3     1  UNL1       -0.5047
     17 C           3.2046    0.9729    0.7568 C.ar    1  UNL1        0.0383
     18 C           2.8407    1.3991    2.0498 C.ar    1  UNL1       -0.0461
     19 C           3.4909    2.4765    2.6600 C.ar    1  UNL1       -0.0181
     20 C           4.5000    3.1568    1.9738 C.ar    1  UNL1        0.1344
     21 O           5.1915    4.2291    2.4684 O.3     1  UNL1       -0.4905
     22 C           4.9084    4.6197    3.8072 C.3     1  UNL1        0.0936
     23 C           5.8400    5.7678    4.1777 C.3     1  UNL1        0.0066
     24 C           5.6467    6.2361    5.5957 C.ar    1  UNL1       -0.0442
     25 C           5.5721    7.6021    5.8884 C.ar    1  UNL1       -0.0585
     26 C           5.5895    8.0325    7.2152 C.ar    1  UNL1       -0.0615
     27 C           5.5916    7.1033    8.2553 C.ar    1  UNL1       -0.0617
     28 C           5.6071    5.7418    7.9735 C.ar    1  UNL1       -0.0615
     29 C           5.6506    5.3124    6.6520 C.ar    1  UNL1       -0.0585
     30 C           4.8317    2.7454    0.6710 C.ar    1  UNL1        0.0602
     31 BR          6.1505    3.6688   -0.3418 Br      1  UNL1       -0.0465
     32 C           4.1889    1.6627    0.0588 C.ar    1  UNL1       -0.0321
     33 H           3.9265   -1.0880   -0.7550 H       1  UNL1        0.1568
     34 H           3.9523   -3.1348   -1.8868 H       1  UNL1        0.1539
     35 H           3.4401   -5.7427   -2.1105 H       1  UNL1        0.0639
     36 H           2.0675   -7.4216   -3.2904 H       1  UNL1        0.0686
     37 H          -0.3151   -4.2716   -5.0525 H       1  UNL1        0.0723
     38 H           0.2355   -2.1536   -4.2166 H       1  UNL1        0.2922
     39 H           2.0084    0.9239    2.5725 H       1  UNL1        0.0626
     40 H           3.1630    2.7730    3.6537 H       1  UNL1        0.0655
     41 H           5.0803    3.7654    4.4713 H       1  UNL1        0.0700
     42 H           3.8682    4.9549    3.8955 H       1  UNL1        0.0700
     43 H           5.7029    6.5909    3.4643 H       1  UNL1        0.0346
     44 H           6.8861    5.4539    4.0612 H       1  UNL1        0.0346
     45 H           5.5257    8.3400    5.0899 H       1  UNL1        0.0620
     46 H           5.6252    9.0951    7.4390 H       1  UNL1        0.0618
     47 H           5.5888    7.4401    9.2874 H       1  UNL1        0.0618
     48 H           5.6209    5.0105    8.7765 H       1  UNL1        0.0618
     49 H           5.7115    4.2444    6.4614 H       1  UNL1        0.0620
     50 H           4.4010    1.4193   -0.9758 H       1  UNL1        0.0637
@<TRIPOS>UNITY_ATOM_ATTR
11 1
charge 1
13 1
charge -1
@<TRIPOS>BOND
     1     1     2    2
     2     2     3   am
     3     3     4    1
     4     4     5    2
     5     4     6    1
     6     6     7    1
     7     7     8   ar
     8     8     9   ar
     9     9    10   ar
    10    10    11    1
    11    11    12    2
    12    11    13    1
    13    10    14   ar
    14    14    15   ar
    15     7    15   ar
    16    15    16    1
    17     2    17    1
    18    17    18   ar
    19    18    19   ar
    20    19    20   ar
    21    20    21    1
    22    21    22    1
    23    22    23    1
    24    23    24    1
    25    24    25   ar
    26    25    26   ar
    27    26    27   ar
    28    27    28   ar
    29    28    29   ar
    30    24    29   ar
    31    20    30   ar
    32    30    31    1
    33    30    32   ar
    34    17    32   ar
    35     3    33    1
    36     6    34    1
    37     8    35    1
    38     9    36    1
    39    14    37    1
    40    16    38    1
    41    18    39    1
    42    19    40    1
    43    22    41    1
    44    22    42    1
    45    23    43    1
    46    23    44    1
    47    25    45    1
    48    26    46    1
    49    27    47    1
    50    28    48    1
    51    29    49    1
    52    32    50    1
