@<TRIPOS>MOLECULE
*****
 32 32 0 0 0
SMALL
GASTEIGER

@<TRIPOS>ATOM
      1 C           0.9978   -0.2970   -0.1491 C.3     1  UNL1       -0.0636
      2 C           2.5099   -0.0512   -0.0962 C.3     1  UNL1       -0.0373
      3 C           2.9967    1.3618   -0.5331 C.3     1  UNL1        0.0241
      4 C           2.4445    2.4834    0.3830 C.3     1  UNL1       -0.0373
      5 C           0.9398    2.7000    0.3813 C.3     1  UNL1       -0.0636
      6 N           4.4938    1.4415   -0.5676 N.am    1  UNL1       -0.2963
      7 C           5.1457    2.5772   -1.0384 C.2     1  UNL1        0.3052
      8 O           4.5288    3.5410   -1.4666 O.2     1  UNL1       -0.2525
      9 N           6.5272    2.5334   -0.9623 N.am    1  UNL1       -0.2515
     10 C           7.2792    3.6371   -1.3754 C.ar    1  UNL1        0.1691
     11 C           7.0076    5.0019   -1.1058 C.ar    1  UNL1        0.0222
     12 C           8.0180    5.7047   -1.7124 C.ar    1  UNL1        0.1361
     13 C           8.3540    7.1425   -1.8007 C.3     1  UNL1       -0.0036
     14 O           8.8560    4.8194   -2.3199 O.2     1  UNL1       -0.3581
     15 N           8.4291    3.5183   -2.0549 N.ar    1  UNL1       -0.0627
     16 H           0.7578   -1.3553   -0.0122 H       1  UNL1        0.0230
     17 H           0.5619    0.0435   -1.0939 H       1  UNL1        0.0230
     18 H           0.4727    0.1764    0.6773 H       1  UNL1        0.0230
     19 H           2.9769   -0.8071   -0.7391 H       1  UNL1        0.0280
     20 H           2.8558   -0.2547    0.9243 H       1  UNL1        0.0280
     21 H           2.6671    1.5373   -1.5662 H       1  UNL1        0.0498
     22 H           2.8672    3.4454    0.0833 H       1  UNL1        0.0280
     23 H           2.7940    2.3111    1.4069 H       1  UNL1        0.0280
     24 H           0.5318    2.6914   -0.6341 H       1  UNL1        0.0230
     25 H           0.6923    3.6536    0.8541 H       1  UNL1        0.0230
     26 H           0.4176    1.9719    0.9946 H       1  UNL1        0.0230
     27 H           5.0320    0.6291   -0.3039 H       1  UNL1        0.1505
     28 H           7.0109    1.6522   -1.0111 H       1  UNL1        0.1579
     29 H           6.2012    5.4080   -0.5161 H       1  UNL1        0.0687
     30 H           7.6499    7.7426   -1.2127 H       1  UNL1        0.0309
     31 H           8.3118    7.4999   -2.8343 H       1  UNL1        0.0309
     32 H           9.3578    7.3388   -1.4094 H       1  UNL1        0.0309
@<TRIPOS>BOND
     1     1     2    1
     2     2     3    1
     3     3     4    1
     4     4     5    1
     5     3     6    1
     6     6     7   am
     7     7     8    2
     8     7     9   am
     9     9    10    1
    10    10    11   ar
    11    11    12   ar
    12    12    13    1
    13    12    14   ar
    14    14    15   ar
    15    10    15   ar
    16     1    16    1
    17     1    17    1
    18     1    18    1
    19     2    19    1
    20     2    20    1
    21     3    21    1
    22     4    22    1
    23     4    23    1
    24     5    24    1
    25     5    25    1
    26     5    26    1
    27     6    27    1
    28     9    28    1
    29    11    29    1
    30    13    30    1
    31    13    31    1
    32    13    32    1
