@<TRIPOS>MOLECULE
*****
 53 55 0 0 0
SMALL
GASTEIGER

@<TRIPOS>ATOM
      1 C           3.2187    1.4189   -0.2126 C.3     1  UNL1       -0.0191
      2 C           2.6219    0.0223   -0.0208 C.3     1  UNL1        0.1730
      3 O           1.1788    0.0309   -0.0557 O.3     1  UNL1       -0.4784
      4 C           0.5007    0.4505   -1.1700 C.ar    1  UNL1        0.1398
      5 C           1.1263    0.8416   -2.3557 C.ar    1  UNL1       -0.0184
      6 C           0.4097    1.3977   -3.4132 C.ar    1  UNL1       -0.0582
      7 C          -0.9749    1.4394   -3.3624 C.ar    1  UNL1       -0.0602
      8 C          -1.6344    0.9764   -2.2247 C.ar    1  UNL1       -0.0398
      9 C          -0.9025    0.5133   -1.1205 C.ar    1  UNL1        0.0826
     10 CL         -1.7934    0.0114    0.2738 Cl      1  UNL1       -0.0798
     11 C           3.0656   -0.4506    1.3900 C.2     1  UNL1        0.2577
     12 O           2.2318   -0.7687    2.2400 O.2     1  UNL1       -0.2714
     13 N           4.4533   -0.4228    1.6359 N.am    1  UNL1       -0.2825
     14 C           5.0250   -0.8645    2.8491 C.ar    1  UNL1        0.0336
     15 C           6.2025   -0.3504    3.4145 C.ar    1  UNL1       -0.0387
     16 C           6.7655   -0.9154    4.6144 C.ar    1  UNL1       -0.0388
     17 C           6.1474   -2.0021    5.2573 C.ar    1  UNL1        0.0327
     18 N           6.5927   -2.5759    6.5307 N.am    1  UNL1       -0.2966
     19 C           5.9229   -3.5943    7.2881 C.2     1  UNL1        0.1411
     20 S           4.4655   -4.3509    6.8761 S.2     1  UNL1       -0.0182
     21 N           6.5573   -3.9829    8.4925 N.am    1  UNL1       -0.2636
     22 C           6.0809   -5.0378    9.3004 C.2     1  UNL1        0.2497
     23 O           5.1043   -5.7687    9.0771 O.2     1  UNL1       -0.2698
     24 C           6.6839   -5.4074   10.5788 C.ar    1  UNL1        0.0435
     25 C           6.6051   -6.7744   10.9394 C.ar    1  UNL1       -0.0492
     26 C           6.8132   -7.1839   12.2505 C.ar    1  UNL1       -0.0546
     27 C           7.1660   -6.2354   13.2038 C.ar    1  UNL1        0.0156
     28 C           7.2392   -4.8771   12.8407 C.ar    1  UNL1        0.2739
     29 N           7.5188   -3.8723   13.8682 N.pl3   1  UNL1        0.0796
     30 O           7.7420   -4.2659   15.0180 O.2     1  UNL1        0.0414
     31 O           7.5236   -2.6829   13.5125 O.co2   1  UNL1       -0.5760
     32 C           6.9890   -4.4480   11.5295 C.ar    1  UNL1        0.0277
     33 C           5.0415   -2.4979    4.5786 C.ar    1  UNL1       -0.0388
     34 C           4.4531   -1.9417    3.4615 C.ar    1  UNL1       -0.0387
     35 H           4.3097    1.3931   -0.1960 H       1  UNL1        0.0270
     36 H           2.8530    2.0874    0.5709 H       1  UNL1        0.0270
     37 H           2.9607    1.9074   -1.1488 H       1  UNL1        0.0270
     38 H           2.9867   -0.7178   -0.7455 H       1  UNL1        0.0829
     39 H           2.1929    0.7402   -2.5022 H       1  UNL1        0.0654
     40 H           0.9470    1.7757   -4.2788 H       1  UNL1        0.0619
     41 H          -1.5345    1.8091   -4.2167 H       1  UNL1        0.0618
     42 H          -2.7214    0.9806   -2.2038 H       1  UNL1        0.0633
     43 H           5.0944   -0.0754    0.9381 H       1  UNL1        0.1549
     44 H           6.6601    0.5365    2.9800 H       1  UNL1        0.0637
     45 H           7.6869   -0.4774    4.9937 H       1  UNL1        0.0637
     46 H           7.4048   -2.1161    6.9302 H       1  UNL1        0.1538
     47 H           7.3815   -3.4861    8.8010 H       1  UNL1        0.1568
     48 H           6.2891   -7.5155   10.1996 H       1  UNL1        0.0625
     49 H           6.6544   -8.2246   12.5277 H       1  UNL1        0.0620
     50 H           7.3515   -6.5643   14.2239 H       1  UNL1        0.0685
     51 H           6.9382   -3.3935   11.2781 H       1  UNL1        0.0693
     52 H           4.5259   -3.3986    4.8199 H       1  UNL1        0.0637
     53 H           3.5685   -2.4432    3.0798 H       1  UNL1        0.0637
@<TRIPOS>UNITY_ATOM_ATTR
29 1
charge 1
31 1
charge -1
@<TRIPOS>BOND
     1     3     4    1
     2     4     5   ar
     3     5     6   ar
     4     6     7   ar
     5     7     8   ar
     6     8     9   ar
     7     4     9   ar
     8     9    10    1
     9     2    11    1
    10    11    12    2
    11    11    13   am
    12    13    14    1
    13    14    15   ar
    14    15    16   ar
    15    16    17   ar
    16    17    18    1
    17    18    19    1
    18    19    20    2
    19    19    21    1
    20    21    22   am
    21    22    23    2
    22    22    24    1
    23    24    25   ar
    24    25    26   ar
    25    26    27   ar
    26    27    28   ar
    27    28    29    1
    28    29    30    2
    29    29    31    1
    30    28    32   ar
    31    24    32   ar
    32    17    33   ar
    33    33    34   ar
    34    14    34   ar
    35     2     3    1
    36     2     1    1
    37     1    35    1
    38     1    36    1
    39     1    37    1
    40     2    38    1
    41     5    39    1
    42     6    40    1
    43     7    41    1
    44     8    42    1
    45    13    43    1
    46    15    44    1
    47    16    45    1
    48    18    46    1
    49    21    47    1
    50    25    48    1
    51    26    49    1
    52    27    50    1
    53    32    51    1
    54    33    52    1
    55    34    53    1
