REMARK  8 active torsions:
REMARK  status: ('A' for Active; 'I' for Inactive)
REMARK    1  A    between atoms: C_2  and  C_3 
REMARK       I    between atoms: C_2  and  N_14 
REMARK    2  A    between atoms: C_3  and  C_4 
REMARK    3  A    between atoms: C_4  and  C_5 
REMARK    4  A    between atoms: N_14  and  N_15 
REMARK       I    between atoms: N_15  and  C_16 
REMARK       I    between atoms: C_16  and  N_18 
REMARK    5  A    between atoms: N_18  and  C_19 
REMARK    6  A    between atoms: C_19  and  C_20 
REMARK    7  A    between atoms: C_20  and  C_21 
REMARK    8  A    between atoms: C_21  and  N_22 
ROOT
ATOM      1  O   UNL d   1       1.021  -0.041  -0.130  0.00  0.00    -0.272 OA
ATOM      2  C   UNL d   1       2.249  -0.013  -0.049  0.00  0.00     0.236 C 
ATOM      3  N   UNL d   1       3.017  -0.360  -1.142  0.00  0.00    -0.266 N 
ATOM      4  H   UNL d   1       2.514  -0.630  -1.990  0.00  0.00     0.190 HD
ENDROOT
BRANCH   3   5
ATOM      5  N   UNL d   1       4.429  -0.383  -1.211  0.00  0.00    -0.249 N 
ATOM      6  C   UNL d   1       5.032  -0.760  -2.403  0.00  0.00     0.334 C 
ATOM      7  O   UNL d   1       4.401  -1.079  -3.409  0.00  0.00    -0.246 OA
ATOM      8  N   UNL d   1       6.416  -0.744  -2.369  0.00  0.00    -0.342 N 
ATOM      9  H   UNL d   1       6.877  -0.488  -1.509  0.00  0.00     0.164 HD
ATOM     10  H   UNL d   1       4.957  -0.122  -0.391  0.00  0.00     0.192 HD
BRANCH   8  11
ATOM     11  C   UNL d   1       7.204  -1.123  -3.543  0.00  0.00     0.126 C 
BRANCH  11  12
ATOM     12  C   UNL d   1       8.720  -1.051  -3.318  0.00  0.00     0.040 C 
BRANCH  12  13
ATOM     13  C   UNL d   1       9.513  -1.445  -4.568  0.00  0.00     0.130 C 
BRANCH  13  14
ATOM     14  N   UNL d   1      10.969  -1.383  -4.325  0.00  0.00    -0.352 N 
ATOM     15  C   UNL d   1      11.827  -2.474  -4.197  0.00  0.00     0.108 A 
ATOM     16  C   UNL d   1      13.081  -1.972  -3.985  0.00  0.00     0.106 A 
ATOM     17  N   UNL d   1      12.955  -0.604  -4.001  0.00  0.00    -0.361 N 
ATOM     18  C   UNL d   1      11.685  -0.250  -4.220  0.00  0.00     0.182 A 
ATOM     19  H   UNL d   1      13.719   0.057  -3.872  0.00  0.00     0.166 HD
ENDBRANCH  13  14
ENDBRANCH  12  13
ENDBRANCH  11  12
ENDBRANCH   8  11
ENDBRANCH   3   5
BRANCH   2  20
ATOM     20  C   UNL d   1       2.959   0.392   1.230  0.00  0.00     0.109 C 
BRANCH  20  21
ATOM     21  C   UNL d   1       1.974   0.747   2.355  0.00  0.00     0.048 C 
BRANCH  21  22
ATOM     22  C   UNL d   1       2.690   1.157   3.623  0.00  0.00    -0.055 A 
ATOM     23  C   UNL d   1       3.318   0.182   4.433  0.00  0.00     0.010 A 
ATOM     24  C   UNL d   1       3.998   0.543   5.601  0.00  0.00     0.040 A 
ATOM     25  C   UNL d   1       4.022   1.877   5.942  0.00  0.00     0.105 A 
ATOM     26  C   UNL d   1       3.405   2.832   5.170  0.00  0.00     0.105 A 
ATOM     27  O   UNL d   1       4.629   2.409   7.037  0.00  0.00    -0.323 OA
ATOM     28  C   UNL d   1       2.738   2.508   4.006  0.00  0.00     0.047 A 
ATOM     29  O   UNL d   1       3.538   4.083   5.689  0.00  0.00    -0.323 OA
ATOM     30  C   UNL d   1       4.231   3.791   6.921  0.00  0.00     0.352 A 
ENDBRANCH  21  22
ENDBRANCH  20  21
ENDBRANCH   2  20
TORSDOF 8
