@<TRIPOS>MOLECULE
*****
 34 35 0 0 0
SMALL
GASTEIGER

@<TRIPOS>ATOM
      1 C           2.5020   -0.2330   -0.0099 C.3     1  UNL1       -0.0392
      2 C           1.0163   -0.0432    0.0017 C.ar    1  UNL1       -0.0433
      3 C           0.2502   -1.2265    0.0049 C.ar    1  UNL1       -0.0583
      4 C          -1.1356   -1.1871    0.0000 C.ar    1  UNL1       -0.0615
      5 C          -1.7759    0.0442   -0.0063 C.ar    1  UNL1       -0.0612
      6 C          -1.0246    1.2357   -0.0008 C.ar    1  UNL1       -0.0543
      7 C           0.3918    1.2291    0.0015 C.ar    1  UNL1       -0.0220
      8 C           1.1178    2.5509   -0.0007 C.2     1  UNL1       -0.0494
      9 C           2.4529    2.7577   -0.0040 C.2     1  UNL1        0.0022
     10 C           3.1821    4.0559   -0.0058 C.2     1  UNL1        0.2530
     11 O           2.6054    5.1397   -0.0043 O.2     1  UNL1       -0.2693
     12 N           4.5687    3.9154   -0.0050 N.am    1  UNL1       -0.2305
     13 N           5.3675    5.0831    0.0250 N.am    1  UNL1       -0.2276
     14 C           6.7587    5.0211   -0.0389 C.2     1  UNL1        0.2954
     15 O           7.3507    3.9384   -0.1168 O.2     1  UNL1       -0.2653
     16 C           7.4238    6.3170    0.0235 C.ar    1  UNL1        0.1905
     17 C           7.1605    7.4388    0.7935 C.ar    1  UNL1       -0.0112
     18 C           8.1278    8.4184    0.4614 C.ar    1  UNL1       -0.0231
     19 C           8.9314    7.8482   -0.4962 C.ar    1  UNL1        0.0928
     20 O           8.5300    6.5714   -0.7554 O.2     1  UNL1       -0.4583
     21 H           2.8115   -1.2789   -0.0105 H       1  UNL1        0.0278
     22 H           2.9252    0.2090    0.8983 H       1  UNL1        0.0278
     23 H           2.9073    0.2063   -0.9280 H       1  UNL1        0.0278
     24 H           0.7497   -2.1938    0.0070 H       1  UNL1        0.0620
     25 H          -1.7017   -2.1152   -0.0012 H       1  UNL1        0.0618
     26 H          -2.8640    0.0737   -0.0169 H       1  UNL1        0.0618
     27 H          -1.5819    2.1719   -0.0010 H       1  UNL1        0.0624
     28 H           0.4661    3.4258   -0.0010 H       1  UNL1        0.0625
     29 H           3.1583    1.9543   -0.0055 H       1  UNL1        0.0670
     30 H           5.0694    3.0257   -0.0023 H       1  UNL1        0.1731
     31 H           4.8579    5.9627   -0.0168 H       1  UNL1        0.1732
     32 H           6.3802    7.5206    1.5353 H       1  UNL1        0.0657
     33 H           8.2326    9.4129    0.8753 H       1  UNL1        0.0649
     34 H           9.7916    8.2052   -1.0501 H       1  UNL1        0.1029
@<TRIPOS>BOND
     1     1     2    1
     2     2     3   ar
     3     3     4   ar
     4     4     5   ar
     5     5     6   ar
     6     6     7   ar
     7     2     7   ar
     8     7     8    1
     9     8     9    2
    10     9    10    1
    11    10    11    2
    12    10    12   am
    13    12    13    1
    14    13    14   am
    15    14    15    2
    16    14    16    1
    17    16    17   ar
    18    17    18   ar
    19    18    19   ar
    20    19    20   ar
    21    16    20   ar
    22     1    21    1
    23     1    22    1
    24     1    23    1
    25     3    24    1
    26     4    25    1
    27     5    26    1
    28     6    27    1
    29     8    28    1
    30     9    29    1
    31    12    30    1
    32    13    31    1
    33    17    32    1
    34    18    33    1
    35    19    34    1
