REMARK  4 active torsions:
REMARK  status: ('A' for Active; 'I' for Inactive)
REMARK    1  A    between atoms: C_2  and  C_3 
REMARK    2  A    between atoms: C_3  and  C_4 
REMARK    3  A    between atoms: C_4  and  C_10 
REMARK    4  A    between atoms: N_5  and  N_6 
REMARK       I    between atoms: N_6  and  C_7 
REMARK       I    between atoms: C_7  and  N_8 
ROOT
ATOM      1  C   UNL d   1       4.580  -0.685   1.230  0.00  0.00     0.060 C 
ATOM      2  N   UNL d   1       5.335  -0.192   0.265  0.00  0.00    -0.175 NA
ENDROOT
BRANCH   1   3
ATOM      3  C   UNL d   1       3.034  -0.721   1.337  0.00  0.00     0.061 C 
BRANCH   3   4
ATOM      4  C   UNL d   1       2.292  -0.123   0.166  0.00  0.00     0.002 C 
ATOM      5  C   UNL d   1       0.795  -0.122   0.161  0.00  0.00     0.005 C 
ENDBRANCH   3   4
ENDBRANCH   1   3
BRANCH   1   6
ATOM      6  C   UNL d   1       5.303  -1.291   2.430  0.00  0.00    -0.035 C 
ATOM      7  C   UNL d   1       6.375  -0.631   2.905  0.00  0.00    -0.018 C 
ATOM      8  C   UNL d   1       7.261  -1.167   3.993  0.00  0.00     0.028 C 
ATOM      9  C   UNL d   1       7.040  -2.656   4.261  0.00  0.00     0.004 C 
ATOM     10  C   UNL d   1       5.553  -2.974   4.338  0.00  0.00     0.005 C 
ATOM     11  C   UNL d   1       4.838  -2.599   3.028  0.00  0.00     0.040 C 
ENDBRANCH   1   6
BRANCH   2  12
ATOM     12  N   UNL d   1       4.804   0.385  -0.851  0.00  0.00    -0.229 N 
ATOM     13  C   UNL d   1       5.437   0.921  -1.915  0.00  0.00     0.334 C 
ATOM     14  N   UNL d   1       6.769   0.915  -1.894  0.00  0.00    -0.351 N 
ATOM     15  O   UNL d   1       4.785   1.390  -2.851  0.00  0.00    -0.246 OA
ATOM     16  H   UNL d   1       7.218   0.499  -1.093  0.00  0.00     0.160 HD
ATOM     17  H   UNL d   1       7.265   1.300  -2.680  0.00  0.00     0.160 HD
ATOM     18  H   UNL d   1       3.831   0.473  -1.032  0.00  0.00     0.194 HD
ENDBRANCH   2  12
TORSDOF 4
