REMARK  10 active torsions:
REMARK  status: ('A' for Active; 'I' for Inactive)
REMARK    1  A    between atoms: O_2  and  C_3 
REMARK    2  A    between atoms: C_6  and  O_7 
REMARK    3  A    between atoms: C_9  and  C_10 
REMARK    4  A    between atoms: C_10  and  C_11 
REMARK    5  A    between atoms: C_10  and  N_30 
REMARK    6  A    between atoms: C_11  and  N_12 
REMARK       I    between atoms: N_12  and  C_13 
REMARK    7  A    between atoms: C_13  and  C_15 
REMARK    8  A    between atoms: C_18  and  S_19 
REMARK    9  A    between atoms: S_19  and  C_20 
REMARK   10  A    between atoms: C_20  and  C_21 
ROOT
ATOM      1  C   UNL d   1       2.850  -5.608   1.543  0.00  0.00     0.161 C 
ENDROOT
BRANCH   1   2
ATOM      2  C   UNL d   1       3.076  -4.774   0.136  0.00  0.00     0.241 C 
BRANCH   2   3
ATOM      3  C   UNL d   1       3.680  -3.431   0.401  0.00  0.00     0.010 C 
ATOM      4  C   UNL d   1       4.953  -3.325   0.918  0.00  0.00     0.076 C 
ATOM      5  C   UNL d   1       5.307  -2.030   1.364  0.00  0.00     0.040 C 
ATOM      6  C   UNL d   1       4.471  -0.883   1.201  0.00  0.00     0.039 C 
ATOM      7  C   UNL d   1       3.279  -0.974   0.529  0.00  0.00     0.069 C 
ATOM      8  C   UNL d   1       2.924  -2.241   0.165  0.00  0.00     0.049 C 
BRANCH   4   9
ATOM      9  O   UNL d   1       5.825  -4.364   1.160  0.00  0.00    -0.355 OA
ATOM     10  C   UNL d   1       5.794  -5.748   0.711  0.00  0.00     0.210 C 
ENDBRANCH   4   9
BRANCH   7  11
ATOM     11  O   UNL d   1       2.582   0.143   0.174  0.00  0.00    -0.356 OA
ATOM     12  C   UNL d   1       1.155   0.069   0.075  0.00  0.00     0.210 C 
ENDBRANCH   7  11
ENDBRANCH   2   3
BRANCH   2  13
ATOM     13  N   UNL d   1       1.790  -4.686  -0.737  0.00  0.00    -0.061 N 
ATOM     14  C   UNL d   1       0.611  -4.198   0.106  0.00  0.00     0.236 C 
ATOM     15  C   UNL d   1      -0.593  -3.899  -0.742  0.00  0.00     0.028 C 
ATOM     16  C   UNL d   1      -0.258  -3.019  -1.929  0.00  0.00     0.003 C 
ATOM     17  C   UNL d   1       0.726  -3.720  -2.845  0.00  0.00     0.028 C 
ATOM     18  C   UNL d   1       2.044  -3.980  -2.132  0.00  0.00     0.236 C 
ATOM     19  H   UNL d   1       1.573  -5.654  -1.002  0.00  0.00     0.280 HD
ENDBRANCH   2  13
ENDBRANCH   1   2
BRANCH   1  20
ATOM     20  N   UNL d   1       3.886  -5.529   2.645  0.00  0.00    -0.354 N 
ATOM     21  C   UNL d   1       4.266  -6.576   3.470  0.00  0.00     0.256 C 
ATOM     22  O   UNL d   1       3.539  -7.578   3.594  0.00  0.00    -0.268 OA
ATOM     23  H   UNL d   1       4.573  -4.776   2.592  0.00  0.00     0.162 HD
BRANCH  21  24
ATOM     24  C   UNL d   1       5.625  -6.578   4.112  0.00  0.00     0.090 A 
ATOM     25  C   UNL d   1       6.223  -7.775   4.487  0.00  0.00     0.139 A 
ATOM     26  N   UNL d   1       7.440  -7.896   5.093  0.00  0.00    -0.234 NA
ATOM     27  C   UNL d   1       8.099  -6.757   5.315  0.00  0.00     0.189 A 
ATOM     28  N   UNL d   1       7.649  -5.558   4.940  0.00  0.00    -0.210 NA
ATOM     29  C   UNL d   1       6.429  -5.495   4.382  0.00  0.00     0.146 A 
ATOM     30 CL   UNL d   1       5.994  -3.855   4.149  0.00  0.00    -0.061 Cl
BRANCH  27  31
ATOM     31  S   UNL d   1       9.628  -6.671   6.150  0.00  0.00    -0.086 SA
BRANCH  31  32
ATOM     32  C   UNL d   1      10.003  -8.363   6.734  0.00  0.00     0.121 C 
BRANCH  32  33
ATOM     33  C   UNL d   1      11.278  -8.392   7.580  0.00  0.00    -0.049 A 
ATOM     34  C   UNL d   1      11.836  -9.613   7.990  0.00  0.00     0.008 A 
ATOM     35  C   UNL d   1      12.919  -9.634   8.882  0.00  0.00     0.001 A 
ATOM     36  C   UNL d   1      13.514  -8.447   9.308  0.00  0.00     0.000 A 
ATOM     37  C   UNL d   1      13.002  -7.232   8.885  0.00  0.00     0.001 A 
ATOM     38  C   UNL d   1      11.894  -7.212   8.047  0.00  0.00     0.008 A 
ENDBRANCH  32  33
ENDBRANCH  31  32
ENDBRANCH  27  31
ENDBRANCH  21  24
ENDBRANCH   1  20
TORSDOF 10
