REMARK  7 active torsions:
REMARK  status: ('A' for Active; 'I' for Inactive)
REMARK    1  A    between atoms: C_2  and  O_3 
REMARK    2  A    between atoms: O_3  and  C_4 
REMARK    3  A    between atoms: C_7  and  N_8 
REMARK       I    between atoms: N_8  and  C_9 
REMARK    4  A    between atoms: C_9  and  C_11 
REMARK    5  A    between atoms: C_11  and  S_12 
REMARK    6  A    between atoms: S_12  and  C_13 
REMARK    7  A    between atoms: N_23  and  C_24 
ROOT
ATOM      1  C   UNL d   1      13.501  -1.013  -2.328  0.00  0.00     0.281 A 
ATOM      2  N   UNL d   1      13.966  -1.944  -3.398  0.00  0.00    -0.232 NA
ATOM      3  C   UNL d   1      14.586  -1.387  -4.371  0.00  0.00     0.185 A 
ATOM      4  N   UNL d   1      15.097  -2.054  -5.462  0.00  0.00    -0.129 NA
ATOM      5  N   UNL d   1      15.609  -1.193  -6.240  0.00  0.00    -0.152 NA
ATOM      6  C   UNL d   1      15.469   0.048  -5.688  0.00  0.00     0.071 A 
ATOM      7  C   UNL d   1      15.957   1.288  -6.333  0.00  0.00     0.073 C 
ATOM      8  C   UNL d   1      14.850   0.013  -4.514  0.00  0.00     0.085 A 
ATOM      9  C   UNL d   1      14.451   0.957  -3.504  0.00  0.00     0.141 A 
ATOM     10  N   UNL d   1      14.709   2.225  -3.621  0.00  0.00    -0.283 NA
ATOM     11  N   UNL d   1      13.797   0.433  -2.403  0.00  0.00    -0.298 N 
ATOM     12  H   UNL d   1      15.199   2.490  -4.464  0.00  0.00     0.188 HD
ENDROOT
BRANCH   1  13
ATOM     13  S   UNL d   1      11.740  -1.356  -1.943  0.00  0.00    -0.111 SA
BRANCH  13  14
ATOM     14  C   UNL d   1      10.876   0.272  -2.155  0.00  0.00     0.181 C 
BRANCH  14  15
ATOM     15  C   UNL d   1       9.392   0.070  -1.972  0.00  0.00     0.231 C 
ATOM     16  N   UNL d   1       8.577   1.206  -2.075  0.00  0.00    -0.327 N 
ATOM     17  H   UNL d   1       8.995   2.119  -2.228  0.00  0.00     0.169 HD
ATOM     18  O   UNL d   1       8.988  -1.056  -1.691  0.00  0.00    -0.272 OA
BRANCH  16  19
ATOM     19  C   UNL d   1       7.171   1.164  -1.826  0.00  0.00     0.034 A 
ATOM     20  C   UNL d   1       6.378   2.315  -1.848  0.00  0.00     0.032 A 
ATOM     21  C   UNL d   1       5.010   2.234  -1.495  0.00  0.00     0.039 A 
ATOM     22  C   UNL d   1       4.415   1.010  -1.169  0.00  0.00     0.068 A 
ATOM     23  C   UNL d   1       5.190  -0.129  -1.197  0.00  0.00     0.039 A 
ATOM     24  C   UNL d   1       6.533  -0.041  -1.525  0.00  0.00     0.032 A 
BRANCH  22  25
ATOM     25  O   UNL d   1       3.068   0.988  -0.936  0.00  0.00    -0.352 OA
BRANCH  25  26
ATOM     26  C   UNL d   1       2.629   0.018   0.024  0.00  0.00     0.171 C 
ATOM     27  C   UNL d   1       1.112  -0.006   0.021  0.00  0.00     0.034 C 
ENDBRANCH  25  26
ENDBRANCH  22  25
ENDBRANCH  16  19
ENDBRANCH  14  15
ENDBRANCH  13  14
ENDBRANCH   1  13
BRANCH  11  28
ATOM     28  C   UNL d   1      13.548   1.310  -1.324  0.00  0.00     0.045 A 
ATOM     29  C   UNL d   1      12.865   2.523  -1.626  0.00  0.00     0.030 A 
ATOM     30  C   UNL d   1      12.684   3.534  -0.702  0.00  0.00     0.002 A 
ATOM     31  C   UNL d   1      13.168   3.345   0.579  0.00  0.00     0.001 A 
ATOM     32  C   UNL d   1      13.806   2.148   0.922  0.00  0.00     0.009 A 
ATOM     33  C   UNL d   1      13.986   1.110  -0.009  0.00  0.00    -0.035 A 
ATOM     34  C   UNL d   1      14.664  -0.146   0.450  0.00  0.00     0.050 C 
ENDBRANCH  11  28
TORSDOF 7
