REMARK  5 active torsions:
REMARK  status: ('A' for Active; 'I' for Inactive)
REMARK       I    between atoms: C_2  and  N_3 
REMARK    1  A    between atoms: C_2  and  C_14 
REMARK    2  A    between atoms: N_3  and  N_4 
REMARK    3  A    between atoms: C_5  and  C_6 
REMARK    4  A    between atoms: C_9  and  O_10 
REMARK    5  A    between atoms: C_11  and  O_12 
ROOT
ATOM      1  N   UNL d   1       2.221  -2.109   1.402  0.00  0.00    -0.183 NA
ATOM      2  C   UNL d   1       2.885  -2.945   2.141  0.00  0.00     0.150 C 
ENDROOT
BRANCH   1   3
ATOM      3  N   UNL d   1       2.938  -1.147   0.712  0.00  0.00    -0.243 N 
ATOM      4  C   UNL d   1       2.255  -0.136   0.025  0.00  0.00     0.271 C 
ATOM      5  O   UNL d   1       1.030   0.000  -0.004  0.00  0.00    -0.266 OA
ATOM      6  H   UNL d   1       3.948  -1.129   0.795  0.00  0.00     0.192 HD
BRANCH   4   7
ATOM      7  C   UNL d   1       3.092   0.860  -0.720  0.00  0.00     0.033 A 
ATOM      8  C   UNL d   1       2.716   2.216  -0.768  0.00  0.00     0.019 A 
ATOM      9  C   UNL d   1       3.493   3.150  -1.475  0.00  0.00     0.025 A 
ATOM     10  C   UNL d   1       4.632   2.726  -2.156  0.00  0.00     0.034 A 
ATOM     11 CL   UNL d   1       5.596   3.860  -3.021  0.00  0.00    -0.084 Cl
ATOM     12  C   UNL d   1       4.994   1.379  -2.144  0.00  0.00     0.025 A 
ATOM     13  C   UNL d   1       4.222   0.447  -1.435  0.00  0.00     0.019 A 
ENDBRANCH   4   7
ENDBRANCH   1   3
BRANCH   2  14
ATOM     14  C   UNL d   1       2.194  -3.960   2.987  0.00  0.00    -0.014 A 
ATOM     15  C   UNL d   1       1.091  -4.690   2.520  0.00  0.00     0.016 A 
ATOM     16  C   UNL d   1       0.411  -5.579   3.375  0.00  0.00     0.040 A 
ATOM     17  C   UNL d   1       0.838  -5.727   4.692  0.00  0.00     0.098 A 
ATOM     18  C   UNL d   1       1.953  -5.021   5.141  0.00  0.00     0.099 A 
ATOM     19  C   UNL d   1       2.641  -4.149   4.300  0.00  0.00     0.052 A 
BRANCH  17  20
ATOM     20  O   UNL d   1       0.199  -6.545   5.583  0.00  0.00    -0.358 OA
ATOM     21  H   UNL d   1      -0.573  -6.948   5.146  0.00  0.00     0.217 HD
ENDBRANCH  17  20
BRANCH  18  22
ATOM     22  O   UNL d   1       2.386  -5.157   6.432  0.00  0.00    -0.358 OA
ATOM     23  H   UNL d   1       1.764  -5.782   6.853  0.00  0.00     0.217 HD
ENDBRANCH  18  22
ENDBRANCH   2  14
TORSDOF 5
