@<TRIPOS>MOLECULE
*****
 63 65 0 0 0
SMALL
GASTEIGER

@<TRIPOS>ATOM
      1 C          -1.6764  -16.1229    4.5568 C.3     1  UNL1       -0.0653
      2 C          -2.4233  -14.8549    4.9332 C.3     1  UNL1       -0.0556
      3 C          -1.4381  -13.7739    5.3427 C.3     1  UNL1       -0.0493
      4 C          -2.1542  -12.4630    5.7199 C.3     1  UNL1       -0.0268
      5 C          -1.1324  -11.3966    6.0464 C.ar    1  UNL1       -0.0299
      6 C          -0.9132  -10.9233    7.2754 C.ar    1  UNL1        0.0268
      7 C           0.2175  -10.0262    7.5831 C.ar    1  UNL1        0.3375
      8 O           0.4091   -9.6616    8.7381 O.2     1  UNL1       -0.2452
      9 O           1.0657   -9.6618    6.5279 O.2     1  UNL1       -0.4220
     10 C           0.8053  -10.0839    5.2060 C.ar    1  UNL1        0.1429
     11 C           1.6474   -9.6954    4.1450 C.ar    1  UNL1        0.0253
     12 C           1.3789  -10.1624    2.8214 C.ar    1  UNL1        0.1534
     13 O           2.3486   -9.8174    1.8263 O.3     1  UNL1       -0.4229
     14 C           2.1010   -9.8845    0.4540 C.2     1  UNL1        0.3331
     15 O           1.0178  -10.1598   -0.0560 O.2     1  UNL1       -0.2483
     16 C           3.2531   -9.4648   -0.4527 C.3     1  UNL1        0.1244
     17 C           3.5820   -7.9860   -0.1728 C.3     1  UNL1       -0.0150
     18 C           4.3363   -7.8690    1.1628 C.3     1  UNL1       -0.0044
     19 S           5.2717   -6.3259    1.3024 S.3     1  UNL1       -0.1641
     20 C           6.0348   -6.6104    2.9261 C.3     1  UNL1       -0.0181
     21 N           2.7976   -9.7101   -1.8539 N.am    1  UNL1       -0.2679
     22 C           2.4683  -10.9995   -2.2520 C.2     1  UNL1        0.4012
     23 O           2.7141  -11.9986   -1.5887 O.2     1  UNL1       -0.2265
     24 O           1.8285  -11.0126   -3.4530 O.3     1  UNL1       -0.4456
     25 C           1.4496  -12.3328   -3.9225 C.3     1  UNL1        0.1191
     26 C           0.8648  -12.3000   -5.3277 C.ar    1  UNL1       -0.0103
     27 C           0.6251  -11.0880   -5.9863 C.ar    1  UNL1       -0.0554
     28 C          -0.0340  -11.0557   -7.2168 C.ar    1  UNL1       -0.0614
     29 C          -0.3960  -12.2411   -7.8499 C.ar    1  UNL1       -0.0617
     30 C          -0.1299  -13.4617   -7.2337 C.ar    1  UNL1       -0.0614
     31 C           0.4870  -13.4927   -5.9756 C.ar    1  UNL1       -0.0554
     32 C           0.2514  -10.9675    2.6039 C.ar    1  UNL1        0.0840
     33 CL         -0.3413  -11.8271    1.2242 Cl      1  UNL1       -0.0797
     34 C          -0.5659  -11.2656    3.6712 C.ar    1  UNL1       -0.0289
     35 C          -0.2898  -10.8928    4.9714 C.ar    1  UNL1        0.0224
     36 H          -2.3817  -16.9136    4.2904 H       1  UNL1        0.0230
     37 H          -1.0618  -16.4715    5.3930 H       1  UNL1        0.0230
     38 H          -1.0153  -15.9488    3.7003 H       1  UNL1        0.0230
     39 H          -3.1100  -15.0552    5.7608 H       1  UNL1        0.0263
     40 H          -3.0188  -14.5162    4.0767 H       1  UNL1        0.0263
     41 H          -0.7338  -13.6436    4.5114 H       1  UNL1        0.0268
     42 H          -0.8247  -14.1089    6.1870 H       1  UNL1        0.0268
     43 H          -2.8217  -12.6413    6.5677 H       1  UNL1        0.0313
     44 H          -2.8143  -12.1281    4.9066 H       1  UNL1        0.0313
     45 H          -1.5242  -11.2338    8.1150 H       1  UNL1        0.0692
     46 H           2.5020   -9.0577    4.3674 H       1  UNL1        0.0692
     47 H           4.1250  -10.1089   -0.3072 H       1  UNL1        0.0616
     48 H           4.1761   -7.5796   -0.9990 H       1  UNL1        0.0296
     49 H           2.6593   -7.3864   -0.1243 H       1  UNL1        0.0296
     50 H           5.0240   -8.7136    1.2764 H       1  UNL1        0.0377
     51 H           3.6348   -7.8801    2.0015 H       1  UNL1        0.0377
     52 H           6.6541   -5.7433    3.1665 H       1  UNL1        0.0340
     53 H           6.6749   -7.4977    2.9096 H       1  UNL1        0.0340
     54 H           5.2786   -6.7220    3.7095 H       1  UNL1        0.0340
     55 H           2.3811   -8.9661   -2.3994 H       1  UNL1        0.1528
     56 H           0.6808  -12.7437   -3.2541 H       1  UNL1        0.0749
     57 H           2.3289  -12.9881   -3.9236 H       1  UNL1        0.0749
     58 H           0.9372  -10.1500   -5.5358 H       1  UNL1        0.0621
     59 H          -0.2759  -10.0987   -7.6706 H       1  UNL1        0.0618
     60 H          -0.8852  -12.2098   -8.8201 H       1  UNL1        0.0618
     61 H          -0.4231  -14.3867   -7.7260 H       1  UNL1        0.0618
     62 H           0.6578  -14.4594   -5.5048 H       1  UNL1        0.0621
     63 H          -1.4253  -11.8866    3.4478 H       1  UNL1        0.0640
@<TRIPOS>BOND
     1     1     2    1
     2     2     3    1
     3     3     4    1
     4     4     5    1
     5     5     6   ar
     6     6     7   ar
     7     7     8    2
     8     7     9   ar
     9     9    10   ar
    10    10    11   ar
    11    11    12   ar
    12    12    13    1
    13    13    14    1
    14    14    15    2
    15    17    18    1
    16    18    19    1
    17    19    20    1
    18    16    21    1
    19    21    22   am
    20    22    23    2
    21    22    24    1
    22    24    25    1
    23    25    26    1
    24    26    27   ar
    25    27    28   ar
    26    28    29   ar
    27    29    30   ar
    28    30    31   ar
    29    26    31   ar
    30    12    32   ar
    31    32    33    1
    32    32    34   ar
    33    34    35   ar
    34     5    35   ar
    35    10    35   ar
    36    16    17    1
    37    16    14    1
    38     1    36    1
    39     1    37    1
    40     1    38    1
    41     2    39    1
    42     2    40    1
    43     3    41    1
    44     3    42    1
    45     4    43    1
    46     4    44    1
    47     6    45    1
    48    11    46    1
    49    16    47    1
    50    17    48    1
    51    17    49    1
    52    18    50    1
    53    18    51    1
    54    20    52    1
    55    20    53    1
    56    20    54    1
    57    21    55    1
    58    25    56    1
    59    25    57    1
    60    27    58    1
    61    28    59    1
    62    29    60    1
    63    30    61    1
    64    31    62    1
    65    34    63    1
