@<TRIPOS>MOLECULE
*****
 27 27 0 0 0
SMALL
GASTEIGER

@<TRIPOS>ATOM
      1 C           1.0838   -0.3139   -0.0595 C.3     1  UNL1       -0.0598
      2 C           2.5567   -0.0193    0.0917 C.3     1  UNL1       -0.0112
      3 C           2.9751    1.2918    0.7977 C.2     1  UNL1        0.0662
      4 N           2.2192    2.2356    1.3152 N.2     1  UNL1       -0.1831
      5 N           0.8583    2.1631    1.2552 N.am    1  UNL1       -0.1907
      6 C          -0.0563    3.0515    1.7071 C.2     1  UNL1        0.3165
      7 N           0.4055    4.1566    2.2967 N.am    1  UNL1       -0.3120
      8 O          -1.2615    2.8284    1.5723 O.2     1  UNL1       -0.2513
      9 C           4.4755    1.4975    0.8866 C.ar    1  UNL1       -0.0023
     10 C           5.0346    2.0274    2.0557 C.ar    1  UNL1       -0.0528
     11 C           6.3890    2.3837    2.0945 C.ar    1  UNL1       -0.0611
     12 C           7.2121    2.1450    0.9948 C.ar    1  UNL1       -0.0617
     13 C           6.6765    1.5720   -0.1559 C.ar    1  UNL1       -0.0611
     14 C           5.3136    1.2518   -0.2129 C.ar    1  UNL1       -0.0528
     15 H           0.8671   -1.2574   -0.5581 H       1  UNL1        0.0233
     16 H           0.6249    0.4680   -0.6785 H       1  UNL1        0.0233
     17 H           0.6223   -0.3775    0.9334 H       1  UNL1        0.0233
     18 H           2.9843   -0.0318   -0.9167 H       1  UNL1        0.0326
     19 H           3.0157   -0.8518    0.6413 H       1  UNL1        0.0326
     20 H           0.3643    1.4079    0.8362 H       1  UNL1        0.1788
     21 H           1.4042    4.2858    2.3341 H       1  UNL1        0.1465
     22 H          -0.2570    4.8397    2.6275 H       1  UNL1        0.1465
     23 H           4.4194    2.1751    2.9395 H       1  UNL1        0.0624
     24 H           6.7990    2.8704    2.9765 H       1  UNL1        0.0618
     25 H           8.2667    2.4111    1.0328 H       1  UNL1        0.0618
     26 H           7.3143    1.4056   -1.0219 H       1  UNL1        0.0618
     27 H           4.9271    0.8481   -1.1432 H       1  UNL1        0.0624
@<TRIPOS>BOND
     1     1     2    1
     2     2     3    1
     3     3     4    2
     4     4     5    1
     5     5     6   am
     6     6     7   am
     7     6     8    2
     8     3     9    1
     9     9    10   ar
    10    10    11   ar
    11    11    12   ar
    12    12    13   ar
    13    13    14   ar
    14     9    14   ar
    15     1    15    1
    16     1    16    1
    17     1    17    1
    18     2    18    1
    19     2    19    1
    20     5    20    1
    21     7    21    1
    22     7    22    1
    23    10    23    1
    24    11    24    1
    25    12    25    1
    26    13    26    1
    27    14    27    1
