@<TRIPOS>MOLECULE
*****
 69 72 0 0 0
SMALL
GASTEIGER

@<TRIPOS>ATOM
      1 C           1.8733    1.4791   -0.0153 C.3     1  UNL1       -0.0395
      2 C           0.5965    0.6857    0.0000 C.ar    1  UNL1       -0.0474
      3 C          -0.6032    1.3813    0.0231 C.ar    1  UNL1       -0.0568
      4 C          -1.8179    0.7029    0.0207 C.ar    1  UNL1       -0.0402
      5 C          -1.9135   -0.6918   -0.0224 C.ar    1  UNL1        0.0350
      6 N          -3.1911   -1.3653   -0.0664 N.am    1  UNL1       -0.2692
      7 C          -4.4116   -0.6913   -0.0823 C.2     1  UNL1        0.3081
      8 O          -4.5142    0.5328   -0.0445 O.2     1  UNL1       -0.2522
      9 N          -5.5637   -1.4708   -0.1324 N.am    1  UNL1       -0.2692
     10 C          -6.8549   -0.8319   -0.1787 C.ar    1  UNL1        0.0356
     11 C          -7.9425   -1.2957    0.5459 C.ar    1  UNL1       -0.0386
     12 C          -9.1935   -0.6417    0.4345 C.ar    1  UNL1       -0.0382
     13 C          -9.4150    0.5013   -0.3790 C.ar    1  UNL1        0.0420
     14 N         -10.7141    0.9934   -0.4231 N.pl3   1  UNL1       -0.3293
     15 C         -11.3147    1.7326    0.6933 C.3     1  UNL1        0.0122
     16 C         -12.7435    1.1952    0.8757 C.3     1  UNL1       -0.0372
     17 C         -13.5512    1.2572   -0.4298 C.3     1  UNL1       -0.0502
     18 C         -12.7846    0.6354   -1.5992 C.3     1  UNL1       -0.0372
     19 C         -11.3900    1.2324   -1.6989 C.3     1  UNL1        0.0122
     20 C          -8.3062    0.9607   -1.1289 C.ar    1  UNL1        0.0594
     21 C          -8.3911    2.1274   -2.0822 C.2     1  UNL1        0.2459
     22 O          -9.4048    2.8173   -2.2178 O.2     1  UNL1       -0.2701
     23 N          -7.2973    2.4480   -2.8617 N.am    1  UNL1       -0.3110
     24 C          -7.4212    3.5341   -3.8078 C.3     1  UNL1        0.0159
     25 C          -6.1083    3.8212   -4.5198 C.3     1  UNL1       -0.0120
     26 C          -6.2456    4.9689   -5.4834 C.ar    1  UNL1       -0.0459
     27 C          -5.4511    6.1091   -5.3234 C.ar    1  UNL1       -0.0585
     28 C          -5.6521    7.2235   -6.1347 C.ar    1  UNL1       -0.0615
     29 C          -6.5873    7.1767   -7.1668 C.ar    1  UNL1       -0.0617
     30 C          -7.3582    6.0327   -7.3588 C.ar    1  UNL1       -0.0615
     31 C          -7.1918    4.9340   -6.5181 C.ar    1  UNL1       -0.0585
     32 C          -7.0618    0.2886   -0.9988 C.ar    1  UNL1       -0.0265
     33 C          -0.6988   -1.4024   -0.0228 C.ar    1  UNL1       -0.0373
     34 C           0.5571   -0.7233   -0.0041 C.ar    1  UNL1       -0.0458
     35 C           1.8523   -1.4946    0.0198 C.3     1  UNL1       -0.0394
     36 H           1.6714    2.5576   -0.0264 H       1  UNL1        0.0278
     37 H           2.4531    1.2523   -0.9147 H       1  UNL1        0.0278
     38 H           2.4673    1.2689    0.8781 H       1  UNL1        0.0278
     39 H          -0.6267    2.4685    0.0441 H       1  UNL1        0.0621
     40 H          -2.6791    1.3534    0.0551 H       1  UNL1        0.0636
     41 H          -3.1741   -2.3741   -0.1159 H       1  UNL1        0.1564
     42 H          -5.5240   -2.4469    0.1203 H       1  UNL1        0.1564
     43 H          -7.8450   -2.1194    1.2471 H       1  UNL1        0.0637
     44 H         -10.0482   -1.0705    0.9591 H       1  UNL1        0.0637
     45 H         -11.3644    2.8064    0.4560 H       1  UNL1        0.0464
     46 H         -10.7509    1.6402    1.6282 H       1  UNL1        0.0464
     47 H         -13.2697    1.7520    1.6590 H       1  UNL1        0.0280
     48 H         -12.6849    0.1495    1.2007 H       1  UNL1        0.0280
     49 H         -13.7857    2.3039   -0.6633 H       1  UNL1        0.0266
     50 H         -14.5057    0.7349   -0.3057 H       1  UNL1        0.0266
     51 H         -13.3207    0.8076   -2.5379 H       1  UNL1        0.0280
     52 H         -12.7004   -0.4467   -1.4508 H       1  UNL1        0.0280
     53 H         -11.5133    2.3072   -1.8856 H       1  UNL1        0.0464
     54 H         -10.8594    0.7750   -2.5396 H       1  UNL1        0.0464
     55 H          -6.3938    2.0196   -2.7402 H       1  UNL1        0.1490
     56 H          -7.7772    4.4232   -3.2704 H       1  UNL1        0.0465
     57 H          -8.2105    3.2533   -4.5168 H       1  UNL1        0.0465
     58 H          -5.7552    2.9312   -5.0528 H       1  UNL1        0.0328
     59 H          -5.3487    4.0522   -3.7616 H       1  UNL1        0.0328
     60 H          -4.6839    6.1419   -4.5531 H       1  UNL1        0.0620
     61 H          -5.0867    8.1327   -5.9519 H       1  UNL1        0.0618
     62 H          -6.7140    8.0333   -7.8221 H       1  UNL1        0.0618
     63 H          -8.1021    6.0013   -8.1501 H       1  UNL1        0.0618
     64 H          -7.8185    4.0572   -6.6677 H       1  UNL1        0.0620
     65 H          -6.2065    0.6234   -1.5682 H       1  UNL1        0.0644
     66 H          -0.6950   -2.4901   -0.0334 H       1  UNL1        0.0639
     67 H           1.6834   -2.5743    0.0265 H       1  UNL1        0.0278
     68 H           2.4260   -1.2420    0.9195 H       1  UNL1        0.0278
     69 H           2.4569   -1.2537   -0.8619 H       1  UNL1        0.0278
@<TRIPOS>BOND
     1     1     2    1
     2     2     3   ar
     3     3     4   ar
     4     4     5   ar
     5     5     6    1
     6     6     7   am
     7     7     8    2
     8     7     9   am
     9     9    10    1
    10    10    11   ar
    11    11    12   ar
    12    12    13   ar
    13    13    14    1
    14    14    15    1
    15    15    16    1
    16    16    17    1
    17    17    18    1
    18    18    19    1
    19    14    19    1
    20    13    20   ar
    21    20    21    1
    22    21    22    2
    23    21    23   am
    24    23    24    1
    25    24    25    1
    26    25    26    1
    27    26    27   ar
    28    27    28   ar
    29    28    29   ar
    30    29    30   ar
    31    30    31   ar
    32    26    31   ar
    33    20    32   ar
    34    10    32   ar
    35     5    33   ar
    36    33    34   ar
    37     2    34   ar
    38    34    35    1
    39     1    36    1
    40     1    37    1
    41     1    38    1
    42     3    39    1
    43     4    40    1
    44     6    41    1
    45     9    42    1
    46    11    43    1
    47    12    44    1
    48    15    45    1
    49    15    46    1
    50    16    47    1
    51    16    48    1
    52    17    49    1
    53    17    50    1
    54    18    51    1
    55    18    52    1
    56    19    53    1
    57    19    54    1
    58    23    55    1
    59    24    56    1
    60    24    57    1
    61    25    58    1
    62    25    59    1
    63    27    60    1
    64    28    61    1
    65    29    62    1
    66    30    63    1
    67    31    64    1
    68    32    65    1
    69    33    66    1
    70    35    67    1
    71    35    68    1
    72    35    69    1
