REMARK  8 active torsions:
REMARK  status: ('A' for Active; 'I' for Inactive)
REMARK    1  A    between atoms: C_2  and  C_3 
REMARK       I    between atoms: C_2  and  N_20 
REMARK    2  A    between atoms: C_3  and  S_4 
REMARK    3  A    between atoms: S_4  and  C_5 
REMARK    4  A    between atoms: C_8  and  N_9 
REMARK    5  A    between atoms: N_9  and  N_10 
REMARK    6  A    between atoms: C_11  and  C_12 
REMARK    7  A    between atoms: N_20  and  C_21 
REMARK    8  A    between atoms: C_21  and  C_22 
ROOT
ATOM      1  C   UNL d   1       2.702  -3.788   1.844  0.00  0.00     0.226 A 
ATOM      2  N   UNL d   1       2.299  -5.051   1.663  0.00  0.00    -0.132 NA
ATOM      3  N   UNL d   1       3.179  -5.728   2.419  0.00  0.00    -0.103 N 
ATOM      4  C   UNL d   1       4.087  -4.894   3.018  0.00  0.00     0.739 A 
ATOM      5  N   UNL d   1       3.797  -3.655   2.654  0.00  0.00    -0.034 NA
ATOM      6  H   UNL d   1       3.099  -6.736   2.472  0.00  0.00     0.208 HD
ENDROOT
BRANCH   1   7
ATOM      7  S   UNL d   1       1.738  -2.476   1.216  0.00  0.00    -0.079 SA
BRANCH   7   8
ATOM      8  C   UNL d   1       2.928  -1.240   0.617  0.00  0.00     0.185 C 
BRANCH   8   9
ATOM      9  C   UNL d   1       2.197  -0.033   0.004  0.00  0.00     0.227 C 
ATOM     10  O   UNL d   1       0.968   0.091  -0.055  0.00  0.00    -0.273 OA
ATOM     11  N   UNL d   1       2.937   0.989  -0.527  0.00  0.00    -0.356 N 
ATOM     12  H   UNL d   1       2.365   1.730  -0.920  0.00  0.00     0.162 HD
BRANCH  11  13
ATOM     13  C   UNL d   1       4.378   1.118  -0.575  0.00  0.00     0.161 C 
BRANCH  13  14
ATOM     14  C   UNL d   1       4.806   2.425  -1.203  0.00  0.00    -0.039 A 
ATOM     15  C   UNL d   1       5.754   2.464  -2.236  0.00  0.00     0.010 A 
ATOM     16  C   UNL d   1       6.121   3.683  -2.820  0.00  0.00     0.026 A 
ATOM     17  C   UNL d   1       5.551   4.880  -2.377  0.00  0.00     0.055 A 
ATOM     18 CL   UNL d   1       6.039   6.346  -3.151  0.00  0.00    -0.083 Cl
ATOM     19  C   UNL d   1       4.618   4.857  -1.338  0.00  0.00     0.056 A 
ATOM     20 CL   UNL d   1       3.843   6.286  -0.752  0.00  0.00    -0.083 Cl
ATOM     21  C   UNL d   1       4.265   3.640  -0.746  0.00  0.00     0.034 A 
ENDBRANCH  13  14
ENDBRANCH  11  13
ENDBRANCH   8   9
ENDBRANCH   7   8
ENDBRANCH   1   7
BRANCH   4  22
ATOM     22  N   UNL d   1       5.082  -5.372   3.825  0.00  0.00    -0.106 N 
ATOM     23  H   UNL d   1       5.132  -6.360   4.066  0.00  0.00     0.208 HD
BRANCH  22  24
ATOM     24  N   UNL d   1       5.930  -4.498   4.435  0.00  0.00    -0.172 NA
ATOM     25  C   UNL d   1       6.850  -4.923   5.240  0.00  0.00     0.152 C 
BRANCH  25  26
ATOM     26  C   UNL d   1       7.711  -3.938   5.955  0.00  0.00     0.005 A 
ATOM     27  C   UNL d   1       9.092  -4.175   6.075  0.00  0.00     0.014 A 
ATOM     28  C   UNL d   1       9.917  -3.233   6.714  0.00  0.00     0.001 A 
ATOM     29  C   UNL d   1       9.372  -2.064   7.242  0.00  0.00     0.002 A 
ATOM     30  C   UNL d   1       8.002  -1.837   7.143  0.00  0.00     0.024 A 
ATOM     31  C   UNL d   1       7.169  -2.767   6.510  0.00  0.00     0.045 A 
ATOM     32 CL   UNL d   1       5.475  -2.421   6.545  0.00  0.00    -0.083 Cl
ENDBRANCH  25  26
ENDBRANCH  22  24
ENDBRANCH   4  22
TORSDOF 8
