@<TRIPOS>MOLECULE
*****
 46 47 0 0 0
SMALL
GASTEIGER

@<TRIPOS>ATOM
      1 C           9.6785   -0.3039    5.5624 C.3     1  UNL1       -0.0652
      2 C           9.3478   -1.3954    4.5715 C.3     1  UNL1       -0.0538
      3 C           8.2512   -0.9259    3.6176 C.3     1  UNL1       -0.0297
      4 C           7.9607   -2.0404    2.6452 C.3     1  UNL1        0.0486
      5 O           6.9498   -1.6908    1.7162 O.3     1  UNL1       -0.3676
      6 C           6.5514   -2.7784    0.8731 C.3     1  UNL1        0.1329
      7 C           5.0188   -2.7101    0.8185 C.3     1  UNL1       -0.0300
      8 C           7.0082   -4.2423    1.2297 C.2     1  UNL1        0.2577
      9 O           6.2225   -5.1216    1.5900 O.2     1  UNL1       -0.2714
     10 N           8.3781   -4.4776    1.1554 N.am    1  UNL1       -0.2320
     11 N           8.9017   -5.6412    1.7627 N.am    1  UNL1       -0.2302
     12 C          10.2717   -5.7983    1.8644 C.2     1  UNL1        0.2637
     13 O          11.0649   -4.8836    1.6182 O.2     1  UNL1       -0.2685
     14 C          10.7850   -7.1269    2.3151 C.ar    1  UNL1        0.0801
     15 C          11.9030   -7.1535    3.1654 C.ar    1  UNL1       -0.0383
     16 C          12.5012   -8.3677    3.5593 C.ar    1  UNL1       -0.0169
     17 C          13.6144   -8.3928    4.4194 C.ar    1  UNL1       -0.0540
     18 C          14.2187   -9.5981    4.7836 C.ar    1  UNL1       -0.0612
     19 C          13.7221  -10.7984    4.2881 C.ar    1  UNL1       -0.0612
     20 C          12.6103  -10.7946    3.4405 C.ar    1  UNL1       -0.0539
     21 C          11.9807   -9.5876    3.0711 C.ar    1  UNL1       -0.0144
     22 C          10.8516   -9.5570    2.2271 C.ar    1  UNL1       -0.0117
     23 C          10.2567   -8.3395    1.8624 C.ar    1  UNL1        0.1296
     24 O           9.1648   -8.3404    1.0383 O.3     1  UNL1       -0.5060
     25 H          10.4607   -0.6362    6.2494 H       1  UNL1        0.0230
     26 H           8.7909   -0.0393    6.1446 H       1  UNL1        0.0230
     27 H          10.0300    0.5900    5.0386 H       1  UNL1        0.0230
     28 H           9.0247   -2.2978    5.1066 H       1  UNL1        0.0263
     29 H          10.2496   -1.6702    4.0085 H       1  UNL1        0.0263
     30 H           8.5679   -0.0325    3.0681 H       1  UNL1        0.0287
     31 H           7.3396   -0.6603    4.1637 H       1  UNL1        0.0287
     32 H           7.6472   -2.9193    3.2185 H       1  UNL1        0.0560
     33 H           8.8861   -2.2296    2.0986 H       1  UNL1        0.0560
     34 H           6.9262   -2.5553   -0.1342 H       1  UNL1        0.0690
     35 H           4.5911   -2.8790    1.8144 H       1  UNL1        0.0259
     36 H           4.6027   -3.4593    0.1380 H       1  UNL1        0.0259
     37 H           4.6705   -1.7200    0.4990 H       1  UNL1        0.0259
     38 H           9.0654   -3.7558    0.9421 H       1  UNL1        0.1729
     39 H           8.2447   -6.3959    1.9580 H       1  UNL1        0.1731
     40 H          12.3184   -6.2115    3.5205 H       1  UNL1        0.0632
     41 H          14.0251   -7.4653    4.8134 H       1  UNL1        0.0624
     42 H          15.0794   -9.5964    5.4489 H       1  UNL1        0.0618
     43 H          14.2001  -11.7366    4.5617 H       1  UNL1        0.0618
     44 H          12.2432  -11.7488    3.0673 H       1  UNL1        0.0624
     45 H          10.4499  -10.4957    1.8519 H       1  UNL1        0.0660
     46 H           8.9522   -9.2519    0.7738 H       1  UNL1        0.2922
@<TRIPOS>BOND
     1     1     2    1
     2     2     3    1
     3     3     4    1
     4     4     5    1
     5     6     8    1
     6     8     9    2
     7     8    10   am
     8    10    11    1
     9    11    12   am
    10    12    13    2
    11    12    14    1
    12    14    15   ar
    13    15    16   ar
    14    16    17   ar
    15    17    18   ar
    16    18    19   ar
    17    19    20   ar
    18    20    21   ar
    19    16    21   ar
    20    21    22   ar
    21    22    23   ar
    22    14    23   ar
    23    23    24    1
    24     6     7    1
    25     6     5    1
    26     1    25    1
    27     1    26    1
    28     1    27    1
    29     2    28    1
    30     2    29    1
    31     3    30    1
    32     3    31    1
    33     4    32    1
    34     4    33    1
    35     6    34    1
    36     7    35    1
    37     7    36    1
    38     7    37    1
    39    10    38    1
    40    11    39    1
    41    15    40    1
    42    17    41    1
    43    18    42    1
    44    19    43    1
    45    20    44    1
    46    22    45    1
    47    24    46    1
