REMARK  7 active torsions:
REMARK  status: ('A' for Active; 'I' for Inactive)
REMARK    1  A    between atoms: C_2  and  O_3 
REMARK    2  A    between atoms: O_3  and  C_4 
REMARK    3  A    between atoms: C_4  and  C_6 
REMARK    4  A    between atoms: C_6  and  N_7 
REMARK    5  A    between atoms: C_6  and  O_20 
REMARK    6  A    between atoms: C_6  and  C_27 
REMARK       I    between atoms: N_7  and  C_8 
REMARK       I    between atoms: C_8  and  N_10 
REMARK    7  A    between atoms: O_20  and  C_21 
ROOT
ATOM      1  C   UNL d   1       4.846   0.661   2.960  0.00  0.00     0.333 C 
ENDROOT
BRANCH   1   2
ATOM      2  C   UNL d   1       4.488   0.372   1.451  0.00  0.00     0.325 C 
ATOM      3  O   UNL d   1       5.222  -0.186   0.644  0.00  0.00    -0.259 OA
BRANCH   2   4
ATOM      4  O   UNL d   1       3.183   0.713   1.142  0.00  0.00    -0.318 OA
BRANCH   4   5
ATOM      5  C   UNL d   1       2.644   0.108  -0.058  0.00  0.00     0.174 C 
ATOM      6  C   UNL d   1       1.117   0.024  -0.018  0.00  0.00     0.034 C 
ENDBRANCH   4   5
ENDBRANCH   2   4
ENDBRANCH   1   2
BRANCH   1   7
ATOM      7  N   UNL d   1       4.338   1.995   3.346  0.00  0.00    -0.293 N 
ATOM      8  C   UNL d   1       4.732   3.080   2.619  0.00  0.00     0.347 C 
ATOM      9  O   UNL d   1       5.400   2.946   1.591  0.00  0.00    -0.245 OA
ATOM     10  N   UNL d   1       4.283   4.266   3.082  0.00  0.00    -0.169 NA
ATOM     11  C   UNL d   1       4.682   5.311   2.436  0.00  0.00     0.177 A 
ATOM     12  N   UNL d   1       5.559   5.482   1.379  0.00  0.00    -0.334 N 
ATOM     13  S   UNL d   1       4.012   6.889   2.935  0.00  0.00    -0.050 SA
ATOM     14  C   UNL d   1       5.762   6.801   0.972  0.00  0.00     0.051 A 
ATOM     15  H   UNL d   1       6.018   4.683   0.957  0.00  0.00     0.168 HD
ATOM     16  C   UNL d   1       6.619   7.259  -0.020  0.00  0.00     0.031 A 
ATOM     17  C   UNL d   1       4.995   7.719   1.705  0.00  0.00     0.035 A 
ATOM     18  C   UNL d   1       6.689   8.641  -0.262  0.00  0.00     0.002 A 
ATOM     19  C   UNL d   1       5.909   9.542   0.480  0.00  0.00     0.002 A 
ATOM     20  C   UNL d   1       5.051   9.079   1.474  0.00  0.00     0.021 A 
ATOM     21  H   UNL d   1       3.861   2.138   4.226  0.00  0.00     0.168 HD
ENDBRANCH   1   7
BRANCH   1  22
ATOM     22  O   UNL d   1       4.370  -0.325   3.947  0.00  0.00    -0.303 OA
BRANCH  22  23
ATOM     23  C   UNL d   1       3.034  -0.533   4.138  0.00  0.00     0.072 C 
ATOM     24  C   UNL d   1       2.139  -0.735   3.111  0.00  0.00     0.037 C 
ATOM     25  C   UNL d   1       0.768  -0.583   3.297  0.00  0.00     0.003 C 
ATOM     26  C   UNL d   1       0.258  -0.630   4.572  0.00  0.00     0.000 C 
ATOM     27  C   UNL d   1       1.143  -0.797   5.630  0.00  0.00     0.003 C 
ATOM     28  C   UNL d   1       2.529  -0.668   5.425  0.00  0.00     0.037 C 
ENDBRANCH  22  23
ENDBRANCH   1  22
BRANCH   1  29
ATOM     29  C   UNL d   1       6.417   0.571   3.023  0.00  0.00     0.449 C 
ATOM     30  F   UNL d   1       6.877  -0.676   2.751  0.00  0.00    -0.166 F 
ATOM     31  F   UNL d   1       7.088   1.418   2.213  0.00  0.00    -0.166 F 
ATOM     32  F   UNL d   1       6.850   0.861   4.286  0.00  0.00    -0.166 F 
ENDBRANCH   1  29
TORSDOF 7
