@<TRIPOS>MOLECULE
*****
 29 30 0 0 0
SMALL
GASTEIGER

@<TRIPOS>ATOM
      1 C          -3.1720    0.0229    0.0384 C.1     1  UNL1       -0.1139
      2 C          -1.9697    0.0292   -0.0144 C.1     1  UNL1       -0.0696
      3 C          -0.5421    0.0305   -0.0381 C.ar    1  UNL1        0.0264
      4 C           0.1681    1.2204   -0.0377 C.ar    1  UNL1       -0.0462
      5 C           1.5629    1.1858    0.0082 C.ar    1  UNL1       -0.0589
      6 C           2.2505   -0.0439    0.0471 C.ar    1  UNL1       -0.0404
      7 C           1.5397   -1.2540    0.0109 C.ar    1  UNL1        0.0348
      8 N           2.2234   -2.5091    0.0182 N.am    1  UNL1       -0.2815
      9 C           1.5838   -3.7490   -0.0671 C.2     1  UNL1        0.2483
     10 O           0.3764   -3.9557   -0.1385 O.2     1  UNL1       -0.2699
     11 C           2.4065   -4.9777   -0.0905 C.ar    1  UNL1        0.0386
     12 C           3.4456   -5.1819    0.8175 C.ar    1  UNL1       -0.0461
     13 C           4.1204   -6.4112    0.8367 C.ar    1  UNL1       -0.0180
     14 C           3.7520   -7.4283   -0.0494 C.ar    1  UNL1        0.1351
     15 O           4.4070   -8.6295   -0.0481 O.3     1  UNL1       -0.5053
     16 C           2.7022   -7.2284   -0.9494 C.ar    1  UNL1        0.0830
     17 CL          2.2416   -8.4586   -2.0701 Cl      1  UNL1       -0.0797
     18 C           2.0180   -6.0138   -0.9586 C.ar    1  UNL1       -0.0277
     19 C           0.1430   -1.1827   -0.0318 C.ar    1  UNL1       -0.0251
     20 H          -4.2328    0.0299    0.0980 H       1  UNL1        0.1232
     21 H          -0.3660    2.1665   -0.0636 H       1  UNL1        0.0630
     22 H           2.1063    2.1285    0.0193 H       1  UNL1        0.0619
     23 H           3.3361   -0.0167    0.1039 H       1  UNL1        0.0636
     24 H           3.2361   -2.4783    0.0245 H       1  UNL1        0.1551
     25 H           3.6981   -4.4135    1.5427 H       1  UNL1        0.0626
     26 H           4.9213   -6.5589    1.5548 H       1  UNL1        0.0655
     27 H           5.0977   -8.6471    0.6320 H       1  UNL1        0.2922
     28 H           1.1715   -5.8749   -1.6302 H       1  UNL1        0.0641
     29 H          -0.4719   -2.0712   -0.0557 H       1  UNL1        0.0648
@<TRIPOS>BOND
     1     1     2    3
     2     2     3    1
     3     3     4   ar
     4     4     5   ar
     5     5     6   ar
     6     6     7   ar
     7     7     8    1
     8     8     9   am
     9     9    10    2
    10     9    11    1
    11    11    12   ar
    12    12    13   ar
    13    13    14   ar
    14    14    15    1
    15    14    16   ar
    16    16    17    1
    17    16    18   ar
    18    11    18   ar
    19     7    19   ar
    20     3    19   ar
    21     1    20    1
    22     4    21    1
    23     5    22    1
    24     6    23    1
    25     8    24    1
    26    12    25    1
    27    13    26    1
    28    15    27    1
    29    18    28    1
    30    19    29    1
