REMARK  5 active torsions:
REMARK  status: ('A' for Active; 'I' for Inactive)
REMARK    1  A    between atoms: C_5  and  N_6 
REMARK       I    between atoms: N_6  and  C_7 
REMARK       I    between atoms: C_7  and  N_9 
REMARK    2  A    between atoms: N_9  and  C_10 
REMARK    3  A    between atoms: C_12  and  N_13 
REMARK       I    between atoms: N_13  and  C_14 
REMARK    4  A    between atoms: C_14  and  C_16 
REMARK    5  A    between atoms: C_25  and  N_26 
ROOT
ATOM      1  C   UNL d   1      -6.804  -0.823  -0.216  0.00  0.00     0.065 A 
ATOM      2  C   UNL d   1      -7.952  -1.311   0.492  0.00  0.00     0.061 A 
ATOM      3  C   UNL d   1      -9.222  -0.699   0.340  0.00  0.00     0.037 A 
ATOM      4  C   UNL d   1      -9.283   0.469  -0.411  0.00  0.00     0.032 A 
ATOM      5  C   UNL d   1      -8.178   0.950  -1.101  0.00  0.00     0.034 A 
ATOM      6  C   UNL d   1      -6.931   0.322  -1.054  0.00  0.00     0.057 A 
ENDROOT
BRANCH   1   7
ATOM      7  N   UNL d   1      -5.529  -1.501  -0.093  0.00  0.00    -0.306 N 
ATOM      8  C   UNL d   1      -4.395  -0.767   0.245  0.00  0.00     0.325 C 
ATOM      9  N   UNL d   1      -3.164  -1.413   0.070  0.00  0.00    -0.309 N 
ATOM     10  O   UNL d   1      -4.493   0.392   0.648  0.00  0.00    -0.247 OA
ATOM     11  H   UNL d   1      -3.148  -2.408  -0.102  0.00  0.00     0.170 HD
ATOM     12  H   UNL d   1      -5.540  -2.492   0.089  0.00  0.00     0.170 HD
BRANCH   9  13
ATOM     13  C   UNL d   1      -1.888  -0.727   0.104  0.00  0.00     0.036 A 
ATOM     14  C   UNL d   1      -1.798   0.672   0.154  0.00  0.00     0.030 A 
ATOM     15  C   UNL d   1      -0.594   1.367   0.074  0.00  0.00     0.009 A 
ATOM     16  C   UNL d   1       0.607   0.679   0.011  0.00  0.00    -0.056 A 
ATOM     17  C   UNL d   1       1.880   1.478  -0.020  0.00  0.00     0.049 C 
ATOM     18  C   UNL d   1       0.573  -0.732   0.004  0.00  0.00    -0.054 A 
ATOM     19  C   UNL d   1      -0.675  -1.423   0.017  0.00  0.00     0.037 A 
ATOM     20  C   UNL d   1       1.869  -1.499   0.015  0.00  0.00     0.049 C 
ENDBRANCH   9  13
ENDBRANCH   1   7
BRANCH   6  21
ATOM     21  N   UNL d   1      -5.971   0.854  -1.893  0.00  0.00    -0.379 N 
ATOM     22  C   UNL d   1      -5.108   0.089  -2.769  0.00  0.00     0.123 C 
ATOM     23  C   UNL d   1      -3.746   0.729  -2.591  0.00  0.00     0.021 C 
ATOM     24  C   UNL d   1      -4.041   2.185  -2.274  0.00  0.00     0.021 C 
ATOM     25  C   UNL d   1      -5.424   2.184  -1.612  0.00  0.00     0.123 C 
ENDBRANCH   6  21
BRANCH   3  26
ATOM     26  N   UNL d   1     -10.425  -1.272   0.877  0.00  0.00    -0.323 N 
ATOM     27  C   UNL d   1     -11.717  -0.841   0.551  0.00  0.00     0.256 C 
ATOM     28  O   UNL d   1     -12.024   0.111  -0.177  0.00  0.00    -0.267 OA
ATOM     29  H   UNL d   1     -10.331  -2.138   1.393  0.00  0.00     0.169 HD
BRANCH  27  30
ATOM     30  C   UNL d   1     -12.885  -1.562   1.108  0.00  0.00     0.032 A 
ATOM     31  C   UNL d   1     -14.059  -1.650   0.328  0.00  0.00     0.020 A 
ATOM     32  C   UNL d   1     -15.253  -2.099   0.895  0.00  0.00     0.043 A 
ATOM     33  C   UNL d   1     -15.253  -2.520   2.218  0.00  0.00     0.116 A 
ATOM     34  F   UNL d   1     -16.381  -3.001   2.757  0.00  0.00    -0.206 F 
ATOM     35  C   UNL d   1     -14.098  -2.448   2.995  0.00  0.00     0.043 A 
ATOM     36  C   UNL d   1     -12.910  -1.958   2.445  0.00  0.00     0.020 A 
ENDBRANCH  27  30
ENDBRANCH   3  26
TORSDOF 5
