@<TRIPOS>MOLECULE
*****
 49 50 0 0 0
SMALL
GASTEIGER

@<TRIPOS>ATOM
      1 C           0.9071    0.0335   -0.0157 C.1     1  UNL1       -0.1176
      2 C           2.2109    0.0335   -0.0157 C.1     1  UNL1       -0.0866
      3 C           3.7309    0.0335   -0.0157 C.3     1  UNL1        0.0736
      4 N           4.2775   -1.0064    0.8656 N.am    1  UNL1       -0.3005
      5 C           5.6334   -1.3156    0.7948 C.2     1  UNL1        0.2466
      6 O           6.4801   -0.5020    0.4306 O.2     1  UNL1       -0.2701
      7 C           6.0804   -2.7159    1.1408 C.ar    1  UNL1        0.0579
      8 C           7.2702   -2.7937    1.8966 C.ar    1  UNL1       -0.0478
      9 C           7.9043   -4.0164    2.1437 C.ar    1  UNL1       -0.0609
     10 C           7.3274   -5.1961    1.6921 C.ar    1  UNL1       -0.0600
     11 C           6.1288   -5.1501    0.9715 C.ar    1  UNL1       -0.0397
     12 C           5.4971   -3.9207    0.6707 C.ar    1  UNL1        0.0458
     13 N           4.2967   -4.0113   -0.0900 N.am    1  UNL1       -0.2808
     14 C           3.9318   -3.0411   -1.0114 C.2     1  UNL1        0.2485
     15 O           4.7122   -2.2713   -1.5213 O.2     1  UNL1       -0.2698
     16 C           2.5024   -2.9421   -1.4059 C.ar    1  UNL1        0.0435
     17 C           2.1696   -1.9408   -2.3142 C.ar    1  UNL1       -0.0475
     18 C           0.8592   -1.7811   -2.7466 C.ar    1  UNL1       -0.0335
     19 C          -0.1627   -2.6853   -2.3773 C.ar    1  UNL1        0.1054
     20 N          -1.3433   -2.4664   -3.0855 N.pl3   1  UNL1       -0.3364
     21 C          -2.4204   -3.4149   -3.0227 C.3     1  UNL1        0.0327
     22 C          -3.5642   -3.2221   -3.9768 C.3     1  UNL1        0.0627
     23 O          -4.5157   -4.2416   -3.6519 O.3     1  UNL1       -0.3814
     24 C          -5.6784   -4.1076   -4.4406 C.3     1  UNL1        0.0365
     25 C           0.1597   -3.6345   -1.3519 C.ar    1  UNL1        0.2944
     26 N          -0.7322   -4.6404   -0.6801 N.pl3   1  UNL1        0.0815
     27 O          -1.9260   -4.7414   -0.9431 O.2     1  UNL1        0.0415
     28 O          -0.2048   -5.3809    0.1661 O.co2   1  UNL1       -0.5760
     29 C           1.4905   -3.7148   -0.8641 C.ar    1  UNL1        0.0296
     30 H          -0.1589    0.0395   -0.0141 H       1  UNL1        0.1228
     31 H           4.0379    0.9850    0.4379 H       1  UNL1        0.0599
     32 H           4.1735    0.0217   -1.0137 H       1  UNL1        0.0599
     33 H           3.6559   -1.7416    1.1600 H       1  UNL1        0.1499
     34 H           7.7249   -1.8827    2.2829 H       1  UNL1        0.0626
     35 H           8.8589   -4.0416    2.6666 H       1  UNL1        0.0618
     36 H           7.8162   -6.1487    1.8930 H       1  UNL1        0.0618
     37 H           5.7354   -6.0926    0.5945 H       1  UNL1        0.0636
     38 H           3.9275   -4.9388   -0.2588 H       1  UNL1        0.1552
     39 H           2.9241   -1.2290   -2.6471 H       1  UNL1        0.0626
     40 H           0.6557   -0.9279   -3.3969 H       1  UNL1        0.0638
     41 H          -1.3320   -1.8235   -3.8739 H       1  UNL1        0.1463
     42 H          -2.8763   -3.2664   -2.0446 H       1  UNL1        0.0484
     43 H          -2.0379   -4.4312   -3.1820 H       1  UNL1        0.0484
     44 H          -3.2369   -3.3365   -5.0132 H       1  UNL1        0.0575
     45 H          -4.0085   -2.2357   -3.8178 H       1  UNL1        0.0575
     46 H          -6.3862   -4.8913   -4.1626 H       1  UNL1        0.0523
     47 H          -5.4108   -4.2177   -5.4935 H       1  UNL1        0.0523
     48 H          -6.1330   -3.1310   -4.2568 H       1  UNL1        0.0523
     49 H           1.7334   -4.3976   -0.0534 H       1  UNL1        0.0693
@<TRIPOS>UNITY_ATOM_ATTR
26 1
charge 1
28 1
charge -1
@<TRIPOS>BOND
     1     1     2    3
     2     2     3    1
     3     3     4    1
     4     4     5   am
     5     5     6    2
     6     5     7    1
     7     7     8   ar
     8     8     9   ar
     9     9    10   ar
    10    10    11   ar
    11    11    12   ar
    12     7    12   ar
    13    12    13    1
    14    13    14   am
    15    14    15    2
    16    14    16    1
    17    16    17   ar
    18    17    18   ar
    19    18    19   ar
    20    19    20    1
    21    20    21    1
    22    21    22    1
    23    22    23    1
    24    23    24    1
    25    19    25   ar
    26    25    26    1
    27    26    27    2
    28    26    28    1
    29    25    29   ar
    30    16    29   ar
    31     1    30    1
    32     3    31    1
    33     3    32    1
    34     4    33    1
    35     8    34    1
    36     9    35    1
    37    10    36    1
    38    11    37    1
    39    13    38    1
    40    17    39    1
    41    18    40    1
    42    20    41    1
    43    21    42    1
    44    21    43    1
    45    22    44    1
    46    22    45    1
    47    24    46    1
    48    24    47    1
    49    24    48    1
    50    29    49    1
