REMARK  12 active torsions:
REMARK  status: ('A' for Active; 'I' for Inactive)
REMARK    1  A    between atoms: C_2  and  C_3 
REMARK    2  A    between atoms: C_4  and  C_5 
REMARK    3  A    between atoms: C_5  and  O_7 
REMARK    4  A    between atoms: C_12  and  C_13 
REMARK    5  A    between atoms: C_13  and  N_14 
REMARK    6  A    between atoms: N_14  and  C_15 
REMARK    7  A    between atoms: N_14  and  C_27 
REMARK    8  A    between atoms: C_15  and  C_16 
REMARK    9  A    between atoms: C_16  and  O_17 
REMARK   10  A    between atoms: C_16  and  C_18 
REMARK   11  A    between atoms: C_18  and  O_19 
REMARK   12  A    between atoms: O_19  and  C_20 
ROOT
ATOM      1  C   UNL d   1       1.191   6.554   0.362  0.00  0.00     0.313 C 
ENDROOT
BRANCH   1   2
ATOM      2  C   UNL d   1       1.504   5.164  -0.224  0.00  0.00     0.134 C 
ATOM      3  N   UNL d   1       2.627   4.967  -0.858  0.00  0.00    -0.225 NA
ATOM      4  C   UNL d   1       2.936   3.644  -1.028  0.00  0.00     0.116 A 
ATOM      5  S   UNL d   1       4.176   3.085  -2.037  0.00  0.00    -0.063 SA
ATOM      6  C   UNL d   1       2.318   2.589  -0.395  0.00  0.00     0.076 A 
ATOM      7  C   UNL d   1       3.908   1.424  -1.608  0.00  0.00     0.089 A 
ATOM      8  C   UNL d   1       2.904   1.304  -0.646  0.00  0.00    -0.017 A 
ATOM      9  C   UNL d   1       1.160   2.929   0.382  0.00  0.00     0.260 C 
ATOM     10  N   UNL d   1       0.616   4.151   0.069  0.00  0.00    -0.309 N 
ATOM     11  O   UNL d   1       0.701   2.296   1.326  0.00  0.00    -0.267 OA
ATOM     12  H   UNL d   1      -0.150   4.318   0.694  0.00  0.00     0.170 HD
BRANCH   7  13
ATOM     13  C   UNL d   1       4.716   0.417  -2.314  0.00  0.00     0.300 C 
ATOM     14  O   UNL d   1       5.500   0.624  -3.213  0.00  0.00    -0.259 OA
BRANCH  13  15
ATOM     15  O   UNL d   1       4.437  -0.830  -1.827  0.00  0.00    -0.322 OA
ATOM     16  C   UNL d   1       5.108  -1.928  -2.447  0.00  0.00     0.213 C 
ENDBRANCH  13  15
ENDBRANCH   7  13
BRANCH   8  17
ATOM     17  C   UNL d   1       2.391   0.036  -0.002  0.00  0.00     0.037 C 
ATOM     18  C   UNL d   1       0.885  -0.148  -0.118  0.00  0.00     0.010 C 
ENDBRANCH   8  17
ENDBRANCH   1   2
BRANCH   1  19
ATOM     19  N   UNL d   1       0.188   6.640   1.578  0.00  0.00    -0.058 N 
ATOM     20  H   UNL d   1      -0.665   6.138   1.307  0.00  0.00     0.280 HD
BRANCH  19  21
ATOM     21  C   UNL d   1       0.767   6.072   2.916  0.00  0.00     0.269 C 
BRANCH  21  22
ATOM     22  C   UNL d   1       1.335   4.688   2.777  0.00  0.00     0.168 C 
BRANCH  22  23
ATOM     23  O   UNL d   1       2.450   4.694   1.917  0.00  0.00    -0.392 OA
ATOM     24  H   UNL d   1       3.178   5.248   2.236  0.00  0.00     0.210 HD
ENDBRANCH  22  23
BRANCH  22  25
ATOM     25  C   UNL d   1       1.785   3.992   4.007  0.00  0.00     0.209 C 
BRANCH  25  26
ATOM     26  O   UNL d   1       2.083   2.650   3.613  0.00  0.00    -0.348 OA
BRANCH  26  27
ATOM     27  C   UNL d   1       2.513   1.880   4.646  0.00  0.00     0.074 A 
ATOM     28  C   UNL d   1       3.690   1.156   4.420  0.00  0.00     0.037 A 
ATOM     29  C   UNL d   1       4.266   0.452   5.471  0.00  0.00     0.003 A 
ATOM     30  C   UNL d   1       3.651   0.460   6.720  0.00  0.00     0.001 A 
ATOM     31  C   UNL d   1       2.435   1.116   6.908  0.00  0.00     0.009 A 
ATOM     32  C   UNL d   1       1.827   1.804   5.864  0.00  0.00    -0.029 A 
ATOM     33  C   UNL d   1       0.471   2.403   6.106  0.00  0.00     0.051 C 
ENDBRANCH  26  27
ENDBRANCH  25  26
ENDBRANCH  22  25
ENDBRANCH  21  22
ENDBRANCH  19  21
BRANCH  19  34
ATOM     34  C   UNL d   1      -0.263   8.090   1.848  0.00  0.00     0.180 C 
ATOM     35  C   UNL d   1      -0.818   8.733   0.582  0.00  0.00     0.039 C 
ATOM     36  C   UNL d   1      -1.362   8.097   2.919  0.00  0.00     0.039 C 
ENDBRANCH  19  34
ENDBRANCH   1  19
TORSDOF 12
