REMARK  12 active torsions:
REMARK  status: ('A' for Active; 'I' for Inactive)
REMARK    1  A    between atoms: C_3  and  O_4 
REMARK    2  A    between atoms: O_4  and  C_5 
REMARK    3  A    between atoms: C_6  and  C_5 
REMARK    4  A    between atoms: C_6  and  C_8 
REMARK    5  A    between atoms: C_6  and  O_7 
REMARK    6  A    between atoms: N_9  and  C_8 
REMARK    7  A    between atoms: N_9  and  C_28 
REMARK    8  A    between atoms: N_9  and  C_10 
REMARK    9  A    between atoms: C_10  and  C_11 
REMARK   10  A    between atoms: C_15  and  C_16 
REMARK   11  A    between atoms: C_16  and  O_18 
REMARK   12  A    between atoms: O_18  and  C_19 
ROOT
ATOM      1  C   UNL d   1       4.671  -7.311   2.683  0.00  0.00     0.014 C 
ATOM      2  C   UNL d   1       4.720  -6.436   3.517  0.00  0.00    -0.091 C 
ATOM      3  C   UNL d   1       4.728  -5.413   4.554  0.00  0.00     0.260 C 
ENDROOT
BRANCH   3   4
ATOM      4  O   UNL d   1       5.664  -4.375   4.230  0.00  0.00    -0.377 OA
BRANCH   4   5
ATOM      5  C   UNL d   1       5.627  -3.377   5.260  0.00  0.00     0.202 C 
BRANCH   5   6
ATOM      6  C   UNL d   1       6.118  -2.061   4.681  0.00  0.00     0.167 C 
BRANCH   6   7
ATOM      7  C   UNL d   1       7.649  -2.057   4.625  0.00  0.00     0.269 C 
BRANCH   7   8
ATOM      8  N   UNL d   1       8.223  -0.748   4.109  0.00  0.00    -0.058 N 
ATOM      9  H   UNL d   1       7.881   0.033   4.700  0.00  0.00     0.281 HD
BRANCH   8  10
ATOM     10  C   UNL d   1       9.754  -0.727   4.175  0.00  0.00     0.188 C 
ATOM     11  C   UNL d   1      10.298   0.637   3.748  0.00  0.00     0.033 C 
ATOM     12  C   UNL d   1      11.797   0.750   3.835  0.00  0.00     0.002 C 
ATOM     13  C   UNL d   1      12.253   0.423   5.242  0.00  0.00     0.000 C 
ATOM     14  C   UNL d   1      11.753  -0.951   5.664  0.00  0.00     0.002 C 
ATOM     15  C   UNL d   1      10.237  -1.050   5.588  0.00  0.00     0.033 C 
ENDBRANCH   8  10
BRANCH   8  16
ATOM     16  C   UNL d   1       7.747  -0.420   2.695  0.00  0.00     0.313 C 
BRANCH  16  17
ATOM     17  C   UNL d   1       7.656   1.057   2.439  0.00  0.00     0.134 C 
ATOM     18  N   UNL d   1       7.869   1.869   3.424  0.00  0.00    -0.225 NA
ATOM     19  C   UNL d   1       7.988   3.160   3.052  0.00  0.00     0.116 A 
ATOM     20  S   UNL d   1       8.589   4.307   4.129  0.00  0.00    -0.063 SA
ATOM     21  C   UNL d   1       7.734   3.680   1.808  0.00  0.00     0.075 A 
ATOM     22  C   UNL d   1       8.340   5.584   3.005  0.00  0.00     0.089 A 
ATOM     23  C   UNL d   1       7.889   5.107   1.775  0.00  0.00    -0.020 A 
ATOM     24  C   UNL d   1       7.554   5.915   0.566  0.00  0.00     0.051 C 
ATOM     25  C   UNL d   1       7.323   2.750   0.772  0.00  0.00     0.260 C 
ATOM     26  O   UNL d   1       6.960   3.063  -0.354  0.00  0.00    -0.267 OA
ATOM     27  N   UNL d   1       7.380   1.432   1.155  0.00  0.00    -0.309 N 
ATOM     28  H   UNL d   1       7.067   0.769   0.456  0.00  0.00     0.170 HD
BRANCH  22  29
ATOM     29  C   UNL d   1       8.611   6.919   3.508  0.00  0.00     0.301 C 
ATOM     30  O   UNL d   1       8.956   7.176   4.654  0.00  0.00    -0.259 OA
BRANCH  29  31
ATOM     31  O   UNL d   1       8.425   7.855   2.536  0.00  0.00    -0.312 OA
BRANCH  31  32
ATOM     32  C   UNL d   1       8.668   9.224   2.899  0.00  0.00     0.124 C 
ATOM     33  C   UNL d   1      10.140   9.422   3.235  0.00  0.00     0.040 C 
ATOM     34  C   UNL d   1       8.310  10.115   1.708  0.00  0.00     0.040 C 
ENDBRANCH  31  32
ENDBRANCH  29  31
ENDBRANCH  22  29
ENDBRANCH  16  17
ENDBRANCH   8  16
ENDBRANCH   7   8
ENDBRANCH   6   7
BRANCH   6  35
ATOM     35  O   UNL d   1       5.513  -1.929   3.395  0.00  0.00    -0.392 OA
ATOM     36  H   UNL d   1       5.796  -2.707   2.869  0.00  0.00     0.210 HD
ENDBRANCH   6  35
ENDBRANCH   5   6
ENDBRANCH   4   5
ENDBRANCH   3   4
TORSDOF 12
