@<TRIPOS>MOLECULE
*****
 46 49 0 0 0
SMALL
GASTEIGER

@<TRIPOS>ATOM
      1 O           1.0438    0.0092    0.1256 O.2     1  UNL1       -0.2702
      2 C           2.2692   -0.0373    0.1170 C.2     1  UNL1        0.2443
      3 N           2.9963   -0.6476    1.1255 N.am    1  UNL1       -0.3072
      4 C           2.2949   -1.2372    2.2526 C.3     1  UNL1        0.0372
      5 C           3.2687   -1.8595    3.2344 C.ar    1  UNL1       -0.0293
      6 C           4.0224   -1.0410    4.2027 C.ar    1  UNL1       -0.0508
      7 C           4.9296   -1.5518    5.0817 C.ar    1  UNL1        0.0101
      8 C           5.1806   -3.0280    5.0583 C.ar    1  UNL1        0.2088
      9 C           4.2391   -3.7996    4.2490 C.ar    1  UNL1        0.0515
     10 C           3.3684   -3.1887    3.2922 C.ar    1  UNL1       -0.0435
     11 C           4.4495   -5.0508    4.5586 C.2     1  UNL1        0.0107
     12 C           3.8488   -6.2505    3.9579 C.3     1  UNL1       -0.0245
     13 C           4.3927   -7.5444    4.6138 C.3     1  UNL1       -0.0489
     14 C           5.6048   -7.6822    3.7635 C.3     1  UNL1       -0.0464
     15 C           6.5369   -6.3274    4.4067 C.3     1  UNL1        0.0135
     16 C           5.6627   -5.2919    5.3771 C.3     1  UNL1        0.1759
     17 N           6.0161   -3.8247    5.6487 N.2     1  UNL1       -0.2342
     18 C           3.0085    0.5837   -1.0251 C.ar    1  UNL1        0.0371
     19 C           2.5329    1.7997   -1.5460 C.ar    1  UNL1       -0.0432
     20 C           2.9880    2.2785   -2.7839 C.ar    1  UNL1        0.0163
     21 C           4.0014    1.5898   -3.4580 C.ar    1  UNL1        0.2732
     22 N           4.4125    2.0211   -4.8063 N.pl3   1  UNL1        0.0796
     23 O           3.8228    2.9881   -5.3082 O.2     1  UNL1        0.0414
     24 O           5.3124    1.3772   -5.3644 O.co2   1  UNL1       -0.5760
     25 C           4.5858    0.4551   -2.8737 C.ar    1  UNL1        0.0163
     26 C           4.0510   -0.0779   -1.6860 C.ar    1  UNL1       -0.0432
     27 H           4.0047   -0.6260    1.1121 H       1  UNL1        0.1493
     28 H           1.6178   -2.0075    1.8523 H       1  UNL1        0.0512
     29 H           1.6555   -0.4911    2.7370 H       1  UNL1        0.0512
     30 H           3.7976    0.0275    4.1878 H       1  UNL1        0.0623
     31 H           5.4296   -0.8892    5.7830 H       1  UNL1        0.0683
     32 H           2.8265   -3.8468    2.6194 H       1  UNL1        0.0629
     33 H           4.1491   -6.1430    2.8957 H       1  UNL1        0.0312
     34 H           2.7689   -6.2427    3.9470 H       1  UNL1        0.0312
     35 H           3.9268   -7.6236    5.6092 H       1  UNL1        0.0268
     36 H           5.2057   -7.6393    5.3830 H       1  UNL1        0.0268
     37 H           5.2621   -7.6481    2.7016 H       1  UNL1        0.0268
     38 H           5.8927   -8.7472    3.8774 H       1  UNL1        0.0268
     39 H           7.0264   -5.7869    3.5905 H       1  UNL1        0.0333
     40 H           7.3110   -6.7720    5.0427 H       1  UNL1        0.0333
     41 H           5.3961   -5.7270    6.3517 H       1  UNL1        0.1114
     42 H           6.5745   -3.4899    6.4397 H       1  UNL1        0.4462
     43 H           1.7718    2.3633   -1.0081 H       1  UNL1        0.0627
     44 H           2.5249    3.1643   -3.2173 H       1  UNL1        0.0685
     45 H           5.4241   -0.0452   -3.3566 H       1  UNL1        0.0685
     46 H           4.4125   -1.0392   -1.3324 H       1  UNL1        0.0627
@<TRIPOS>UNITY_ATOM_ATTR
17 1
charge 1
22 1
charge 1
24 1
charge -1
@<TRIPOS>BOND
     1     1     2    2
     2     2     3   am
     3     3     4    1
     4     5     6   ar
     5     6     7   ar
     6     7     8   ar
     7     8     9   ar
     8     9    10   ar
     9     5    10   ar
    10     9    11    2
    11    11    12    1
    12    12    13    1
    13    13    14    1
    14    14    15    1
    15    15    16    1
    16    11    16    1
    17    16    17    1
    18     8    17    2
    19     2    18    1
    20    18    19   ar
    21    19    20   ar
    22    20    21   ar
    23    21    22    1
    24    22    23    2
    25    22    24    1
    26    21    25   ar
    27    25    26   ar
    28    18    26   ar
    29     4     5    1
    30     3    27    1
    31     4    28    1
    32     4    29    1
    33     6    30    1
    34     7    31    1
    35    10    32    1
    36    12    33    1
    37    12    34    1
    38    13    35    1
    39    13    36    1
    40    14    37    1
    41    14    38    1
    42    15    39    1
    43    15    40    1
    44    16    41    1
    45    17    42    1
    46    19    43    1
    47    20    44    1
    48    25    45    1
    49    26    46    1
