REMARK  6 active torsions:
REMARK  status: ('A' for Active; 'I' for Inactive)
REMARK    1  A    between atoms: N_1  and  C_2 
REMARK    2  A    between atoms: C_3  and  C_4 
REMARK       I    between atoms: C_4  and  N_6 
REMARK    3  A    between atoms: N_6  and  C_7 
REMARK    4  A    between atoms: C_7  and  C_8 
REMARK    5  A    between atoms: N_27  and  C_28 
REMARK    6  A    between atoms: C_28  and  C_29 
ROOT
ATOM      1  C   UNL d   1       2.525   0.277  -0.010  0.00  0.00     0.121 C 
ATOM      2  C   UNL d   1       3.102   1.474   0.359  0.00  0.00     0.108 C 
ATOM      3  C   UNL d   1       4.469   1.223   0.558  0.00  0.00     0.123 C 
ATOM      4  N   UNL d   1       5.319   2.001   1.257  0.00  0.00    -0.242 NA
ATOM      5  C   UNL d   1       6.608   1.791   1.147  0.00  0.00     0.086 C 
ATOM      6  C   UNL d   1       7.401   2.545   2.039  0.00  0.00     0.034 C 
ATOM      7  C   UNL d   1       8.768   2.717   1.898  0.00  0.00     0.002 C 
ATOM      8  C   UNL d   1       9.343   2.105   0.812  0.00  0.00     0.002 C 
ATOM      9  C   UNL d   1       8.563   1.155   0.058  0.00  0.00     0.034 C 
ATOM     10  C   UNL d   1       7.123   0.894   0.204  0.00  0.00     0.088 C 
ATOM     11  N   UNL d   1       6.216  -0.104  -0.411  0.00  0.00    -0.226 NA
ATOM     12  C   UNL d   1       4.849   0.058  -0.107  0.00  0.00     0.162 C 
ATOM     13  N   UNL d   1       3.577  -0.662  -0.261  0.00  0.00    -0.311 N 
ENDROOT
BRANCH   2  14
ATOM     14  C   UNL d   1       2.504   2.776   0.626  0.00  0.00     0.258 C 
ATOM     15  O   UNL d   1       3.113   3.801   0.780  0.00  0.00    -0.267 OA
ATOM     16  N   UNL d   1       1.133   2.723   0.654  0.00  0.00    -0.352 N 
ATOM     17  H   UNL d   1       0.694   1.963   0.210  0.00  0.00     0.163 HD
BRANCH  16  18
ATOM     18  C   UNL d   1       0.359   3.873   0.848  0.00  0.00     0.161 C 
BRANCH  18  19
ATOM     19  C   UNL d   1      -1.104   3.603   0.730  0.00  0.00    -0.038 C 
ATOM     20  C   UNL d   1      -1.867   2.415   0.692  0.00  0.00     0.012 C 
ATOM     21  C   UNL d   1      -3.284   2.519   0.648  0.00  0.00     0.040 C 
ATOM     22  C   UNL d   1      -3.780   3.782   0.369  0.00  0.00     0.105 C 
ATOM     23  C   UNL d   1      -2.909   4.658  -0.174  0.00  0.00     0.105 C 
ATOM     24  O   UNL d   1      -4.930   4.504   0.609  0.00  0.00    -0.323 OA
ATOM     25  C   UNL d   1      -1.761   4.774   0.503  0.00  0.00     0.048 C 
ATOM     26  O   UNL d   1      -3.479   5.726  -0.776  0.00  0.00    -0.323 OA
ATOM     27  C   UNL d   1      -4.458   5.864   0.233  0.00  0.00     0.352 C 
ENDBRANCH  18  19
ENDBRANCH  16  18
ENDBRANCH   2  14
BRANCH   1  28
ATOM     28  N   UNL d   1       1.207  -0.091  -0.117  0.00  0.00    -0.384 N 
ATOM     29  H   UNL d   1       0.412   0.439   0.197  0.00  0.00     0.157 HD
ATOM     30  H   UNL d   1       0.869  -1.041  -0.244  0.00  0.00     0.157 HD
ENDBRANCH   1  28
BRANCH  13  31
ATOM     31  C   UNL d   1       3.009  -2.071  -0.437  0.00  0.00     0.171 C 
BRANCH  31  32
ATOM     32  C   UNL d   1       3.770  -3.339  -0.619  0.00  0.00    -0.040 A 
ATOM     33  C   UNL d   1       5.045  -3.213  -1.114  0.00  0.00     0.009 A 
ATOM     34  C   UNL d   1       5.768  -4.316  -1.513  0.00  0.00     0.001 A 
ATOM     35  C   UNL d   1       5.264  -5.596  -1.321  0.00  0.00     0.000 A 
ATOM     36  C   UNL d   1       4.009  -5.772  -0.743  0.00  0.00     0.001 A 
ATOM     37  C   UNL d   1       3.222  -4.646  -0.457  0.00  0.00     0.009 A 
ENDBRANCH  31  32
ENDBRANCH  13  31
TORSDOF 6
