REMARK  4 active torsions:
REMARK  status: ('A' for Active; 'I' for Inactive)
REMARK    1  A    between atoms: C_5  and  N_6 
REMARK       I    between atoms: N_6  and  C_7 
REMARK       I    between atoms: C_7  and  N_9 
REMARK    2  A    between atoms: N_9  and  N_10 
REMARK    3  A    between atoms: C_11  and  C_12 
REMARK    4  A    between atoms: C_18  and  O_19 
ROOT
ATOM      1  N   UNL d   1      -3.321   0.158  -0.036  0.00  0.00    -0.308 N 
ATOM      2  C   UNL d   1      -4.050   1.351  -0.057  0.00  0.00     0.341 C 
ATOM      3  O   UNL d   1      -3.536   2.474  -0.052  0.00  0.00    -0.245 OA
ATOM      4  N   UNL d   1      -5.443   1.224  -0.082  0.00  0.00    -0.229 N 
ATOM      5  H   UNL d   1      -3.822  -0.717  -0.052  0.00  0.00     0.170 HD
ATOM      6  H   UNL d   1      -5.934   0.344  -0.099  0.00  0.00     0.194 HD
ENDROOT
BRANCH   4   7
ATOM      7  N   UNL d   1      -6.146   2.410  -0.102  0.00  0.00    -0.182 NA
ATOM      8  C   UNL d   1      -7.437   2.471  -0.130  0.00  0.00     0.153 C 
BRANCH   8   9
ATOM      9  C   UNL d   1      -8.164   3.793  -0.159  0.00  0.00     0.017 A 
ATOM     10  C   UNL d   1      -9.569   3.804  -0.177  0.00  0.00     0.034 A 
ATOM     11  C   UNL d   1     -10.264   5.024  -0.219  0.00  0.00     0.011 A 
ATOM     12 BR   UNL d   1     -12.159   5.040  -0.243  0.00  0.00    -0.051 Br
ATOM     13  C   UNL d   1      -9.582   6.239  -0.244  0.00  0.00     0.022 A 
ATOM     14  C   UNL d   1      -8.189   6.241  -0.217  0.00  0.00     0.039 A 
ATOM     15  C   UNL d   1      -7.489   5.029  -0.175  0.00  0.00     0.077 A 
BRANCH  15  16
ATOM     16  O   UNL d   1      -6.127   5.067  -0.152  0.00  0.00    -0.360 OA
ATOM     17  H   UNL d   1      -5.780   5.969  -0.178  0.00  0.00     0.217 HD
ENDBRANCH  15  16
ENDBRANCH   8   9
ENDBRANCH   4   7
BRANCH   1  18
ATOM     18  C   UNL d   1      -1.882   0.087  -0.011  0.00  0.00     0.036 A 
ATOM     19  C   UNL d   1      -1.209  -1.146  -0.004  0.00  0.00     0.030 A 
ATOM     20  C   UNL d   1       0.209  -1.203   0.003  0.00  0.00     0.009 A 
ATOM     21  C   UNL d   1       0.978  -0.033   0.002  0.00  0.00    -0.062 A 
ATOM     22  C   UNL d   1       2.478  -0.032  -0.013  0.00  0.00     0.048 C 
ATOM     23  C   UNL d   1       0.313   1.185   0.006  0.00  0.00     0.009 A 
ATOM     24  C   UNL d   1      -1.082   1.235   0.003  0.00  0.00     0.030 A 
ENDBRANCH   1  18
TORSDOF 4
