@<TRIPOS>MOLECULE
*****
 61 64 0 0 0
SMALL
GASTEIGER

@<TRIPOS>ATOM
      1 CD1         7.3269   -3.7770   -0.4934 C.3     1  LEU1       -0.0626
      2 CG          6.8541   -4.1303   -1.9070 C.3     1  LEU1       -0.0447
      3 CD2         5.3258   -4.1430   -1.9346 C.3     1  LEU1       -0.0626
      4 CB          7.3836   -3.1312   -2.9519 C.3     1  LEU1       -0.0269
      5 CA          8.9137   -3.0938   -3.0274 C.3     1  LEU1        0.0629
      6 N           9.3580   -1.6836   -3.0758 N.am    1  LEU1       -0.3058
      7 C          10.6471   -1.3999   -2.6886 C.2     0  UNK0        0.2345
      8 O          11.4076   -2.2852   -2.2919 O.2     0  UNK0       -0.2737
      9 C          11.0965    0.0902   -2.8178 C.3     0  UNK0        0.1103
     10 C          12.6245    0.1506   -2.5204 C.3     0  UNK0        0.0017
     11 C          12.9119   -0.0749   -1.0660 C.ar    0  UNK0       -0.0201
     12 C          11.9808   -0.4422   -0.1211 C.ar    0  UNK0        0.0060
     13 N          12.5520   -0.5512    1.0926 N.ar    0  UNK0       -0.3604
     14 C          13.8864   -0.2975    0.9726 C.ar    0  UNK0        0.0467
     15 C          14.8626   -0.3032    1.9591 C.ar    0  UNK0       -0.0378
     16 C          16.1599   -0.0004    1.5556 C.ar    0  UNK0       -0.0598
     17 C          16.4649    0.2570    0.2176 C.ar    0  UNK0       -0.0611
     18 C          15.4720    0.2372   -0.7648 C.ar    0  UNK0       -0.0523
     19 C          14.1493   -0.0202   -0.3741 C.ar    0  UNK0        0.0029
     20 N          10.3277    1.1559   -2.0823 N.am    0  UNK0       -0.2445
     21 C           9.2017    0.9539   -1.3020 C.2     0  UNK0        0.2521
     22 O           8.9813    0.0387   -0.5077 O.2     0  UNK0       -0.2698
     23 C           8.1498    1.9734   -1.4692 C.ar    0  UNK0        0.0579
     24 C           6.8901    1.7918   -0.8959 C.ar    0  UNK0       -0.0478
     25 C           5.8868    2.7094   -1.1750 C.ar    0  UNK0       -0.0609
     26 C           6.1530    3.7939   -2.0134 C.ar    0  UNK0       -0.0600
     27 C           7.4232    3.9728   -2.5678 C.ar    0  UNK0       -0.0400
     28 C           8.4378    3.0620   -2.3024 C.ar    0  UNK0        0.0424
     29 N           9.7296    3.3071   -2.7251 N.pl3   0  UNK0       -0.3031
     30 C          10.7807    2.5069   -2.1985 C.3     0  UNK0        0.1965
     31 O          11.1336    3.0168   -0.9328 O.3     0  UNK0       -0.3588
     32 C           9.4168   -4.0445   -4.1653 C.2     1  LEU1        0.0620
     33 O          10.0788   -3.4931   -5.0948 O.co2   1  LEU1       -0.5479
     34 OXT         9.0569   -5.2557   -4.0529 O.co2   1  LEU1       -0.5479
     35 HD11        6.9339   -4.4920    0.2348 H       1  LEU1        0.0232
     36 HD12        6.9934   -2.7726   -0.2125 H       1  LEU1        0.0232
     37 HD13        8.4149   -3.8028   -0.3948 H       1  LEU1        0.0232
     38 HG          7.2080   -5.1376   -2.1568 H       1  LEU1        0.0296
     39 HD21        4.9213   -3.1580   -1.6763 H       1  LEU1        0.0232
     40 HD22        4.9344   -4.8691   -1.2150 H       1  LEU1        0.0232
     41 HD23        4.9518   -4.4147   -2.9269 H       1  LEU1        0.0232
     42 HB1         6.9932   -2.1353   -2.7010 H       1  LEU1        0.0289
     43 HB2         6.9684   -3.3745   -3.9392 H       1  LEU1        0.0289
     44 HA          9.3623   -3.5102   -2.1210 H       1  LEU1        0.0560
     45 H           8.9126   -1.0865   -3.7538 H       1  LEU1        0.1494
     46 H          10.9596    0.3400   -3.8812 H       0  UNK0        0.0601
     47 H          13.1620   -0.5822   -3.1384 H       0  UNK0        0.0337
     48 H          13.0418    1.1214   -2.8153 H       0  UNK0        0.0337
     49 H          10.9429   -0.6891   -0.2119 H       0  UNK0        0.0810
     50 H          12.0457   -0.8113    1.9255 H       0  UNK0        0.1653
     51 H          14.6104   -0.5237    2.9892 H       0  UNK0        0.0638
     52 H          16.9431    0.0309    2.3044 H       0  UNK0        0.0618
     53 H          17.4866    0.4801   -0.0697 H       0  UNK0        0.0618
     54 H          15.7104    0.4208   -1.8074 H       0  UNK0        0.0624
     55 H           6.6966    0.9317   -0.2576 H       0  UNK0        0.0626
     56 H           4.8974    2.5710   -0.7495 H       0  UNK0        0.0618
     57 H           5.3702    4.5136   -2.2302 H       0  UNK0        0.0618
     58 H           7.6247    4.8372   -3.1928 H       0  UNK0        0.0636
     59 H           9.9181    3.8373   -3.5604 H       0  UNK0        0.1501
     60 H          11.6631    2.5965   -2.8309 H       0  UNK0        0.1036
     61 H          10.3289    2.9528   -0.3982 H       0  UNK0        0.2134
@<TRIPOS>UNITY_ATOM_ATTR
34 1
charge -1
@<TRIPOS>BOND
     1     1     2    1
     2     2     3    1
     3     2     4    1
     4     6     7   am
     5     7     8    2
     6    10    11    1
     7    11    12   ar
     8    12    13   ar
     9    13    14   ar
    10    14    15   ar
    11    15    16   ar
    12    16    17   ar
    13    17    18   ar
    14    18    19   ar
    15    11    19   ar
    16    14    19   ar
    17     9    20    1
    18    20    21   am
    19    21    22    2
    20    21    23    1
    21    23    24   ar
    22    24    25   ar
    23    25    26   ar
    24    26    27   ar
    25    27    28   ar
    26    23    28   ar
    27    28    29    1
    28    29    30    1
    29    20    30    1
    30     5    32    1
    31    32    33   ar
    32    32    34   ar
    33    30    31    1
    34     9    10    1
    35     9     7    1
    36     5     6    1
    37     5     4    1
    38     1    35    1
    39     1    36    1
    40     1    37    1
    41     2    38    1
    42     3    39    1
    43     3    40    1
    44     3    41    1
    45     4    42    1
    46     4    43    1
    47     5    44    1
    48     6    45    1
    49     9    46    1
    50    10    47    1
    51    10    48    1
    52    12    49    1
    53    13    50    1
    54    15    51    1
    55    16    52    1
    56    17    53    1
    57    18    54    1
    58    24    55    1
    59    25    56    1
    60    26    57    1
    61    27    58    1
    62    29    59    1
    63    30    60    1
    64    31    61    1
