@<TRIPOS>MOLECULE
*****
 35 36 0 0 0
SMALL
GASTEIGER

@<TRIPOS>ATOM
      1 C           3.0037   -1.2321   -0.6578 C.3     1  UNL1       -0.0381
      2 C           2.5019    0.0795   -0.0593 C.3     1  UNL1        0.0972
      3 N           1.0275    0.0289    0.0530 N.am    1  UNL1       -0.3003
      4 C           0.3427    0.8566    0.9264 C.2     1  UNL1        0.2447
      5 O           0.9064    1.6055    1.7244 O.2     1  UNL1       -0.2702
      6 C          -1.1526    0.7949    0.8962 C.ar    1  UNL1        0.0368
      7 C          -1.8037   -0.4359    0.7405 C.ar    1  UNL1       -0.0483
      8 C          -3.2007   -0.5137    0.8136 C.ar    1  UNL1       -0.0427
      9 C          -3.9547    0.6375    1.0364 C.ar    1  UNL1        0.0410
     10 CL         -5.6709    0.5285    1.1207 Cl      1  UNL1       -0.0835
     11 C          -3.3219    1.8687    1.1993 C.ar    1  UNL1       -0.0427
     12 C          -1.9211    1.9473    1.1352 C.ar    1  UNL1       -0.0483
     13 C           2.9549    1.2812   -0.9315 C.2     1  UNL1        0.2373
     14 O           2.1200    1.9812   -1.5106 O.2     1  UNL1       -0.2734
     15 N           4.3370    1.4741   -1.0672 N.am    1  UNL1       -0.2827
     16 C           4.8269    2.5554   -1.8443 C.ar    1  UNL1        0.0517
     17 C           4.2729    3.8239   -1.6840 C.ar    1  UNL1       -0.0376
     18 C           4.6643    4.8720   -2.5072 C.ar    1  UNL1       -0.0418
     19 C           5.6242    4.6205   -3.4696 C.ar    1  UNL1        0.0277
     20 N           6.2316    3.4210   -3.6264 N.ar    1  UNL1       -0.2614
     21 C           5.8283    2.4162   -2.8020 C.ar    1  UNL1        0.0487
     22 H           4.0969   -1.2766   -0.6766 H       1  UNL1        0.0252
     23 H           2.6514   -1.3574   -1.6888 H       1  UNL1        0.0252
     24 H           2.6433   -2.0889   -0.0783 H       1  UNL1        0.0252
     25 H           2.9117    0.2154    0.9474 H       1  UNL1        0.0592
     26 H           0.5140   -0.3242   -0.7464 H       1  UNL1        0.1498
     27 H          -1.2311   -1.3492    0.6103 H       1  UNL1        0.0625
     28 H          -3.6929   -1.4781    0.7160 H       1  UNL1        0.0632
     29 H          -3.9118    2.7633    1.3899 H       1  UNL1        0.0632
     30 H          -1.4362    2.9111    1.2812 H       1  UNL1        0.0625
     31 H           4.9790    0.7239   -0.8425 H       1  UNL1        0.1549
     32 H           3.5267    3.9996   -0.9139 H       1  UNL1        0.0637
     33 H           4.2116    5.8504   -2.4002 H       1  UNL1        0.0633
     34 H           5.9342    5.4034   -4.1570 H       1  UNL1        0.0829
     35 H           6.3102    1.4651   -3.0078 H       1  UNL1        0.0848
@<TRIPOS>BOND
     1     3     4   am
     2     4     5    2
     3     4     6    1
     4     6     7   ar
     5     7     8   ar
     6     8     9   ar
     7     9    10    1
     8     9    11   ar
     9    11    12   ar
    10     6    12   ar
    11     2    13    1
    12    13    14    2
    13    13    15   am
    14    15    16    1
    15    16    17   ar
    16    17    18   ar
    17    18    19   ar
    18    19    20   ar
    19    20    21   ar
    20    16    21   ar
    21     2     3    1
    22     2     1    1
    23     1    22    1
    24     1    23    1
    25     1    24    1
    26     2    25    1
    27     3    26    1
    28     7    27    1
    29     8    28    1
    30    11    29    1
    31    12    30    1
    32    15    31    1
    33    17    32    1
    34    18    33    1
    35    19    34    1
    36    21    35    1
