@<TRIPOS>MOLECULE
*****
 53 54 0 0 0
SMALL
GASTEIGER

@<TRIPOS>ATOM
      1 C           0.7520   -0.1887   -0.1553 C.3     1  UNL1       -0.0585
      2 C           2.2839   -0.0998   -0.1021 C.3     1  UNL1       -0.0181
      3 C           2.4427    0.9839    0.9400 C.3     1  UNL1       -0.0585
      4 C           3.0193   -1.4245    0.1948 C.ar    1  UNL1       -0.0031
      5 C           2.3821   -2.5739   -0.3772 C.ar    1  UNL1       -0.0549
      6 C           2.7494   -3.8837   -0.0748 C.ar    1  UNL1       -0.0613
      7 C           3.8483   -4.0981    0.7301 C.ar    1  UNL1       -0.0583
      8 C           4.5661   -3.0017    1.2172 C.ar    1  UNL1       -0.0196
      9 C           4.2088   -1.6570    0.9471 C.ar    1  UNL1        0.1246
     10 O           5.1830   -0.8295    1.4984 O.3     1  UNL1       -0.4824
     11 C           5.1152    0.5657    1.3828 C.3     1  UNL1        0.1666
     12 C           5.9986    1.7226    1.9437 C.2     1  UNL1        0.2667
     13 O           6.9690    1.5416    2.6680 O.2     1  UNL1       -0.2705
     14 N           5.5359    3.0236    1.6519 N.am    1  UNL1       -0.2323
     15 N           6.2352    4.1423    2.2454 N.am    1  UNL1       -0.2454
     16 C           5.8634    5.4715    1.9788 C.2     1  UNL1        0.1533
     17 S           4.5101    5.7933    1.0289 S.2     1  UNL1       -0.0170
     18 N           6.7145    6.4453    2.5695 N.am    1  UNL1       -0.2632
     19 C           6.5842    7.8464    2.4627 C.2     1  UNL1        0.2424
     20 O           5.7199    8.4145    1.8159 O.2     1  UNL1       -0.2704
     21 C           7.5969    8.7048    3.1827 C.2     1  UNL1        0.0011
     22 C           7.4748   10.0528    3.1008 C.2     1  UNL1       -0.0497
     23 C           8.4291   11.0489    3.6378 C.ar    1  UNL1       -0.0245
     24 C           8.0035   12.2805    4.1742 C.ar    1  UNL1       -0.0482
     25 C           8.9362   13.2631    4.5591 C.ar    1  UNL1        0.0161
     26 C          10.3059   12.9887    4.4609 C.ar    1  UNL1        0.2732
     27 N          11.2948   13.9437    4.9827 N.pl3   1  UNL1        0.0796
     28 O          10.8781   14.9966    5.4803 O.2     1  UNL1        0.0414
     29 O          12.4928   13.6222    4.9170 O.co2   1  UNL1       -0.5760
     30 C          10.7410   11.7790    3.9131 C.ar    1  UNL1        0.0161
     31 C           9.8044   10.8282    3.4959 C.ar    1  UNL1       -0.0482
     32 H           0.3331    0.8190   -0.2770 H       1  UNL1        0.0235
     33 H           0.3714   -0.5921    0.7915 H       1  UNL1        0.0235
     34 H           0.3700   -0.7811   -0.9839 H       1  UNL1        0.0235
     35 H           2.6633    0.2604   -1.0678 H       1  UNL1        0.0345
     36 H           2.4481    0.5295    1.9402 H       1  UNL1        0.0235
     37 H           1.7205    1.7992    0.9746 H       1  UNL1        0.0235
     38 H           3.3112    1.5481    0.6379 H       1  UNL1        0.0235
     39 H           1.5528   -2.4670   -1.0762 H       1  UNL1        0.0622
     40 H           2.1661   -4.7205   -0.4542 H       1  UNL1        0.0618
     41 H           4.1648   -5.1114    0.9610 H       1  UNL1        0.0619
     42 H           5.4358   -3.1997    1.8422 H       1  UNL1        0.0654
     43 H           4.2945    0.7828    2.0542 H       1  UNL1        0.0795
     44 H           5.0147    0.7872    0.3132 H       1  UNL1        0.0795
     45 H           4.6724    3.2517    1.1500 H       1  UNL1        0.1729
     46 H           7.0163    3.8513    2.8283 H       1  UNL1        0.1718
     47 H           7.4872    6.0948    3.1151 H       1  UNL1        0.1568
     48 H           8.4101    8.2455    3.7256 H       1  UNL1        0.0670
     49 H           6.6481   10.4967    2.5398 H       1  UNL1        0.0625
     50 H           6.9433   12.4942    4.3128 H       1  UNL1        0.0626
     51 H           8.5849   14.2254    4.9309 H       1  UNL1        0.0685
     52 H          11.7995   11.5578    3.7958 H       1  UNL1        0.0685
     53 H          10.1651    9.9094    3.0422 H       1  UNL1        0.0626
@<TRIPOS>UNITY_ATOM_ATTR
27 1
charge 1
29 1
charge -1
@<TRIPOS>BOND
     1     1     2    1
     2     2     3    1
     3     2     4    1
     4     4     5   ar
     5     5     6   ar
     6     6     7   ar
     7     7     8   ar
     8     8     9   ar
     9     4     9   ar
    10     9    10    1
    11    10    11    1
    12    11    12    1
    13    12    13    2
    14    12    14   am
    15    14    15    1
    16    15    16    1
    17    16    17    2
    18    16    18    1
    19    18    19   am
    20    19    20    2
    21    19    21    1
    22    21    22    2
    23    22    23    1
    24    23    24   ar
    25    24    25   ar
    26    25    26   ar
    27    26    27    1
    28    27    28    2
    29    27    29    1
    30    26    30   ar
    31    30    31   ar
    32    23    31   ar
    33     1    32    1
    34     1    33    1
    35     1    34    1
    36     2    35    1
    37     3    36    1
    38     3    37    1
    39     3    38    1
    40     5    39    1
    41     6    40    1
    42     7    41    1
    43     8    42    1
    44    11    43    1
    45    11    44    1
    46    14    45    1
    47    15    46    1
    48    18    47    1
    49    21    48    1
    50    22    49    1
    51    24    50    1
    52    25    51    1
    53    30    52    1
    54    31    53    1
