@<TRIPOS>MOLECULE
*****
 53 56 0 0 0
SMALL
GASTEIGER

@<TRIPOS>ATOM
      1 C          -2.9521    1.2373   -0.0056 C.3     1  UNL1        0.0196
      2 N          -1.6449    0.5988   -0.0136 N.ar    1  UNL1       -0.2634
      3 C          -0.5186    1.4043   -0.0077 C.ar    1  UNL1        0.2656
      4 O          -0.5423    2.6326   -0.0093 O.2     1  UNL1       -0.2668
      5 C           0.7790    0.7191    0.0027 C.ar    1  UNL1        0.0821
      6 C           1.9696    1.4430    0.0510 C.ar    1  UNL1       -0.0437
      7 C           3.1763    0.7528    0.0523 C.ar    1  UNL1       -0.0303
      8 C           3.1550   -0.6384   -0.0144 C.ar    1  UNL1        0.1280
      9 C           4.4552   -1.3782   -0.0837 C.2     1  UNL1        0.2667
     10 O           5.4848   -0.7057   -0.1532 O.2     1  UNL1       -0.2682
     11 N           4.3977   -2.7741   -0.1566 N.am    1  UNL1       -0.2772
     12 C           5.5739   -3.5625   -0.1628 C.ar    1  UNL1        0.0775
     13 C           5.7136   -4.6417   -1.0686 C.ar    1  UNL1       -0.0105
     14 C           6.9563   -5.2814   -1.1813 C.ar    1  UNL1        0.1075
     15 S           7.2275   -6.6489   -2.3212 S.O2    1  UNL1        0.0609
     16 O           6.2814   -7.6857   -1.9446 O.2     1  UNL1       -0.1528
     17 O           7.2172   -6.0735   -3.6450 O.2     1  UNL1       -0.1528
     18 N           8.7913   -7.2893   -2.0506 N.3     1  UNL1       -0.1766
     19 C           9.1323   -8.0212   -0.8100 C.3     1  UNL1        0.0205
     20 C          10.1157   -7.1134   -0.0902 C.3     1  UNL1       -0.0373
     21 C          10.8790   -6.4403   -1.2375 C.3     1  UNL1       -0.0373
     22 C           9.9839   -6.5346   -2.4856 C.3     1  UNL1        0.0205
     23 C           8.0036   -4.7985   -0.4130 C.ar    1  UNL1       -0.0318
     24 C           7.8391   -3.8817    0.6124 C.ar    1  UNL1       -0.0165
     25 C           6.6212   -3.2537    0.7267 C.ar    1  UNL1        0.1381
     26 O           6.4367   -2.3614    1.7476 O.3     1  UNL1       -0.5049
     27 N           2.0060   -1.3571   -0.0505 N.ar    1  UNL1       -0.2241
     28 C           0.8306   -0.6659   -0.0270 C.ar    1  UNL1        0.1503
     29 N          -0.3715   -1.3938   -0.0201 N.ar    1  UNL1       -0.2808
     30 C          -0.3084   -2.8440    0.0341 C.3     1  UNL1        0.0181
     31 C          -1.6186   -0.7908    0.0008 C.ar    1  UNL1        0.3330
     32 O          -2.6557   -1.4573    0.0352 O.2     1  UNL1       -0.2462
     33 H          -2.8870    2.3289   -0.0136 H       1  UNL1        0.0458
     34 H          -3.4986    0.9239    0.8902 H       1  UNL1        0.0458
     35 H          -3.5156    0.9109   -0.8860 H       1  UNL1        0.0458
     36 H           1.9615    2.5306    0.0871 H       1  UNL1        0.0627
     37 H           4.1175    1.2935    0.0927 H       1  UNL1        0.0641
     38 H           3.5086   -3.2059   -0.3728 H       1  UNL1        0.1553
     39 H           4.9120   -4.9108   -1.7513 H       1  UNL1        0.0657
     40 H           9.6544   -8.9500   -1.0711 H       1  UNL1        0.0444
     41 H           8.2585   -8.2781   -0.2095 H       1  UNL1        0.0444
     42 H          10.7812   -7.6253    0.6067 H       1  UNL1        0.0278
     43 H           9.5738   -6.4200    0.5578 H       1  UNL1        0.0278
     44 H          11.8172   -6.9751   -1.4081 H       1  UNL1        0.0278
     45 H          11.1430   -5.3966   -1.0262 H       1  UNL1        0.0278
     46 H          10.5074   -7.0841   -3.2780 H       1  UNL1        0.0444
     47 H           9.7259   -5.5516   -2.8895 H       1  UNL1        0.0444
     48 H           9.0033   -5.0895   -0.6292 H       1  UNL1        0.0638
     49 H           8.6707   -3.6637    1.2745 H       1  UNL1        0.0655
     50 H           7.3016   -2.0318    2.0412 H       1  UNL1        0.2922
     51 H           0.7096   -3.2396   -0.0072 H       1  UNL1        0.0458
     52 H          -0.8711   -3.2566   -0.8082 H       1  UNL1        0.0458
     53 H          -0.7700   -3.1775    0.9686 H       1  UNL1        0.0458
@<TRIPOS>BOND
     1     1     2    1
     2     2     3   ar
     3     3     4    2
     4     3     5   ar
     5     5     6   ar
     6     6     7   ar
     7     7     8   ar
     8     8     9    1
     9     9    10    2
    10     9    11   am
    11    11    12    1
    12    12    13   ar
    13    13    14   ar
    14    14    15    1
    15    15    16    2
    16    15    17    2
    17    15    18    1
    18    18    19    1
    19    19    20    1
    20    20    21    1
    21    21    22    1
    22    18    22    1
    23    14    23   ar
    24    23    24   ar
    25    24    25   ar
    26    12    25   ar
    27    25    26    1
    28     8    27   ar
    29    27    28   ar
    30     5    28   ar
    31    28    29   ar
    32    29    30    1
    33    29    31   ar
    34     2    31   ar
    35    31    32    2
    36     1    33    1
    37     1    34    1
    38     1    35    1
    39     6    36    1
    40     7    37    1
    41    11    38    1
    42    13    39    1
    43    19    40    1
    44    19    41    1
    45    20    42    1
    46    20    43    1
    47    21    44    1
    48    21    45    1
    49    22    46    1
    50    22    47    1
    51    23    48    1
    52    24    49    1
    53    26    50    1
    54    30    51    1
    55    30    52    1
    56    30    53    1
