@<TRIPOS>MOLECULE
*****
 64 67 0 0 0
SMALL
GASTEIGER

@<TRIPOS>ATOM
      1 C           1.0588    0.0470    0.0134 C.3     1  UNL1       -0.0305
      2 C           2.5858    0.0311   -0.0359 C.3     1  UNL1        0.0913
      3 O           3.0583   -0.8507   -1.0860 O.3     1  UNL1       -0.4505
      4 C           4.4079   -1.0955   -1.1026 C.2     1  UNL1        0.4029
      5 O           5.1957   -0.5885   -0.3000 O.2     1  UNL1       -0.2263
      6 N           4.7835   -2.0351   -2.0464 N.am    1  UNL1       -0.2644
      7 C           5.9324   -2.9380   -1.8565 C.3     1  UNL1        0.0337
      8 C           5.5144   -4.3956   -2.1934 C.3     1  UNL1        0.0309
      9 N           4.8977   -4.4712   -3.5387 N.am    1  UNL1       -0.2945
     10 C           5.3440   -5.4082   -4.4743 C.2     1  UNL1        0.2468
     11 O           6.2376   -6.2194   -4.2398 O.2     1  UNL1       -0.2700
     12 C           4.7473   -5.4449   -5.8410 C.ar    1  UNL1        0.0388
     13 C           4.1724   -6.6339   -6.3202 C.ar    1  UNL1       -0.0478
     14 C           3.6418   -6.6975   -7.6180 C.ar    1  UNL1       -0.0383
     15 C           3.6923   -5.5819   -8.4502 C.ar    1  UNL1        0.0493
     16 C           4.2650   -4.3903   -7.9543 C.ar    1  UNL1        0.0552
     17 C           4.8231   -4.3267   -6.6775 C.ar    1  UNL1       -0.0266
     18 N           4.2621   -3.2479   -8.7731 N.am    1  UNL1       -0.2824
     19 C           3.4417   -3.1525   -9.8832 C.2     1  UNL1        0.2383
     20 O           3.4492   -2.1450  -10.5915 O.2     1  UNL1       -0.2734
     21 C           2.4211   -4.3167  -10.0637 C.3     1  UNL1        0.1067
     22 C           1.1158   -4.1750   -9.1909 C.3     1  UNL1        0.0209
     23 S           1.1228   -2.6845   -8.1427 S.3     1  UNL1       -0.1537
     24 C          -0.5857   -2.2779   -7.7664 C.3     1  UNL1        0.0191
     25 C          -0.9888   -0.8051   -7.9047 C.ar    1  UNL1       -0.0347
     26 C          -2.1429   -0.4043   -7.1885 C.ar    1  UNL1       -0.0575
     27 C          -2.6278    0.9084   -7.2462 C.ar    1  UNL1       -0.0615
     28 C          -1.9759    1.8586   -8.0191 C.ar    1  UNL1       -0.0615
     29 C          -0.8378    1.4988   -8.7261 C.ar    1  UNL1       -0.0586
     30 C          -0.3385    0.1833   -8.6903 C.ar    1  UNL1       -0.0465
     31 C           0.8988   -0.0541   -9.5118 C.3     1  UNL1       -0.0394
     32 N           3.0568   -5.5896   -9.6891 N.pl3   1  UNL1       -0.3309
     33 C           3.7653   -3.5459   -3.7098 C.3     1  UNL1        0.0309
     34 C           4.1941   -2.1087   -3.3824 C.3     1  UNL1        0.0337
     35 H           0.6934    0.7655    0.7582 H       1  UNL1        0.0262
     36 H           0.6579   -0.9383    0.2751 H       1  UNL1        0.0262
     37 H           0.6369    0.3200   -0.9586 H       1  UNL1        0.0262
     38 H           2.9624   -0.2847    0.9460 H       1  UNL1        0.0695
     39 H           2.9402    1.0450   -0.2478 H       1  UNL1        0.0695
     40 H           6.3174   -2.8678   -0.8340 H       1  UNL1        0.0481
     41 H           6.7250   -2.6250   -2.5474 H       1  UNL1        0.0481
     42 H           4.7451   -4.7203   -1.4790 H       1  UNL1        0.0480
     43 H           6.3611   -5.0827   -2.0975 H       1  UNL1        0.0480
     44 H           4.1257   -7.5151   -5.6841 H       1  UNL1        0.0626
     45 H           3.1443   -7.6031   -7.9571 H       1  UNL1        0.0637
     46 H           5.2767   -3.4091   -6.3200 H       1  UNL1        0.0644
     47 H           4.7833   -2.4200   -8.5238 H       1  UNL1        0.1549
     48 H           2.1657   -4.3507  -11.1317 H       1  UNL1        0.0602
     49 H           0.2272   -4.3390   -9.8151 H       1  UNL1        0.0399
     50 H           1.0881   -4.9732   -8.4405 H       1  UNL1        0.0399
     51 H          -0.5999   -2.5027   -6.6934 H       1  UNL1        0.0425
     52 H          -1.3195   -2.9302   -8.2514 H       1  UNL1        0.0425
     53 H          -2.6826   -1.1194   -6.5680 H       1  UNL1        0.0621
     54 H          -3.5170    1.1918   -6.6892 H       1  UNL1        0.0618
     55 H          -2.3450    2.8782   -8.0798 H       1  UNL1        0.0618
     56 H          -0.3265    2.2529   -9.3223 H       1  UNL1        0.0620
     57 H           1.2198    0.8288  -10.0714 H       1  UNL1        0.0278
     58 H           0.7053   -0.8411  -10.2465 H       1  UNL1        0.0278
     59 H           1.7411   -0.2837   -8.8542 H       1  UNL1        0.0278
     60 H           3.1087   -6.3715  -10.3267 H       1  UNL1        0.1469
     61 H           2.9896   -3.8642   -3.0047 H       1  UNL1        0.0480
     62 H           3.3413   -3.6008   -4.7107 H       1  UNL1        0.0480
     63 H           3.3746   -1.3980   -3.4989 H       1  UNL1        0.0481
     64 H           4.9910   -1.8095   -4.0803 H       1  UNL1        0.0481
@<TRIPOS>BOND
     1     1     2    1
     2     2     3    1
     3     3     4    1
     4     4     5    2
     5     4     6   am
     6     6     7    1
     7     7     8    1
     8     8     9    1
     9     9    10   am
    10    10    11    2
    11    10    12    1
    12    12    13   ar
    13    13    14   ar
    14    14    15   ar
    15    15    16   ar
    16    16    17   ar
    17    12    17   ar
    18    16    18    1
    19    18    19   am
    20    19    20    2
    21    19    21    1
    22    22    23    1
    23    23    24    1
    24    24    25    1
    25    25    26   ar
    26    26    27   ar
    27    27    28   ar
    28    28    29   ar
    29    29    30   ar
    30    25    30   ar
    31    30    31    1
    32    21    32    1
    33    15    32    1
    34     9    33    1
    35    33    34    1
    36     6    34    1
    37    21    22    1
    38     1    35    1
    39     1    36    1
    40     1    37    1
    41     2    38    1
    42     2    39    1
    43     7    40    1
    44     7    41    1
    45     8    42    1
    46     8    43    1
    47    13    44    1
    48    14    45    1
    49    17    46    1
    50    18    47    1
    51    21    48    1
    52    22    49    1
    53    22    50    1
    54    24    51    1
    55    24    52    1
    56    26    53    1
    57    27    54    1
    58    28    55    1
    59    29    56    1
    60    31    57    1
    61    31    58    1
    62    31    59    1
    63    32    60    1
    64    33    61    1
    65    33    62    1
    66    34    63    1
    67    34    64    1
