@<TRIPOS>MOLECULE
*****
 52 53 0 0 0
SMALL
GASTEIGER

@<TRIPOS>ATOM
      1 O           1.0633    0.1164   -0.1459 O.2     1  UNL1       -0.1552
      2 S           2.5083   -0.0019   -0.0221 S.O2    1  UNL1        0.0432
      3 O           3.1250   -0.1043    1.2782 O.2     1  UNL1       -0.1552
      4 C           2.9979   -1.4178   -0.9918 C.3     1  UNL1        0.0848
      5 C           2.4844   -2.7474   -0.4914 C.3     1  UNL1       -0.0318
      6 C           3.0493   -3.8791   -1.3591 C.3     1  UNL1       -0.0515
      7 C           2.5787   -5.2230   -0.8150 C.3     1  UNL1       -0.0515
      8 C           3.0845   -6.3770   -1.6666 C.3     1  UNL1       -0.0318
      9 C           2.5969   -7.7336   -1.1399 C.3     1  UNL1        0.0848
     10 S           3.2618   -9.0342   -2.1844 S.O2    1  UNL1        0.0432
     11 O           2.5883   -8.9386   -3.4625 O.2     1  UNL1       -0.1552
     12 O           4.6997   -8.8887   -2.0872 O.2     1  UNL1       -0.1552
     13 N           2.7665  -10.4658   -1.4273 N.pl3   1  UNL1       -0.2171
     14 C           2.9889  -11.7117   -2.1282 C.ar    1  UNL1        0.0890
     15 C           1.9239  -12.5812   -2.4001 C.ar    1  UNL1       -0.0358
     16 C           2.1488  -13.7848   -3.0926 C.ar    1  UNL1       -0.0597
     17 C           3.4334  -14.1260   -3.5186 C.ar    1  UNL1       -0.0582
     18 C           4.5025  -13.2837   -3.2285 C.ar    1  UNL1       -0.0183
     19 C           4.2776  -12.1050   -2.5173 C.ar    1  UNL1        0.1391
     20 O           5.3523  -11.3769   -2.0985 O.3     1  UNL1       -0.5049
     21 N           3.1230    1.3416   -0.8285 N.pl3   1  UNL1       -0.2171
     22 C           4.5214    1.6531   -0.8725 C.ar    1  UNL1        0.0890
     23 C           5.0056    2.8890   -0.4285 C.ar    1  UNL1       -0.0358
     24 C           6.3774    3.1894   -0.5365 C.ar    1  UNL1       -0.0597
     25 C           7.2743    2.2498   -1.0481 C.ar    1  UNL1       -0.0582
     26 C           6.8008    1.0317   -1.5055 C.ar    1  UNL1       -0.0183
     27 C           5.4340    0.7822   -1.4769 C.ar    1  UNL1        0.1391
     28 O           4.9967   -0.2681   -2.2311 O.3     1  UNL1       -0.5049
     29 H           4.0709   -1.5102   -0.8493 H       1  UNL1        0.0518
     30 H           2.7151   -1.2477   -2.0357 H       1  UNL1        0.0518
     31 H           1.3918   -2.7688   -0.4882 H       1  UNL1        0.0281
     32 H           2.8260   -2.8884    0.5409 H       1  UNL1        0.0281
     33 H           4.1486   -3.8462   -1.3669 H       1  UNL1        0.0266
     34 H           2.7278   -3.7545   -2.4014 H       1  UNL1        0.0266
     35 H           1.4842   -5.2353   -0.7893 H       1  UNL1        0.0266
     36 H           2.9374   -5.3395    0.2146 H       1  UNL1        0.0266
     37 H           4.1821   -6.3543   -1.6869 H       1  UNL1        0.0281
     38 H           2.7555   -6.2412   -2.7043 H       1  UNL1        0.0281
     39 H           1.5050   -7.7892   -1.1537 H       1  UNL1        0.0518
     40 H           2.9658   -7.8957   -0.1222 H       1  UNL1        0.0518
     41 H           2.0012  -10.4353   -0.7611 H       1  UNL1        0.1734
     42 H           0.9105  -12.3486   -2.0868 H       1  UNL1        0.0638
     43 H           1.3221  -14.4602   -3.3073 H       1  UNL1        0.0618
     44 H           3.6067  -15.0552   -4.0576 H       1  UNL1        0.0619
     45 H           5.5068  -13.5676   -3.5269 H       1  UNL1        0.0655
     46 H           6.1157  -11.5371   -2.6715 H       1  UNL1        0.2922
     47 H           2.4456    2.0854   -0.9835 H       1  UNL1        0.1734
     48 H           4.3404    3.6490   -0.0262 H       1  UNL1        0.0638
     49 H           6.7552    4.1639   -0.2328 H       1  UNL1        0.0618
     50 H           8.3324    2.4788   -1.1424 H       1  UNL1        0.0619
     51 H           7.4777    0.3143   -1.9573 H       1  UNL1        0.0655
     52 H           5.6534   -0.9804   -2.1519 H       1  UNL1        0.2922
@<TRIPOS>BOND
     1     1     2    2
     2     2     3    2
     3     2     4    1
     4     4     5    1
     5     5     6    1
     6     6     7    1
     7     7     8    1
     8     8     9    1
     9     9    10    1
    10    10    11    2
    11    10    12    2
    12    10    13    1
    13    13    14    1
    14    14    15   ar
    15    15    16   ar
    16    16    17   ar
    17    17    18   ar
    18    18    19   ar
    19    14    19   ar
    20    19    20    1
    21     2    21    1
    22    21    22    1
    23    22    23   ar
    24    23    24   ar
    25    24    25   ar
    26    25    26   ar
    27    26    27   ar
    28    22    27   ar
    29    27    28    1
    30     4    29    1
    31     4    30    1
    32     5    31    1
    33     5    32    1
    34     6    33    1
    35     6    34    1
    36     7    35    1
    37     7    36    1
    38     8    37    1
    39     8    38    1
    40     9    39    1
    41     9    40    1
    42    13    41    1
    43    15    42    1
    44    16    43    1
    45    17    44    1
    46    18    45    1
    47    20    46    1
    48    21    47    1
    49    23    48    1
    50    24    49    1
    51    25    50    1
    52    26    51    1
    53    28    52    1
