@<TRIPOS>MOLECULE
*****
 53 56 0 0 0
SMALL
GASTEIGER

@<TRIPOS>ATOM
      1 C           1.0112    0.8193   -0.8626 C.3     1  UNL1        0.0791
      2 O           2.3595    0.4807   -0.5549 O.3     1  UNL1       -0.4890
      3 C           3.1667    1.2667    0.1693 C.ar    1  UNL1        0.1913
      4 C           4.3761    1.5908   -0.4219 C.ar    1  UNL1       -0.0134
      5 C           5.1703    2.5786    0.1388 C.ar    1  UNL1       -0.0579
      6 C           4.7105    3.2740    1.2551 C.ar    1  UNL1       -0.0553
      7 C           3.5533    2.8440    1.9178 C.ar    1  UNL1        0.0135
      8 C           2.8575    1.7271    1.4232 C.ar    1  UNL1        0.2509
      9 N           1.7541    1.2215    2.1107 N.2     1  UNL1       -0.1692
     10 C           1.0952    0.1089    1.9962 C.ar    1  UNL1        0.3881
     11 O           1.6102   -0.9518    1.2013 O.2     1  UNL1       -0.4015
     12 C           0.7452   -1.7771    0.3547 C.ar    1  UNL1        0.1629
     13 C           1.1170   -2.2993   -0.9300 C.ar    1  UNL1        0.0811
     14 C           2.2870   -1.9177   -1.8280 C.3     1  UNL1       -0.0188
     15 N           0.2298   -3.0457   -1.6398 N.ar    1  UNL1       -0.2561
     16 C          -0.9917   -3.2851   -1.1207 C.ar    1  UNL1        0.0340
     17 C          -1.4730   -2.7161    0.0620 C.ar    1  UNL1        0.0066
     18 C          -2.8375   -3.1872    0.5103 C.3     1  UNL1        0.0713
     19 O          -3.2975   -2.6247    1.7221 O.3     1  UNL1       -0.3903
     20 C          -0.6003   -1.8613    0.7682 C.ar    1  UNL1        0.0271
     21 C          -1.0466   -0.9385    1.8347 C.ar    1  UNL1       -0.0287
     22 C          -0.2871   -0.0277    2.4712 C.ar    1  UNL1        0.1490
     23 C          -1.0335    0.8426    3.4659 C.2     1  UNL1        0.2581
     24 O          -2.2069    0.6423    3.6884 O.2     1  UNL1       -0.2695
     25 N          -0.3433    1.8917    4.0577 N.am    1  UNL1       -0.2800
     26 C          -0.7362    2.5115    5.2574 C.ar    1  UNL1        0.0521
     27 C          -0.3771    3.8699    5.3700 C.ar    1  UNL1       -0.0390
     28 C          -0.4701    4.5109    6.5976 C.ar    1  UNL1       -0.0599
     29 C          -0.9703    3.8138    7.6930 C.ar    1  UNL1       -0.0603
     30 C          -1.3160    2.4655    7.5839 C.ar    1  UNL1       -0.0416
     31 C          -1.1852    1.7981    6.3751 C.ar    1  UNL1        0.0621
     32 CL         -1.3509    0.0757    6.4272 Cl      1  UNL1       -0.0816
     33 H           0.6542    0.0253   -1.5151 H       1  UNL1        0.0660
     34 H           0.9273    1.7511   -1.3889 H       1  UNL1        0.0660
     35 H           0.3142    0.7983   -0.0245 H       1  UNL1        0.0660
     36 H           4.6648    1.0954   -1.3459 H       1  UNL1        0.0656
     37 H           6.1199    2.8303   -0.3284 H       1  UNL1        0.0619
     38 H           5.2754    4.1357    1.6098 H       1  UNL1        0.0620
     39 H           3.2493    3.4012    2.8040 H       1  UNL1        0.0684
     40 H           1.3060    2.0155    2.5341 H       1  UNL1        0.4568
     41 H           2.9417   -1.1267   -1.5021 H       1  UNL1        0.0294
     42 H           1.9032   -1.5527   -2.8023 H       1  UNL1        0.0294
     43 H           2.9683   -2.7435   -2.0214 H       1  UNL1        0.0294
     44 H          -1.5892   -3.9869   -1.7070 H       1  UNL1        0.0833
     45 H          -2.7705   -4.2647    0.6902 H       1  UNL1        0.0608
     46 H          -3.5997   -3.0046   -0.2547 H       1  UNL1        0.0608
     47 H          -2.6316   -2.8278    2.4020 H       1  UNL1        0.2098
     48 H          -2.1123   -0.8997    2.0398 H       1  UNL1        0.0635
     49 H           0.5784    2.2104    3.9004 H       1  UNL1        0.1552
     50 H          -0.0412    4.4480    4.5094 H       1  UNL1        0.0637
     51 H          -0.1536    5.5464    6.7075 H       1  UNL1        0.0618
     52 H          -1.0857    4.3151    8.6491 H       1  UNL1        0.0618
     53 H          -1.6427    1.9160    8.4614 H       1  UNL1        0.0633
@<TRIPOS>UNITY_ATOM_ATTR
9 1
charge 1
@<TRIPOS>BOND
     1     1     2    1
     2     2     3    1
     3     3     4   ar
     4     4     5   ar
     5     5     6   ar
     6     6     7   ar
     7     7     8   ar
     8     3     8   ar
     9     8     9    1
    10     9    10    2
    11    10    11   ar
    12    11    12   ar
    13    12    13   ar
    14    13    14    1
    15    13    15   ar
    16    15    16   ar
    17    16    17   ar
    18    17    18    1
    19    18    19    1
    20    17    20   ar
    21    12    20   ar
    22    20    21   ar
    23    21    22   ar
    24    10    22   ar
    25    22    23    1
    26    23    24    2
    27    23    25   am
    28    25    26    1
    29    26    27   ar
    30    27    28   ar
    31    28    29   ar
    32    29    30   ar
    33    30    31   ar
    34    26    31   ar
    35    31    32    1
    36     1    33    1
    37     1    34    1
    38     1    35    1
    39     4    36    1
    40     5    37    1
    41     6    38    1
    42     7    39    1
    43     9    40    1
    44    14    41    1
    45    14    42    1
    46    14    43    1
    47    16    44    1
    48    18    45    1
    49    18    46    1
    50    19    47    1
    51    21    48    1
    52    25    49    1
    53    27    50    1
    54    28    51    1
    55    29    52    1
    56    30    53    1
