REMARK  7 active torsions:
REMARK  status: ('A' for Active; 'I' for Inactive)
REMARK    1  A    between atoms: C_2  and  O_3 
REMARK    2  A    between atoms: O_3  and  C_4 
REMARK    3  A    between atoms: C_7  and  C_8 
REMARK       I    between atoms: C_8  and  N_10 
REMARK    4  A    between atoms: N_10  and  N_11 
REMARK       I    between atoms: N_11  and  C_12 
REMARK    5  A    between atoms: C_12  and  C_14 
REMARK    6  A    between atoms: C_14  and  C_15 
REMARK    7  A    between atoms: C_15  and  C_16 
ROOT
ATOM      1  N   UNL d   1      11.082  -2.097   0.436  0.00  0.00    -0.267 N 
ATOM      2  C   UNL d   1      11.880  -1.622   1.531  0.00  0.00     0.236 C 
ATOM      3  O   UNL d   1      11.318  -0.948   2.412  0.00  0.00    -0.272 OA
ATOM      4  H   UNL d   1      11.406  -2.601  -0.390  0.00  0.00     0.190 HD
ENDROOT
BRANCH   1   5
ATOM      5  N   UNL d   1       9.576  -1.867   0.429  0.00  0.00    -0.263 N 
ATOM      6  C   UNL d   1       8.723  -2.360  -0.585  0.00  0.00     0.270 C 
ATOM      7  O   UNL d   1       9.168  -3.009  -1.552  0.00  0.00    -0.266 OA
ATOM      8  H   UNL d   1       9.237  -1.319   1.215  0.00  0.00     0.190 HD
BRANCH   6   9
ATOM      9  C   UNL d   1       7.208  -2.073  -0.536  0.00  0.00     0.033 A 
ATOM     10  C   UNL d   1       6.345  -2.502  -1.576  0.00  0.00     0.020 A 
ATOM     11  C   UNL d   1       4.972  -2.146  -1.608  0.00  0.00     0.038 A 
ATOM     12  C   UNL d   1       4.405  -1.402  -0.573  0.00  0.00     0.068 A 
ATOM     13  C   UNL d   1       5.227  -1.025   0.486  0.00  0.00     0.038 A 
ATOM     14  C   UNL d   1       6.606  -1.351   0.503  0.00  0.00     0.020 A 
BRANCH  12  15
ATOM     15  O   UNL d   1       3.050  -1.190  -0.627  0.00  0.00    -0.352 OA
BRANCH  15  16
ATOM     16  C   UNL d   1       2.577   0.057  -0.102  0.00  0.00     0.171 C 
ATOM     17  C   UNL d   1       1.053   0.056  -0.093  0.00  0.00     0.034 C 
ENDBRANCH  15  16
ENDBRANCH  12  15
ENDBRANCH   6   9
ENDBRANCH   1   5
BRANCH   2  18
ATOM     18  C   UNL d   1      13.537  -1.928   1.648  0.00  0.00     0.109 C 
BRANCH  18  19
ATOM     19  C   UNL d   1      14.319  -1.468   3.200  0.00  0.00     0.046 C 
BRANCH  19  20
ATOM     20  C   UNL d   1      16.029  -1.350   3.732  0.00  0.00    -0.048 C 
ATOM     21  C   UNL d   1      16.465  -0.191   3.088  0.00  0.00     0.112 C 
ATOM     22  N   UNL d   1      17.678  -0.721   2.711  0.00  0.00    -0.282 NA
ATOM     23  C   UNL d   1      18.369  -0.699   3.882  0.00  0.00     0.019 A 
ATOM     24  H   UNL d   1      17.805  -1.552   2.171  0.00  0.00     0.128 HD
ATOM     25  C   UNL d   1      19.719  -0.260   3.973  0.00  0.00     0.024 A 
ATOM     26  C   UNL d   1      17.419  -1.123   4.816  0.00  0.00    -0.011 A 
ATOM     27  C   UNL d   1      20.407  -0.128   5.140  0.00  0.00     0.002 A 
ATOM     28  C   UNL d   1      19.660  -0.457   6.236  0.00  0.00     0.001 A 
ATOM     29  C   UNL d   1      18.194  -0.992   6.134  0.00  0.00     0.013 A 
ENDBRANCH  19  20
ENDBRANCH  18  19
ENDBRANCH   2  18
TORSDOF 7
