@<TRIPOS>MOLECULE
*****
 39 41 0 0 0
SMALL
GASTEIGER

@<TRIPOS>ATOM
      1 C           0.9592    0.0809    0.0051 C.3     1  UNL1       -0.0205
      2 C           2.4493    0.0473    0.0555 C.2     1  UNL1        0.0647
      3 C           3.2597   -1.0201   -0.0059 C.2     1  UNL1        0.0166
      4 C           2.8827   -2.4778   -0.1274 C.3     1  UNL1        0.0391
      5 C           2.0446   -2.7894   -1.3787 C.ar    1  UNL1       -0.0356
      6 C           1.4436   -4.0428   -1.5593 C.ar    1  UNL1       -0.0574
      7 C           0.6816   -4.3005   -2.7044 C.ar    1  UNL1       -0.0586
      8 C           0.4701   -3.3021   -3.6645 C.ar    1  UNL1       -0.0504
      9 C          -0.3028   -3.5577   -4.9154 C.3     1  UNL1       -0.0397
     10 C           1.0174   -2.0415   -3.4710 C.ar    1  UNL1       -0.0586
     11 C           1.8126   -1.8083   -2.3639 C.ar    1  UNL1       -0.0574
     12 C           4.0511   -3.4406   -0.1348 C.ar    1  UNL1       -0.0031
     13 C           5.0893   -3.6274   -1.1125 C.ar    1  UNL1        0.0632
     14 C           5.3145   -2.9528   -2.4140 C.3     1  UNL1       -0.0203
     15 N           5.9908   -4.5303   -0.7161 N.ar    1  UNL1       -0.1794
     16 N           5.5059   -4.9473    0.4634 N.ar    1  UNL1       -0.2915
     17 C           4.3375   -4.3608    0.8745 C.ar    1  UNL1       -0.0132
     18 O           3.8622   -4.7345    1.9368 O.co2   1  UNL1       -0.8603
     19 C           4.6349   -0.4554    0.0620 C.3     1  UNL1        0.1919
     20 O           5.3610   -0.6540   -1.1295 O.3     1  UNL1       -0.3659
     21 N           4.3697    0.9964    0.2399 N.2     1  UNL1       -0.1508
     22 N           3.1382    1.2289    0.1224 N.2     1  UNL1       -0.1563
     23 H           0.5217   -0.9212    0.0099 H       1  UNL1        0.0293
     24 H           0.6162    0.5862   -0.9061 H       1  UNL1        0.0293
     25 H           0.5605    0.6133    0.8703 H       1  UNL1        0.0293
     26 H           2.2430   -2.7037    0.7435 H       1  UNL1        0.0446
     27 H           1.5969   -4.8313   -0.8199 H       1  UNL1        0.0621
     28 H           0.2671   -5.2947   -2.8446 H       1  UNL1        0.0620
     29 H          -0.6502   -4.5919   -4.9607 H       1  UNL1        0.0278
     30 H           0.3383   -3.3716   -5.7841 H       1  UNL1        0.0278
     31 H          -1.1705   -2.8923   -4.9605 H       1  UNL1        0.0278
     32 H           0.8567   -1.2335   -4.1785 H       1  UNL1        0.0620
     33 H           2.2427   -0.8169   -2.2892 H       1  UNL1        0.0621
     34 H           4.4946   -2.2828   -2.6768 H       1  UNL1        0.0293
     35 H           5.4135   -3.6584   -3.2383 H       1  UNL1        0.0293
     36 H           6.2455   -2.3730   -2.3770 H       1  UNL1        0.0293
     37 H           6.0072   -5.6562    0.9763 H       1  UNL1        0.1875
     38 H           5.1923   -0.8628    0.9096 H       1  UNL1        0.0919
     39 H           4.7464   -0.4241   -1.8417 H       1  UNL1        0.2124
@<TRIPOS>UNITY_ATOM_ATTR
18 1
charge -1
@<TRIPOS>BOND
     1     1     2    1
     2     2     3    2
     3     3     4    1
     4     4     5    1
     5     5     6   ar
     6     6     7   ar
     7     7     8   ar
     8     8     9    1
     9     8    10   ar
    10    10    11   ar
    11     5    11   ar
    12     4    12    1
    13    12    13   ar
    14    13    14    1
    15    13    15   ar
    16    15    16   ar
    17    16    17   ar
    18    12    17   ar
    19    17    18    1
    20     3    19    1
    21    19    20    1
    22    19    21    1
    23    21    22    2
    24     2    22    1
    25     1    23    1
    26     1    24    1
    27     1    25    1
    28     4    26    1
    29     6    27    1
    30     7    28    1
    31     9    29    1
    32     9    30    1
    33     9    31    1
    34    10    32    1
    35    11    33    1
    36    14    34    1
    37    14    35    1
    38    14    36    1
    39    16    37    1
    40    19    38    1
    41    20    39    1
