REMARK  5 active torsions:
REMARK  status: ('A' for Active; 'I' for Inactive)
REMARK    1  A    between atoms: C_2  and  N_5 
REMARK       I    between atoms: N_5  and  C_6 
REMARK    2  A    between atoms: C_6  and  C_8 
REMARK    3  A    between atoms: C_11  and  N_12 
REMARK       I    between atoms: N_12  and  C_13 
REMARK    4  A    between atoms: C_13  and  C_15 
REMARK    5  A    between atoms: C_18  and  N_19 
ROOT
ATOM      1  C   UNL d   1       5.004   1.238   2.858  0.00  0.00     0.032 A 
ATOM      2  C   UNL d   1       6.179   2.001   2.962  0.00  0.00     0.019 A 
ATOM      3  C   UNL d   1       6.757   2.261   4.221  0.00  0.00     0.030 A 
ATOM      4  C   UNL d   1       6.130   1.813   5.392  0.00  0.00     0.035 A 
ATOM      5  C   UNL d   1       4.958   1.057   5.253  0.00  0.00     0.030 A 
ATOM      6  C   UNL d   1       4.391   0.774   4.011  0.00  0.00     0.019 A 
ENDROOT
BRANCH   4   7
ATOM      7  N   UNL d   1       6.668   2.148   6.671  0.00  0.00    -0.323 N 
ATOM      8  C   UNL d   1       6.091   1.789   7.884  0.00  0.00     0.256 C 
ATOM      9  O   UNL d   1       5.088   1.090   8.040  0.00  0.00    -0.267 OA
ATOM     10  H   UNL d   1       7.513   2.709   6.678  0.00  0.00     0.169 HD
BRANCH   8  11
ATOM     11  C   UNL d   1       6.674   2.296   9.149  0.00  0.00     0.032 A 
ATOM     12  C   UNL d   1       6.604   1.456  10.278  0.00  0.00     0.019 A 
ATOM     13  C   UNL d   1       6.880   1.948  11.556  0.00  0.00     0.037 A 
ATOM     14  C   UNL d   1       7.298   3.274  11.697  0.00  0.00     0.102 A 
ATOM     15  C   UNL d   1       7.373   4.121  10.577  0.00  0.00     0.037 A 
ATOM     16  C   UNL d   1       7.055   3.632   9.301  0.00  0.00     0.019 A 
BRANCH  14  17
ATOM     17  N   UNL d   1       7.709   3.769  13.018  0.00  0.00    -0.116 N 
ATOM     18  O   UNL d   1       7.650   2.982  13.974  0.00  0.00    -0.532 OA
ATOM     19  O   UNL d   1       8.120   4.935  13.092  0.00  0.00    -0.532 OA
ENDBRANCH  14  17
ENDBRANCH   8  11
ENDBRANCH   4   7
BRANCH   1  20
ATOM     20  C   UNL d   1       4.553   0.744   1.539  0.00  0.00     0.252 C 
ATOM     21  N   UNL d   1       3.193   0.591   1.321  0.00  0.00    -0.349 N 
ATOM     22  H   UNL d   1       2.539   0.901   2.031  0.00  0.00     0.163 HD
ATOM     23  O   UNL d   1       5.426   0.459   0.718  0.00  0.00    -0.268 OA
BRANCH  21  24
ATOM     24  C   UNL d   1       2.650   0.042   0.063  0.00  0.00     0.022 C 
ATOM     25  C   UNL d   1       1.108   0.047   0.091  0.00  0.00     0.037 C 
ATOM     26  C   UNL d   1       3.109  -1.413  -0.127  0.00  0.00     0.037 C 
ATOM     27  C   UNL d   1       3.099   0.904  -1.128  0.00  0.00     0.037 C 
ENDBRANCH  21  24
ENDBRANCH   1  20
TORSDOF 5
