REMARK  8 active torsions:
REMARK  status: ('A' for Active; 'I' for Inactive)
REMARK    1  A    between atoms: C_2  and  N_5 
REMARK       I    between atoms: N_5  and  C_6 
REMARK    2  A    between atoms: C_6  and  C_8 
REMARK    3  A    between atoms: C_11  and  C_12 
REMARK       I    between atoms: C_12  and  N_14 
REMARK    4  A    between atoms: N_14  and  N_15 
REMARK       I    between atoms: N_15  and  C_16 
REMARK    5  A    between atoms: C_16  and  C_18 
REMARK    6  A    between atoms: C_18  and  C_19 
REMARK    7  A    between atoms: C_19  and  C_20 
REMARK    8  A    between atoms: C_20  and  C_21 
ROOT
ATOM      1  C   UNL d   1       6.604   6.456   2.877  0.00  0.00     0.270 C 
ATOM      2  O   UNL d   1       7.608   6.970   2.380  0.00  0.00    -0.266 OA
ATOM      3  N   UNL d   1       5.937   7.043   3.943  0.00  0.00    -0.263 N 
ATOM      4  H   UNL d   1       5.092   6.679   4.376  0.00  0.00     0.190 HD
ENDROOT
BRANCH   1   5
ATOM      5  C   UNL d   1       6.039   5.175   2.304  0.00  0.00     0.033 A 
ATOM      6  C   UNL d   1       6.659   4.591   1.182  0.00  0.00     0.018 A 
ATOM      7  C   UNL d   1       6.103   3.461   0.554  0.00  0.00     0.018 A 
ATOM      8  C   UNL d   1       4.953   2.854   1.078  0.00  0.00     0.032 A 
ATOM      9  C   UNL d   1       4.351   3.403   2.210  0.00  0.00     0.018 A 
ATOM     10  C   UNL d   1       4.891   4.551   2.817  0.00  0.00     0.018 A 
BRANCH   8  11
ATOM     11  C   UNL d   1       4.515   1.536   0.555  0.00  0.00     0.252 C 
ATOM     12  N   UNL d   1       3.157   1.261   0.511  0.00  0.00    -0.349 N 
ATOM     13  H   UNL d   1       2.497   1.994   0.739  0.00  0.00     0.163 HD
ATOM     14  O   UNL d   1       5.393   0.741   0.215  0.00  0.00    -0.268 OA
BRANCH  12  15
ATOM     15  C   UNL d   1       2.620  -0.042   0.062  0.00  0.00     0.022 C 
ATOM     16  C   UNL d   1       1.077  -0.023   0.074  0.00  0.00     0.037 C 
ATOM     17  C   UNL d   1       3.080  -1.164   1.010  0.00  0.00     0.037 C 
ATOM     18  C   UNL d   1       3.071  -0.345  -1.376  0.00  0.00     0.037 C 
ENDBRANCH  12  15
ENDBRANCH   8  11
ENDBRANCH   1   5
BRANCH   3  19
ATOM     19  N   UNL d   1       6.381   8.281   4.472  0.00  0.00    -0.267 N 
ATOM     20  C   UNL d   1       5.673   8.825   5.528  0.00  0.00     0.236 C 
ATOM     21  O   UNL d   1       4.683   8.257   5.995  0.00  0.00    -0.272 OA
ATOM     22  H   UNL d   1       7.205   8.700   4.047  0.00  0.00     0.190 HD
BRANCH  20  23
ATOM     23  C   UNL d   1       6.205  10.155   6.064  0.00  0.00     0.105 C 
BRANCH  23  24
ATOM     24  C   UNL d   1       5.344  10.639   7.231  0.00  0.00     0.014 C 
BRANCH  24  25
ATOM     25  C   UNL d   1       5.801  11.965   7.848  0.00  0.00     0.039 C 
BRANCH  25  26
ATOM     26  C   UNL d   1       4.952  12.402   9.027  0.00  0.00    -0.058 A 
ATOM     27  C   UNL d   1       4.866  13.760   9.368  0.00  0.00     0.007 A 
ATOM     28  C   UNL d   1       4.235  14.152  10.553  0.00  0.00     0.001 A 
ATOM     29  C   UNL d   1       3.618  13.205  11.370  0.00  0.00     0.000 A 
ATOM     30  C   UNL d   1       3.659  11.862  11.023  0.00  0.00     0.001 A 
ATOM     31  C   UNL d   1       4.332  11.466   9.870  0.00  0.00     0.007 A 
ENDBRANCH  25  26
ENDBRANCH  24  25
ENDBRANCH  23  24
ENDBRANCH  20  23
ENDBRANCH   3  19
TORSDOF 8
