@<TRIPOS>MOLECULE
*****
 65 67 0 0 0
SMALL
GASTEIGER

@<TRIPOS>ATOM
      1 C           1.1033    0.0213   -0.0134 C.3     1  UNL1       -0.0416
      2 C           2.6185    0.0064   -0.0032 C.3     1  UNL1        0.0450
      3 O           3.1111    1.0692   -0.8186 O.3     1  UNL1       -0.3767
      4 C           4.5422    1.0673   -0.8447 C.3     1  UNL1        0.0817
      5 C           5.0439    2.2015   -1.7333 C.3     1  UNL1        0.1128
      6 O           6.4755    2.1552   -1.8144 O.3     1  UNL1       -0.4897
      7 C           7.0503    3.2199   -2.4581 C.ar    1  UNL1        0.1207
      8 C           8.1671    2.9646   -3.2469 C.ar    1  UNL1       -0.0192
      9 C           8.8331    4.0313   -3.8757 C.ar    1  UNL1       -0.0462
     10 C           8.3627    5.3663   -3.7848 C.ar    1  UNL1        0.0373
     11 C           9.0466    6.4191   -4.6205 C.2     1  UNL1        0.2495
     12 O           9.9960    6.0063   -5.2855 O.2     1  UNL1       -0.2698
     13 N           8.5927    7.7665   -4.6501 N.am    1  UNL1       -0.2627
     14 C           9.1288    8.8205   -5.4306 C.2     1  UNL1        0.1533
     15 S          10.4276    8.6730   -6.5016 S.2     1  UNL1       -0.0170
     16 N           8.5074   10.0761   -5.2652 N.am    1  UNL1       -0.2453
     17 N           9.0136   11.2016   -6.0227 N.am    1  UNL1       -0.2311
     18 C           8.5279   12.4948   -5.8893 C.2     1  UNL1        0.2601
     19 O           7.6194   12.8050   -5.1159 O.2     1  UNL1       -0.2687
     20 C           9.1513   13.5276   -6.7932 C.ar    1  UNL1        0.0383
     21 C           9.4457   14.8421   -6.3866 C.ar    1  UNL1       -0.0478
     22 C           9.9379   15.7985   -7.3175 C.ar    1  UNL1       -0.0398
     23 C          10.1838   15.4363   -8.6529 C.ar    1  UNL1        0.0337
     24 N          10.7533   16.3627   -9.5720 N.am    1  UNL1       -0.2815
     25 C          11.1800   16.0668  -10.8685 C.2     1  UNL1        0.2485
     26 O          11.0101   15.0078  -11.4742 O.2     1  UNL1       -0.2698
     27 C          11.9522   17.1050  -11.6074 C.ar    1  UNL1        0.0399
     28 C          11.6414   17.3130  -12.9657 C.ar    1  UNL1       -0.0494
     29 C          12.4338   18.1485  -13.7576 C.ar    1  UNL1       -0.0610
     30 C          13.5148   18.8156  -13.1905 C.ar    1  UNL1       -0.0615
     31 C          13.8430   18.5975  -11.8520 C.ar    1  UNL1       -0.0581
     32 C          13.0806   17.7315  -11.0495 C.ar    1  UNL1       -0.0383
     33 C          13.5265   17.4676   -9.6430 C.3     1  UNL1       -0.0390
     34 C           9.8708   14.1328   -9.0321 C.ar    1  UNL1       -0.0398
     35 C           9.3587   13.1960   -8.1296 C.ar    1  UNL1       -0.0478
     36 C           7.2705    5.6071   -2.9573 C.ar    1  UNL1       -0.0462
     37 C           6.6336    4.5428   -2.2927 C.ar    1  UNL1       -0.0192
     38 H           0.7085   -0.7892    0.6066 H       1  UNL1        0.0252
     39 H           0.7205   -0.0964   -1.0323 H       1  UNL1        0.0252
     40 H           0.7207    0.9740    0.3666 H       1  UNL1        0.0252
     41 H           2.9790   -0.9507   -0.3950 H       1  UNL1        0.0557
     42 H           2.9812    0.1356    1.0223 H       1  UNL1        0.0557
     43 H           4.9087    0.1060   -1.2203 H       1  UNL1        0.0594
     44 H           4.9243    1.2021    0.1747 H       1  UNL1        0.0594
     45 H           4.6748    3.1359   -1.2995 H       1  UNL1        0.0720
     46 H           4.6209    2.1028   -2.7398 H       1  UNL1        0.0720
     47 H           8.5175    1.9436   -3.3958 H       1  UNL1        0.0654
     48 H           9.7314    3.8031   -4.4529 H       1  UNL1        0.0626
     49 H           7.7958    7.9970   -4.0789 H       1  UNL1        0.1569
     50 H           7.7107   10.2875   -4.6678 H       1  UNL1        0.1718
     51 H           9.8113   10.9872   -6.6248 H       1  UNL1        0.1731
     52 H           9.3024   15.1358   -5.3471 H       1  UNL1        0.0626
     53 H          10.1179   16.8172   -6.9732 H       1  UNL1        0.0636
     54 H          10.9161   17.3001   -9.2274 H       1  UNL1        0.1551
     55 H          10.7910   16.8046  -13.4189 H       1  UNL1        0.0625
     56 H          12.2219   18.2663  -14.8182 H       1  UNL1        0.0618
     57 H          14.1133   19.4965  -13.7916 H       1  UNL1        0.0618
     58 H          14.7228   19.0896  -11.4421 H       1  UNL1        0.0620
     59 H          14.4515   17.9982   -9.4053 H       1  UNL1        0.0278
     60 H          13.6963   16.3969   -9.4887 H       1  UNL1        0.0278
     61 H          12.7781   17.8372   -8.9403 H       1  UNL1        0.0278
     62 H           9.9869   13.7981  -10.0550 H       1  UNL1        0.0636
     63 H           9.0967   12.2171   -8.5175 H       1  UNL1        0.0626
     64 H           6.8845    6.6032   -2.7896 H       1  UNL1        0.0626
     65 H           5.8097    4.7825   -1.6301 H       1  UNL1        0.0654
@<TRIPOS>BOND
     1     1     2    1
     2     2     3    1
     3     3     4    1
     4     4     5    1
     5     5     6    1
     6     6     7    1
     7     7     8   ar
     8     8     9   ar
     9     9    10   ar
    10    10    11    1
    11    11    12    2
    12    11    13   am
    13    13    14    1
    14    14    15    2
    15    14    16    1
    16    16    17    1
    17    17    18   am
    18    18    19    2
    19    18    20    1
    20    20    21   ar
    21    21    22   ar
    22    22    23   ar
    23    23    24    1
    24    24    25   am
    25    25    26    2
    26    25    27    1
    27    27    28   ar
    28    28    29   ar
    29    29    30   ar
    30    30    31   ar
    31    31    32   ar
    32    27    32   ar
    33    32    33    1
    34    23    34   ar
    35    34    35   ar
    36    20    35   ar
    37    10    36   ar
    38    36    37   ar
    39     7    37   ar
    40     1    38    1
    41     1    39    1
    42     1    40    1
    43     2    41    1
    44     2    42    1
    45     4    43    1
    46     4    44    1
    47     5    45    1
    48     5    46    1
    49     8    47    1
    50     9    48    1
    51    13    49    1
    52    16    50    1
    53    17    51    1
    54    21    52    1
    55    22    53    1
    56    24    54    1
    57    28    55    1
    58    29    56    1
    59    30    57    1
    60    31    58    1
    61    33    59    1
    62    33    60    1
    63    33    61    1
    64    34    62    1
    65    35    63    1
    66    36    64    1
    67    37    65    1
