@<TRIPOS>MOLECULE
*****
 38 40 0 0 0
SMALL
GASTEIGER

@<TRIPOS>ATOM
      1 O           0.9997    0.1595   -0.2481 O.2     1  UNL1       -0.2739
      2 C           2.2258    0.1053   -0.1057 C.2     1  UNL1        0.2333
      3 C           2.9216   -0.8442    0.8670 C.3     1  UNL1        0.0505
      4 C           1.9989   -1.7003    1.7256 C.ar    1  UNL1       -0.0383
      5 C           0.9420   -1.1148    2.4589 C.ar    1  UNL1       -0.0578
      6 C           0.0913   -1.8837    3.2623 C.ar    1  UNL1       -0.0580
      7 C           0.3052   -3.2474    3.3328 C.ar    1  UNL1       -0.0442
      8 C           1.3598   -3.8424    2.6340 C.ar    1  UNL1       -0.0439
      9 C           2.2157   -3.0860    1.8414 C.ar    1  UNL1       -0.0547
     10 C           1.4061   -5.3148    2.9117 C.3     1  UNL1       -0.0271
     11 C          -0.0178   -5.5650    3.4334 C.3     1  UNL1       -0.0450
     12 C          -0.4562   -4.2656    4.1251 C.3     1  UNL1       -0.0271
     13 N           2.9978    0.9788   -0.8445 N.am    1  UNL1       -0.2362
     14 N           4.3695    0.8646   -1.0202 N.pl3   1  UNL1       -0.2645
     15 C           5.0049    1.7998   -1.8553 C.ar    1  UNL1        0.0446
     16 C           4.5756    3.1314   -1.9774 C.ar    1  UNL1       -0.0367
     17 C           5.1712    4.0018   -2.8994 C.ar    1  UNL1       -0.0247
     18 C           6.1942    3.5411   -3.7162 C.ar    1  UNL1        0.1235
     19 F           6.7461    4.3645   -4.6175 F       1  UNL1       -0.2055
     20 C           6.6485    2.2341   -3.6104 C.ar    1  UNL1       -0.0247
     21 C           6.0608    1.3709   -2.6768 C.ar    1  UNL1       -0.0367
     22 H           3.5596   -0.2559    1.5372 H       1  UNL1        0.0407
     23 H           3.5705   -1.5018    0.2753 H       1  UNL1        0.0407
     24 H           0.7538   -0.0450    2.3839 H       1  UNL1        0.0620
     25 H          -0.7250   -1.4139    3.8017 H       1  UNL1        0.0620
     26 H           3.0297   -3.5716    1.3116 H       1  UNL1        0.0623
     27 H           2.1480   -5.5294    3.6880 H       1  UNL1        0.0313
     28 H           1.6174   -5.9077    2.0178 H       1  UNL1        0.0313
     29 H          -0.0743   -6.4323    4.0991 H       1  UNL1        0.0272
     30 H          -0.6863   -5.7673    2.5843 H       1  UNL1        0.0272
     31 H          -0.1356   -4.2521    5.1720 H       1  UNL1        0.0313
     32 H          -1.5391   -4.1240    4.0645 H       1  UNL1        0.0313
     33 H           2.4870    1.4844   -1.5658 H       1  UNL1        0.1727
     34 H           4.9396    0.2684   -0.4281 H       1  UNL1        0.1700
     35 H           3.7907    3.5163   -1.3311 H       1  UNL1        0.0637
     36 H           4.8396    5.0318   -2.9873 H       1  UNL1        0.0647
     37 H           7.4442    1.8910   -4.2646 H       1  UNL1        0.0647
     38 H           6.4079    0.3416   -2.6278 H       1  UNL1        0.0637
@<TRIPOS>BOND
     1     1     2    2
     2     2     3    1
     3     3     4    1
     4     4     5   ar
     5     5     6   ar
     6     6     7   ar
     7     7     8   ar
     8     8     9   ar
     9     4     9   ar
    10     8    10    1
    11    10    11    1
    12    11    12    1
    13     7    12    1
    14     2    13   am
    15    13    14    1
    16    14    15    1
    17    15    16   ar
    18    16    17   ar
    19    17    18   ar
    20    18    19    1
    21    18    20   ar
    22    20    21   ar
    23    15    21   ar
    24     3    22    1
    25     3    23    1
    26     5    24    1
    27     6    25    1
    28     9    26    1
    29    10    27    1
    30    10    28    1
    31    11    29    1
    32    11    30    1
    33    12    31    1
    34    12    32    1
    35    13    33    1
    36    14    34    1
    37    16    35    1
    38    17    36    1
    39    20    37    1
    40    21    38    1
