REMARK  7 active torsions:
REMARK  status: ('A' for Active; 'I' for Inactive)
REMARK    1  A    between atoms: C_2  and  C_3 
REMARK       I    between atoms: C_2  and  N_12 
REMARK    2  A    between atoms: C_3  and  C_4 
REMARK    3  A    between atoms: C_4  and  C_5 
REMARK    4  A    between atoms: C_5  and  C_6 
REMARK    5  A    between atoms: N_12  and  N_13 
REMARK       I    between atoms: N_13  and  C_14 
REMARK    6  A    between atoms: C_14  and  C_16 
REMARK    7  A    between atoms: C_19  and  C_20 
ROOT
ATOM      1  N   UNL d   1       4.569  -1.220   0.239  0.00  0.00    -0.263 N 
ATOM      2  C   UNL d   1       5.181  -2.434   0.501  0.00  0.00     0.275 C 
ATOM      3  O   UNL d   1       4.556  -3.477   0.672  0.00  0.00    -0.266 OA
ATOM      4  H   UNL d   1       5.105  -0.361   0.152  0.00  0.00     0.190 HD
ENDROOT
BRANCH   2   5
ATOM      5  C   UNL d   1       6.673  -2.412   0.510  0.00  0.00     0.101 A 
ATOM      6  C   UNL d   1       7.347  -3.420  -0.080  0.00  0.00     0.025 A 
ATOM      7  C   UNL d   1       8.797  -3.462  -0.088  0.00  0.00     0.031 A 
ATOM      8  C   UNL d   1       9.502  -2.505   0.534  0.00  0.00     0.045 A 
ATOM      9  N   UNL d   1       8.831  -1.478   1.160  0.00  0.00    -0.322 N 
ATOM     10  C   UNL d   1       7.463  -1.343   1.179  0.00  0.00     0.261 A 
ATOM     11  H   UNL d   1       9.365  -0.741   1.607  0.00  0.00     0.169 HD
ATOM     12  O   UNL d   1       6.915  -0.373   1.709  0.00  0.00    -0.267 OA
BRANCH   8  13
ATOM     13  C   UNL d   1      10.976  -2.474   0.538  0.00  0.00    -0.009 A 
ATOM     14  C   UNL d   1      11.692  -2.426   1.743  0.00  0.00     0.013 A 
ATOM     15  C   UNL d   1      13.079  -2.247   1.737  0.00  0.00     0.001 A 
ATOM     16  C   UNL d   1      13.772  -2.189   0.529  0.00  0.00     0.000 A 
ATOM     17  C   UNL d   1      13.076  -2.274  -0.675  0.00  0.00     0.001 A 
ATOM     18  C   UNL d   1      11.685  -2.407  -0.671  0.00  0.00     0.013 A 
ENDBRANCH   8  13
ENDBRANCH   2   5
BRANCH   1  19
ATOM     19  N   UNL d   1       3.166  -1.163   0.233  0.00  0.00    -0.267 N 
ATOM     20  C   UNL d   1       2.417  -0.041  -0.022  0.00  0.00     0.236 C 
ATOM     21  O   UNL d   1       1.187  -0.106  -0.011  0.00  0.00    -0.272 OA
ATOM     22  H   UNL d   1       2.664  -2.029   0.435  0.00  0.00     0.190 HD
BRANCH  20  23
ATOM     23  C   UNL d   1       3.166   1.249  -0.317  0.00  0.00     0.105 C 
BRANCH  23  24
ATOM     24  C   UNL d   1       2.194   2.384  -0.598  0.00  0.00     0.014 C 
BRANCH  24  25
ATOM     25  C   UNL d   1       2.879   3.715  -0.928  0.00  0.00     0.039 C 
BRANCH  25  26
ATOM     26  C   UNL d   1       1.891   4.839  -1.164  0.00  0.00    -0.058 A 
ATOM     27  C   UNL d   1       2.334   6.168  -1.169  0.00  0.00     0.007 A 
ATOM     28  C   UNL d   1       1.410   7.215  -1.238  0.00  0.00     0.001 A 
ATOM     29  C   UNL d   1       0.050   6.948  -1.393  0.00  0.00     0.000 A 
ATOM     30  C   UNL d   1      -0.395   5.636  -1.448  0.00  0.00     0.001 A 
ATOM     31  C   UNL d   1       0.519   4.594  -1.335  0.00  0.00     0.007 A 
ENDBRANCH  25  26
ENDBRANCH  24  25
ENDBRANCH  23  24
ENDBRANCH  20  23
ENDBRANCH   1  19
TORSDOF 7
