@<TRIPOS>MOLECULE
*****
 51 53 0 0 0
SMALL
GASTEIGER

@<TRIPOS>ATOM
      1 C           1.0792    0.0626    0.0018 C.3     1  UNL1       -0.0203
      2 C           2.5946    0.0377   -0.0941 C.2     1  UNL1        0.0634
      3 N           3.2778   -0.3975   -1.1187 N.2     1  UNL1       -0.1843
      4 N           2.6389   -0.9200   -2.2197 N.am    1  UNL1       -0.2027
      5 C           3.3568   -1.4807   -3.2721 C.2     1  UNL1        0.2633
      6 O           4.5835   -1.5856   -3.3392 O.2     1  UNL1       -0.2685
      7 C           2.5382   -1.9734   -4.4227 C.ar    1  UNL1        0.0385
      8 C           2.8697   -3.1480   -5.1170 C.ar    1  UNL1       -0.0478
      9 C           2.1647   -3.5171   -6.2871 C.ar    1  UNL1       -0.0398
     10 C           1.0865   -2.7419   -6.7436 C.ar    1  UNL1        0.0337
     11 N           0.3283   -3.1554   -7.8744 N.am    1  UNL1       -0.2815
     12 C          -0.8379   -2.5449   -8.3352 C.2     1  UNL1        0.2485
     13 O          -1.3286   -1.4977   -7.9146 O.2     1  UNL1       -0.2698
     14 C          -1.6065   -3.2101   -9.4249 C.ar    1  UNL1        0.0399
     15 C          -2.1288   -2.3799  -10.4362 C.ar    1  UNL1       -0.0494
     16 C          -3.0200   -2.8839  -11.3858 C.ar    1  UNL1       -0.0610
     17 C          -3.3632   -4.2310  -11.3617 C.ar    1  UNL1       -0.0615
     18 C          -2.8597   -5.0600  -10.3580 C.ar    1  UNL1       -0.0581
     19 C          -1.9884   -4.5623   -9.3718 C.ar    1  UNL1       -0.0383
     20 C          -1.5406   -5.4802   -8.2751 C.3     1  UNL1       -0.0390
     21 C           0.7820   -1.5762   -6.0392 C.ar    1  UNL1       -0.0398
     22 C           1.4926   -1.1890   -4.9007 C.ar    1  UNL1       -0.0478
     23 C           3.3461    0.5305    1.1231 C.ar    1  UNL1       -0.0024
     24 C           4.5365    1.2519    0.9896 C.ar    1  UNL1       -0.0511
     25 C           5.3257    1.5381    2.1205 C.ar    1  UNL1       -0.0404
     26 C           4.8971    1.2082    3.4097 C.ar    1  UNL1        0.0246
     27 N           5.7441    1.3753    4.5098 N.pl3   1  UNL1       -0.3580
     28 C           3.7069    0.4909    3.5364 C.ar    1  UNL1       -0.0404
     29 C           2.9281    0.1709    2.4112 C.ar    1  UNL1       -0.0511
     30 H           0.5768   -0.3125   -0.8875 H       1  UNL1        0.0293
     31 H           0.7453    1.0931    0.1539 H       1  UNL1        0.0293
     32 H           0.7377   -0.5567    0.8342 H       1  UNL1        0.0293
     33 H           1.6309   -0.9781   -2.2390 H       1  UNL1        0.1776
     34 H           3.6837   -3.7752   -4.7539 H       1  UNL1        0.0626
     35 H           2.4865   -4.4076   -6.8252 H       1  UNL1        0.0636
     36 H           0.6457   -3.9906   -8.3484 H       1  UNL1        0.1551
     37 H          -1.8625   -1.3239  -10.4683 H       1  UNL1        0.0625
     38 H          -3.4622   -2.2237  -12.1286 H       1  UNL1        0.0618
     39 H          -4.0333   -4.6365  -12.1165 H       1  UNL1        0.0618
     40 H          -3.1791   -6.1003  -10.3326 H       1  UNL1        0.0620
     41 H          -1.9829   -6.4749   -8.3740 H       1  UNL1        0.0278
     42 H          -1.8234   -5.0777   -7.2971 H       1  UNL1        0.0278
     43 H          -0.4596   -5.6217   -8.3290 H       1  UNL1        0.0278
     44 H           0.0018   -0.9022   -6.3693 H       1  UNL1        0.0636
     45 H           1.2352   -0.2415   -4.4387 H       1  UNL1        0.0626
     46 H           4.8766    1.5771    0.0091 H       1  UNL1        0.0625
     47 H           6.2989    2.0029    1.9782 H       1  UNL1        0.0636
     48 H           6.4397    2.1088    4.4142 H       1  UNL1        0.1423
     49 H           5.2885    1.3825    5.4171 H       1  UNL1        0.1423
     50 H           3.3853    0.1406    4.5146 H       1  UNL1        0.0636
     51 H           2.0255   -0.4096    2.5692 H       1  UNL1        0.0625
@<TRIPOS>BOND
     1     1     2    1
     2     2     3    2
     3     3     4    1
     4     4     5   am
     5     5     6    2
     6     5     7    1
     7     7     8   ar
     8     8     9   ar
     9     9    10   ar
    10    10    11    1
    11    11    12   am
    12    12    13    2
    13    12    14    1
    14    14    15   ar
    15    15    16   ar
    16    16    17   ar
    17    17    18   ar
    18    18    19   ar
    19    14    19   ar
    20    19    20    1
    21    10    21   ar
    22    21    22   ar
    23     7    22   ar
    24     2    23    1
    25    23    24   ar
    26    24    25   ar
    27    25    26   ar
    28    26    27    1
    29    26    28   ar
    30    28    29   ar
    31    23    29   ar
    32     1    30    1
    33     1    31    1
    34     1    32    1
    35     4    33    1
    36     8    34    1
    37     9    35    1
    38    11    36    1
    39    15    37    1
    40    16    38    1
    41    17    39    1
    42    18    40    1
    43    20    41    1
    44    20    42    1
    45    20    43    1
    46    21    44    1
    47    22    45    1
    48    24    46    1
    49    25    47    1
    50    27    48    1
    51    27    49    1
    52    28    50    1
    53    29    51    1
