REMARK  5 active torsions:
REMARK  status: ('A' for Active; 'I' for Inactive)
REMARK    1  A    between atoms: C_2  and  N_3 
REMARK    2  A    between atoms: C_11  and  C_12 
REMARK       I    between atoms: C_12  and  N_14 
REMARK    3  A    between atoms: N_14  and  N_15 
REMARK    4  A    between atoms: C_19  and  C_20 
REMARK    5  A    between atoms: C_19  and  C_26 
ROOT
ATOM      1  N   UNL d   1       1.868  -8.395   1.278  0.00  0.00    -0.166 N 
ATOM      2  C   UNL d   1       1.008  -8.874   2.227  0.00  0.00     0.346 A 
ATOM      3  O   UNL d   1       0.332  -8.257   3.040  0.00  0.00    -0.245 OA
ATOM      4  N   UNL d   1       0.939 -10.241   2.084  0.00  0.00    -0.315 N 
ATOM      5  C   UNL d   1       1.698 -10.751   0.947  0.00  0.00     0.173 A 
ATOM      6  C   UNL d   1       2.290  -9.392   0.428  0.00  0.00     0.285 A 
ATOM      7  O   UNL d   1       2.968  -9.219  -0.580  0.00  0.00    -0.267 OA
ATOM      8  H   UNL d   1       0.366 -10.790   2.706  0.00  0.00     0.166 HD
ENDROOT
BRANCH   1   9
ATOM      9  N   UNL d   1       2.099  -7.043   1.037  0.00  0.00    -0.252 N 
ATOM     10  C   UNL d   1       2.480  -6.224   2.086  0.00  0.00     0.270 C 
ATOM     11  O   UNL d   1       2.670  -6.619   3.232  0.00  0.00    -0.266 OA
ATOM     12  H   UNL d   1       2.011  -6.748   0.073  0.00  0.00     0.191 HD
BRANCH  10  13
ATOM     13  C   UNL d   1       2.652  -4.772   1.800  0.00  0.00     0.035 C 
ATOM     14  C   UNL d   1       2.970  -3.906   2.862  0.00  0.00     0.049 C 
ATOM     15  C   UNL d   1       3.155  -2.543   2.623  0.00  0.00     0.063 A 
ATOM     16  N   UNL d   1       3.663  -1.727   3.635  0.00  0.00    -0.317 N 
ATOM     17  C   UNL d   1       2.848  -2.003   1.374  0.00  0.00     0.064 A 
ATOM     18  C   UNL d   1       3.927  -0.392   3.461  0.00  0.00     0.314 A 
ATOM     19  H   UNL d   1       3.932  -2.115   4.530  0.00  0.00     0.169 HD
ATOM     20  C   UNL d   1       3.553   0.235   2.107  0.00  0.00     0.316 A 
ATOM     21  O   UNL d   1       4.436   0.285   4.356  0.00  0.00    -0.262 OA
ATOM     22  N   UNL d   1       3.000  -0.611   1.144  0.00  0.00    -0.308 N 
ATOM     23  O   UNL d   1       3.749   1.437   1.929  0.00  0.00    -0.262 OA
ATOM     24  C   UNL d   1       2.434  -2.866   0.354  0.00  0.00     0.033 C 
ATOM     25  C   UNL d   1       2.472  -4.243   0.526  0.00  0.00     0.019 C 
BRANCH  22  26
ATOM     26  C   UNL d   1       2.515  -0.022  -0.098  0.00  0.00     0.128 C 
ATOM     27  C   UNL d   1       0.991   0.026  -0.107  0.00  0.00     0.027 C 
ENDBRANCH  22  26
ENDBRANCH  10  13
ENDBRANCH   1   9
BRANCH   5  28
ATOM     28  C   UNL d   1       2.746 -11.742   1.467  0.00  0.00    -0.016 A 
ATOM     29  C   UNL d   1       2.348 -12.889   2.202  0.00  0.00     0.010 A 
ATOM     30  C   UNL d   1       3.280 -13.830   2.633  0.00  0.00     0.001 A 
ATOM     31  C   UNL d   1       4.618 -13.670   2.297  0.00  0.00     0.000 A 
ATOM     32  C   UNL d   1       5.014 -12.601   1.498  0.00  0.00     0.001 A 
ATOM     33  C   UNL d   1       4.096 -11.625   1.119  0.00  0.00     0.010 A 
ENDBRANCH   5  28
BRANCH   5  34
ATOM     34  C   UNL d   1       0.739 -11.380  -0.084  0.00  0.00    -0.016 C 
ATOM     35  C   UNL d   1      -0.315 -10.634  -0.632  0.00  0.00     0.010 C 
ATOM     36  C   UNL d   1      -1.341 -11.272  -1.331  0.00  0.00     0.001 C 
ATOM     37  C   UNL d   1      -1.278 -12.639  -1.591  0.00  0.00     0.000 C 
ATOM     38  C   UNL d   1      -0.162 -13.362  -1.207  0.00  0.00     0.001 C 
ATOM     39  C   UNL d   1       0.822 -12.741  -0.449  0.00  0.00     0.010 C 
ENDBRANCH   5  34
TORSDOF 5
