@<TRIPOS>MOLECULE
*****
 42 42 0 0 0
SMALL
GASTEIGER

@<TRIPOS>ATOM
      1 C           2.8656    0.9904    1.0770 C.3     1  UNL1       -0.0424
      2 C           2.3985   -0.0653    0.0452 C.3     1  UNL1        0.0460
      3 N           0.9103   -0.1087    0.0161 N.am    1  UNL1       -0.3010
      4 C           0.1355   -0.8015   -0.9037 C.2     1  UNL1        0.2994
      5 O           0.5240   -1.3881   -1.9125 O.2     1  UNL1       -0.2652
      6 C          -1.3840   -0.8596   -0.6583 C.2     1  UNL1        0.2990
      7 O          -1.9277   -0.0490    0.0809 O.2     1  UNL1       -0.2652
      8 N          -2.0138   -1.8662   -1.3799 N.am    1  UNL1       -0.3076
      9 C          -3.4509   -1.9458   -1.4806 C.3     1  UNL1        0.0120
     10 C          -3.9446   -3.0645   -2.3995 C.3     1  UNL1       -0.0373
     11 C          -5.4755   -3.0884   -2.4263 C.3     1  UNL1       -0.0496
     12 C          -6.0110   -4.1967   -3.3271 C.3     1  UNL1       -0.0297
     13 C          -7.5341   -4.2055   -3.3372 C.3     1  UNL1        0.0442
     14 O          -8.0059   -5.2531   -4.1716 O.3     1  UNL1       -0.3950
     15 C           3.0035   -1.4411    0.3731 C.ar    1  UNL1       -0.0275
     16 C           2.5919   -2.5822   -0.3250 C.ar    1  UNL1       -0.0568
     17 C           2.8348   -3.8693    0.1327 C.ar    1  UNL1       -0.0614
     18 C           3.7398   -4.0565    1.1573 C.ar    1  UNL1       -0.0617
     19 C           4.3414   -2.9495    1.7458 C.ar    1  UNL1       -0.0614
     20 C           3.9582   -1.6551    1.3779 C.ar    1  UNL1       -0.0568
     21 H           3.9597    1.0895    1.0830 H       1  UNL1        0.0251
     22 H           2.5569    0.7118    2.0946 H       1  UNL1        0.0251
     23 H           2.4626    1.9872    0.8778 H       1  UNL1        0.0251
     24 H           2.7409    0.2496   -0.9484 H       1  UNL1        0.0545
     25 H           0.3948    0.5106    0.6352 H       1  UNL1        0.1497
     26 H          -1.4167   -2.4303   -1.9833 H       1  UNL1        0.1491
     27 H          -3.8104   -0.9774   -1.8462 H       1  UNL1        0.0462
     28 H          -3.8395   -2.0877   -0.4674 H       1  UNL1        0.0462
     29 H          -3.5649   -4.0343   -2.0554 H       1  UNL1        0.0280
     30 H          -3.5610   -2.9186   -3.4175 H       1  UNL1        0.0280
     31 H          -5.8527   -2.1196   -2.7773 H       1  UNL1        0.0266
     32 H          -5.8571   -3.2307   -1.4075 H       1  UNL1        0.0266
     33 H          -5.6428   -5.1737   -2.9908 H       1  UNL1        0.0287
     34 H          -5.6380   -4.0689   -4.3507 H       1  UNL1        0.0287
     35 H          -7.9340   -3.2562   -3.7083 H       1  UNL1        0.0557
     36 H          -7.9273   -4.3719   -2.3293 H       1  UNL1        0.0557
     37 H          -7.6709   -5.0866   -5.0691 H       1  UNL1        0.2094
     38 H           2.0711   -2.5140   -1.2650 H       1  UNL1        0.0621
     39 H           2.3243   -4.7031   -0.3399 H       1  UNL1        0.0618
     40 H           4.0035   -5.0629    1.4601 H       1  UNL1        0.0618
     41 H           5.0928   -3.0876    2.5164 H       1  UNL1        0.0618
     42 H           4.4357   -0.8331    1.9030 H       1  UNL1        0.0621
@<TRIPOS>BOND
     1     3     4   am
     2     4     5    2
     3     4     6    1
     4     6     7    2
     5     6     8   am
     6     8     9    1
     7     9    10    1
     8    10    11    1
     9    11    12    1
    10    12    13    1
    11    13    14    1
    12     2    15    1
    13    15    16   ar
    14    16    17   ar
    15    17    18   ar
    16    18    19   ar
    17    19    20   ar
    18    15    20   ar
    19     2     3    1
    20     2     1    1
    21     1    21    1
    22     1    22    1
    23     1    23    1
    24     2    24    1
    25     3    25    1
    26     8    26    1
    27     9    27    1
    28     9    28    1
    29    10    29    1
    30    10    30    1
    31    11    31    1
    32    11    32    1
    33    12    33    1
    34    12    34    1
    35    13    35    1
    36    13    36    1
    37    14    37    1
    38    16    38    1
    39    17    39    1
    40    18    40    1
    41    19    41    1
    42    20    42    1
