REMARK  5 active torsions:
REMARK  status: ('A' for Active; 'I' for Inactive)
REMARK       I    between atoms: C_2  and  N_3 
REMARK    1  A    between atoms: C_2  and  C_14 
REMARK    2  A    between atoms: N_3  and  C_4 
REMARK    3  A    between atoms: C_4  and  C_5 
REMARK    4  A    between atoms: C_5  and  C_6 
REMARK    5  A    between atoms: C_6  and  C_7 
ROOT
ATOM      1  O   UNL d   1       0.980  -0.078   0.054  0.00  0.00    -0.268 OA
ATOM      2  C   UNL d   1       2.209  -0.012   0.077  0.00  0.00     0.252 C 
ATOM      3  N   UNL d   1       2.931   0.748  -0.823  0.00  0.00    -0.357 N 
ATOM      4  H   UNL d   1       3.939   0.668  -0.857  0.00  0.00     0.162 HD
ENDROOT
BRANCH   2   5
ATOM      5  C   UNL d   1       2.947  -0.814   1.083  0.00  0.00     0.045 A 
ATOM      6  C   UNL d   1       2.510  -2.129   1.343  0.00  0.00     0.018 A 
ATOM      7  C   UNL d   1       3.079  -2.900   2.361  0.00  0.00     0.003 A 
ATOM      8  C   UNL d   1       4.093  -2.386   3.170  0.00  0.00     0.032 A 
ATOM      9  C   UNL d   1       4.519  -1.081   2.900  0.00  0.00     0.062 A 
ATOM     10  N   UNL d   1       5.460  -0.301   3.518  0.00  0.00    -0.278 N 
ATOM     11  C   UNL d   1       3.984  -0.289   1.880  0.00  0.00     0.027 A 
ATOM     12  N   UNL d   1       5.595   0.921   2.978  0.00  0.00    -0.186 NA
ATOM     13  H   UNL d   1       6.038  -0.544   4.316  0.00  0.00     0.189 HD
ATOM     14  C   UNL d   1       4.686   0.931   1.999  0.00  0.00     0.153 A 
ENDBRANCH   2   5
BRANCH   3  15
ATOM     15  C   UNL d   1       2.239   1.500  -1.863  0.00  0.00     0.123 C 
BRANCH  15  16
ATOM     16  C   UNL d   1       3.201   2.216  -2.803  0.00  0.00     0.024 C 
BRANCH  16  17
ATOM     17  C   UNL d   1       2.453   3.022  -3.870  0.00  0.00     0.040 C 
BRANCH  17  18
ATOM     18  C   UNL d   1       3.391   3.747  -4.804  0.00  0.00    -0.055 A 
ATOM     19  C   UNL d   1       3.323   5.143  -4.930  0.00  0.00     0.007 A 
ATOM     20  C   UNL d   1       4.162   5.819  -5.820  0.00  0.00     0.003 A 
ATOM     21  C   UNL d   1       5.076   5.107  -6.593  0.00  0.00     0.042 A 
ATOM     22  C   UNL d   1       5.153   3.727  -6.463  0.00  0.00     0.116 A 
ATOM     23  F   UNL d   1       6.036   3.041  -7.200  0.00  0.00    -0.206 F 
ATOM     24  C   UNL d   1       4.321   3.043  -5.582  0.00  0.00     0.049 A 
ENDBRANCH  17  18
ENDBRANCH  16  17
ENDBRANCH  15  16
ENDBRANCH   3  15
TORSDOF 5
