REMARK  4 active torsions:
REMARK  status: ('A' for Active; 'I' for Inactive)
REMARK    1  A    between atoms: C_2  and  C_3 
REMARK       I    between atoms: C_2  and  N_19 
REMARK    2  A    between atoms: C_3  and  S_4 
REMARK    3  A    between atoms: S_4  and  C_5 
REMARK    4  A    between atoms: N_19  and  C_20 
ROOT
ATOM      1  S   UNL d   1       1.867  -1.665  -2.217  0.00  0.00    -0.080 SA
ENDROOT
BRANCH   1   2
ATOM      2  C   UNL d   1       3.037  -0.869  -1.093  0.00  0.00     0.185 C 
BRANCH   2   3
ATOM      3  C   UNL d   1       2.349   0.104  -0.106  0.00  0.00     0.231 C 
ATOM      4  O   UNL d   1       1.123   0.180   0.021  0.00  0.00    -0.272 OA
ATOM      5  N   UNL d   1       3.129   0.850   0.766  0.00  0.00    -0.326 N 
ATOM      6  H   UNL d   1       2.591   1.301   1.502  0.00  0.00     0.169 HD
BRANCH   5   7
ATOM      7  C   UNL d   1       4.534   0.930   0.824  0.00  0.00     0.037 A 
ATOM      8  C   UNL d   1       5.282   1.006  -0.349  0.00  0.00     0.032 A 
ATOM      9  C   UNL d   1       6.672   0.987  -0.324  0.00  0.00     0.042 A 
ATOM     10  C   UNL d   1       7.338   0.962   0.891  0.00  0.00     0.102 A 
ATOM     11  C   UNL d   1       6.610   0.925   2.085  0.00  0.00     0.104 A 
ATOM     12  O   UNL d   1       8.707   0.989   0.828  0.00  0.00    -0.346 OA
ATOM     13  C   UNL d   1       5.203   0.953   2.056  0.00  0.00     0.069 A 
ATOM     14  O   UNL d   1       7.227   0.845   3.313  0.00  0.00    -0.346 OA
ATOM     15  C   UNL d   1       8.617   0.489   3.186  0.00  0.00     0.202 C 
ATOM     16  C   UNL d   1       9.279   1.317   2.098  0.00  0.00     0.202 C 
ENDBRANCH   5   7
ENDBRANCH   2   3
ENDBRANCH   1   2
BRANCH   1  17
ATOM     17  C   UNL d   1       2.800  -2.827  -3.123  0.00  0.00     0.211 A 
ATOM     18  N   UNL d   1       3.688  -2.525  -4.049  0.00  0.00    -0.107 NA
ATOM     19  N   UNL d   1       4.003  -3.683  -4.739  0.00  0.00     0.045 NA
ATOM     20  C   UNL d   1       3.306  -4.659  -4.210  0.00  0.00     0.734 A 
ATOM     21  N   UNL d   1       3.279  -5.987  -4.568  0.00  0.00    -0.152 N 
ATOM     22  N   UNL d   1       2.530  -4.189  -3.166  0.00  0.00    -0.122 N 
ATOM     23  C   UNL d   1       2.498  -6.889  -3.895  0.00  0.00     0.268 A 
ATOM     24  H   UNL d   1       3.842  -6.314  -5.341  0.00  0.00     0.188 HD
ATOM     25  O   UNL d   1       2.473  -8.082  -4.204  0.00  0.00    -0.267 OA
ATOM     26  C   UNL d   1       1.671  -6.370  -2.755  0.00  0.00     0.034 A 
ATOM     27  C   UNL d   1       1.707  -5.053  -2.435  0.00  0.00     0.048 A 
ATOM     28  C   UNL d   1       0.843  -7.381  -2.005  0.00  0.00     0.046 C 
ATOM     29  C   UNL d   1       0.881  -4.509  -1.302  0.00  0.00     0.059 C 
ATOM     30  C   UNL d   1      -0.215  -5.455  -0.846  0.00  0.00     0.006 C 
ATOM     31  C   UNL d   1       0.367  -6.842  -0.655  0.00  0.00     0.005 C 
ENDBRANCH   1  17
TORSDOF 4
