REMARK  9 active torsions:
REMARK  status: ('A' for Active; 'I' for Inactive)
REMARK    1  A    between atoms: C_2  and  C_4 
REMARK    2  A    between atoms: C_5  and  C_4 
REMARK    3  A    between atoms: C_5  and  C_10 
REMARK    4  A    between atoms: C_5  and  N_6 
REMARK       I    between atoms: N_6  and  C_7 
REMARK       I    between atoms: C_7  and  N_8 
REMARK       I    between atoms: C_10  and  N_12 
REMARK    5  A    between atoms: N_12  and  C_13 
REMARK    6  A    between atoms: C_13  and  C_14 
REMARK    7  A    between atoms: C_14  and  N_15 
REMARK    8  A    between atoms: N_15  and  C_16 
REMARK    9  A    between atoms: C_21  and  N_22 
ROOT
ATOM      1  C   UNL d   1       5.048   2.057  -1.859  0.00  0.00     0.240 C 
ATOM      2  O   UNL d   1       4.220   2.742  -2.460  0.00  0.00    -0.271 OA
ATOM      3  N   UNL d   1       6.385   2.360  -1.919  0.00  0.00    -0.358 N 
ATOM      4  H   UNL d   1       7.050   1.699  -1.539  0.00  0.00     0.162 HD
ENDROOT
BRANCH   3   5
ATOM      5  C   UNL d   1       6.873   3.421  -2.793  0.00  0.00     0.142 C 
BRANCH   5   6
ATOM      6  C   UNL d   1       8.395   3.515  -2.706  0.00  0.00     0.139 C 
BRANCH   6   7
ATOM      7  N   UNL d   1       8.970   4.427  -3.679  0.00  0.00    -0.386 N 
ATOM      8  H   UNL d   1       8.350   5.043  -4.199  0.00  0.00     0.159 HD
BRANCH   7   9
ATOM      9  C   UNL d   1      10.324   4.503  -3.968  0.00  0.00     0.061 A 
ATOM     10  C   UNL d   1      10.874   5.809  -4.032  0.00  0.00     0.031 A 
ATOM     11  C   UNL d   1      12.219   6.047  -4.349  0.00  0.00     0.002 A 
ATOM     12  C   UNL d   1      13.081   4.980  -4.543  0.00  0.00     0.003 A 
ATOM     13  C   UNL d   1      12.587   3.684  -4.460  0.00  0.00     0.038 A 
ATOM     14  C   UNL d   1      11.227   3.435  -4.186  0.00  0.00     0.129 A 
BRANCH  14  15
ATOM     15  N   UNL d   1      10.818   2.019  -4.269  0.00  0.00    -0.113 N 
ATOM     16  O   UNL d   1      11.722   1.169  -4.041  0.00  0.00    -0.532 OA
ATOM     17  O   UNL d   1       9.684   1.716  -4.590  0.00  0.00    -0.532 OA
ENDBRANCH  14  15
ENDBRANCH   7   9
ENDBRANCH   6   7
ENDBRANCH   5   6
ENDBRANCH   3   5
BRANCH   1  18
ATOM     18  C   UNL d   1       4.687   0.820  -0.969  0.00  0.00     0.178 C 
BRANCH  18  19
ATOM     19  N   UNL d   1       3.212   0.971  -0.822  0.00  0.00    -0.330 N 
ATOM     20  C   UNL d   1       2.478   1.726   0.043  0.00  0.00     0.314 C 
ATOM     21  N   UNL d   1       3.094   2.359   1.052  0.00  0.00    -0.352 N 
ATOM     22  O   UNL d   1       1.234   1.776  -0.036  0.00  0.00    -0.248 OA
ATOM     23  H   UNL d   1       4.075   2.577   1.038  0.00  0.00     0.160 HD
ATOM     24  H   UNL d   1       2.506   2.938   1.645  0.00  0.00     0.160 HD
ATOM     25  H   UNL d   1       2.636   0.706  -1.613  0.00  0.00     0.165 HD
ENDBRANCH  18  19
BRANCH  18  26
ATOM     26  C   UNL d   1       5.351  -0.557  -1.643  0.00  0.00     0.038 C 
BRANCH  26  27
ATOM     27  C   UNL d   1       4.081  -2.097  -0.181  0.00  0.00    -0.020 C 
ATOM     28  C   UNL d   1       2.595  -1.742  -0.242  0.00  0.00     0.009 C 
ATOM     29  C   UNL d   1       5.383  -1.987  -0.919  0.00  0.00     0.009 C 
ENDBRANCH  26  27
ENDBRANCH  18  26
ENDBRANCH   1  18
TORSDOF 9
