REMARK  7 active torsions:
REMARK  status: ('A' for Active; 'I' for Inactive)
REMARK    1  A    between atoms: C_2  and  O_3 
REMARK    2  A    between atoms: O_3  and  C_4 
REMARK    3  A    between atoms: C_7  and  N_8 
REMARK       I    between atoms: N_8  and  C_9 
REMARK    4  A    between atoms: C_9  and  C_11 
REMARK    5  A    between atoms: C_11  and  S_12 
REMARK    6  A    between atoms: C_13  and  S_12 
REMARK    7  A    between atoms: N_23  and  C_24 
ROOT
ATOM      1  C   UNL d   1      13.594  -2.250   1.195  0.00  0.00     0.281 C 
ATOM      2  N   UNL d   1      13.411  -3.674   0.742  0.00  0.00    -0.232 NA
ATOM      3  C   UNL d   1      14.194  -3.953  -0.223  0.00  0.00     0.185 A 
ATOM      4  N   UNL d   1      14.582  -5.225  -0.594  0.00  0.00    -0.129 NA
ATOM      5  N   UNL d   1      15.306  -5.128  -1.623  0.00  0.00    -0.152 NA
ATOM      6  C   UNL d   1      15.384  -3.803  -1.978  0.00  0.00     0.071 A 
ATOM      7  C   UNL d   1      16.015  -3.387  -3.257  0.00  0.00     0.073 C 
ATOM      8  C   UNL d   1      14.791  -2.997  -1.132  0.00  0.00     0.085 A 
ATOM      9  C   UNL d   1      14.494  -1.563  -0.975  0.00  0.00     0.141 C 
ATOM     10  N   UNL d   1      14.875  -0.717  -1.882  0.00  0.00    -0.283 NA
ATOM     11  N   UNL d   1      13.830  -1.187   0.194  0.00  0.00    -0.298 N 
ATOM     12  H   UNL d   1      15.339  -1.145  -2.678  0.00  0.00     0.188 HD
ENDROOT
BRANCH   1  13
ATOM     13  S   UNL d   1      15.006  -2.477   2.423  0.00  0.00    -0.111 SA
BRANCH  13  14
ATOM     14  C   UNL d   1      16.447  -1.337   1.842  0.00  0.00     0.181 C 
BRANCH  14  15
ATOM     15  C   UNL d   1      17.035  -0.732   3.163  0.00  0.00     0.231 C 
ATOM     16  N   UNL d   1      18.146   0.096   3.067  0.00  0.00    -0.327 N 
ATOM     17  H   UNL d   1      18.509   0.332   2.152  0.00  0.00     0.169 HD
ATOM     18  O   UNL d   1      16.469  -0.949   4.238  0.00  0.00    -0.272 OA
BRANCH  16  19
ATOM     19  C   UNL d   1      18.905   0.524   4.202  0.00  0.00     0.034 A 
ATOM     20  C   UNL d   1      20.152   1.125   4.009  0.00  0.00     0.032 A 
ATOM     21  C   UNL d   1      21.009   1.347   5.106  0.00  0.00     0.039 A 
ATOM     22  C   UNL d   1      20.606   1.050   6.412  0.00  0.00     0.068 A 
ATOM     23  C   UNL d   1      19.336   0.541   6.614  0.00  0.00     0.039 A 
ATOM     24  C   UNL d   1      18.502   0.291   5.523  0.00  0.00     0.032 A 
BRANCH  22  25
ATOM     25  O   UNL d   1      21.466   1.379   7.423  0.00  0.00    -0.352 OA
BRANCH  25  26
ATOM     26  C   UNL d   1      21.444   0.512   8.563  0.00  0.00     0.171 C 
ATOM     27  C   UNL d   1      22.310   1.126   9.649  0.00  0.00     0.034 C 
ENDBRANCH  25  26
ENDBRANCH  22  25
ENDBRANCH  16  19
ENDBRANCH  14  15
ENDBRANCH  13  14
ENDBRANCH   1  13
BRANCH  11  28
ATOM     28  C   UNL d   1      13.421   0.171   0.399  0.00  0.00     0.045 C 
ATOM     29  C   UNL d   1      12.777   0.849  -0.658  0.00  0.00     0.030 C 
ATOM     30  C   UNL d   1      12.644   2.247  -0.684  0.00  0.00     0.002 C 
ATOM     31  C   UNL d   1      13.148   3.024   0.346  0.00  0.00     0.001 C 
ATOM     32  C   UNL d   1      13.724   2.397   1.423  0.00  0.00     0.009 C 
ATOM     33  C   UNL d   1      13.758   0.995   1.505  0.00  0.00    -0.035 C 
ATOM     34  C   UNL d   1      14.165   0.546   2.855  0.00  0.00     0.050 C 
ENDBRANCH  11  28
TORSDOF 7
