REMARK  3 active torsions:
REMARK  status: ('A' for Active; 'I' for Inactive)
REMARK       I    between atoms: N_2  and  C_3 
REMARK    1  A    between atoms: C_3  and  C_5 
REMARK    2  A    between atoms: C_7  and  N_8 
REMARK       I    between atoms: N_8  and  C_9 
REMARK    3  A    between atoms: C_9  and  C_11 
ROOT
ATOM      1  C   UNL d   1       4.712   0.474   1.258  0.00  0.00     0.072 A 
ATOM      2  C   UNL d   1       5.470   0.019   2.369  0.00  0.00     0.049 A 
ATOM      3  C   UNL d   1       6.880   0.024   2.325  0.00  0.00     0.036 A 
ATOM      4  C   UNL d   1       7.491   0.524   1.170  0.00  0.00     0.032 A 
ATOM      5  C   UNL d   1       6.751   1.005   0.092  0.00  0.00     0.045 A 
ATOM      6  C   UNL d   1       5.368   0.973   0.136  0.00  0.00     0.132 A 
ATOM      7  F   UNL d   1       4.691   1.450  -0.918  0.00  0.00    -0.205 F 
ENDROOT
BRANCH   3   8
ATOM      8  N   UNL d   1       7.653  -0.466   3.425  0.00  0.00    -0.322 N 
ATOM      9  C   UNL d   1       9.057  -0.481   3.481  0.00  0.00     0.274 C 
ATOM     10  O   UNL d   1       9.824  -0.102   2.596  0.00  0.00    -0.266 OA
ATOM     11  H   UNL d   1       7.138  -0.771   4.243  0.00  0.00     0.169 HD
BRANCH   9  12
ATOM     12  C   UNL d   1       9.701  -1.015   4.717  0.00  0.00     0.126 A 
ATOM     13  C   UNL d   1       9.310  -2.227   5.252  0.00  0.00     0.061 A 
ATOM     14  C   UNL d   1      10.011  -2.683   6.362  0.00  0.00     0.037 A 
ATOM     15 CL   UNL d   1       9.561  -4.175   7.092  0.00  0.00    -0.084 Cl
ATOM     16  C   UNL d   1      11.070  -1.956   6.894  0.00  0.00     0.043 A 
ATOM     17  C   UNL d   1      11.408  -0.772   6.271  0.00  0.00     0.119 A 
ATOM     18  N   UNL d   1      10.747  -0.288   5.201  0.00  0.00    -0.255 NA
ENDBRANCH   9  12
ENDBRANCH   3   8
BRANCH   1  19
ATOM     19  C   UNL d   1       3.226   0.481   1.303  0.00  0.00     0.254 C 
ATOM     20  N   UNL d   1       2.551   0.067   0.169  0.00  0.00    -0.361 N 
ATOM     21  C   UNL d   1       1.106   0.058   0.110  0.00  0.00     0.149 C 
ATOM     22  H   UNL d   1       3.067  -0.197  -0.663  0.00  0.00     0.162 HD
ATOM     23  O   UNL d   1       2.659   0.824   2.339  0.00  0.00    -0.268 OA
ENDBRANCH   1  19
TORSDOF 3
