@<TRIPOS>MOLECULE
*****
 46 46 0 0 0
SMALL
GASTEIGER

@<TRIPOS>ATOM
      1 C           2.3239    3.2382   -1.8172 C.3     1  UNL1       -0.0605
      2 C           2.4638    2.3101   -0.6081 C.3     1  UNL1       -0.0196
      3 C           2.9995    3.1046    0.5878 C.3     1  UNL1       -0.0605
      4 C           3.2313    1.0100   -0.9708 C.3     1  UNL1        0.1045
      5 N           2.8219   -0.1020   -0.0930 N.am    1  UNL1       -0.2880
      6 C           3.2760   -1.3789   -0.1084 C.2     1  UNL1        0.2977
      7 N           4.0971   -1.7406   -1.1170 N.am    1  UNL1       -0.3133
      8 O           2.9504   -2.1843    0.7643 O.2     1  UNL1       -0.2531
      9 C           4.7902    1.1433   -0.9186 C.2     1  UNL1        0.2497
     10 O           5.4970    0.5012   -0.1335 O.2     1  UNL1       -0.2722
     11 N           5.3984    1.9018   -1.8920 N.am    1  UNL1       -0.2326
     12 N           6.8081    1.8899   -1.9417 N.am    1  UNL1       -0.2303
     13 C           7.4495    2.8182   -2.7386 C.2     1  UNL1        0.2602
     14 O           6.8362    3.6137   -3.4472 O.2     1  UNL1       -0.2687
     15 C           8.9383    2.8040   -2.7328 C.ar    1  UNL1        0.0399
     16 C           9.6412    4.0015   -2.8266 C.ar    1  UNL1       -0.0495
     17 C          11.0194    3.9683   -2.9995 C.ar    1  UNL1       -0.0593
     18 C          11.6975    2.7439   -3.0210 C.ar    1  UNL1       -0.0406
     19 C          11.0335    1.5075   -2.9334 C.ar    1  UNL1        0.0299
     20 N          11.7042    0.2960   -3.0161 N.pl3   1  UNL1       -0.3360
     21 C          13.1525    0.1934   -3.2205 C.3     1  UNL1        0.0004
     22 C          11.0117   -0.9934   -3.0065 C.3     1  UNL1        0.0004
     23 C           9.6336    1.5856   -2.7789 C.ar    1  UNL1       -0.0285
     24 H           1.9240    4.2136   -1.5234 H       1  UNL1        0.0233
     25 H           1.6430    2.7977   -2.5516 H       1  UNL1        0.0233
     26 H           3.2742    3.4278   -2.3154 H       1  UNL1        0.0233
     27 H           1.4418    2.0190   -0.3272 H       1  UNL1        0.0318
     28 H           3.8983    3.6799    0.3416 H       1  UNL1        0.0233
     29 H           3.2082    2.4671    1.4514 H       1  UNL1        0.0233
     30 H           2.2356    3.8297    0.9005 H       1  UNL1        0.0233
     31 H           2.9379    0.6912   -1.9801 H       1  UNL1        0.0598
     32 H           2.0752    0.0373    0.5775 H       1  UNL1        0.1510
     33 H           4.6161   -1.0351   -1.6103 H       1  UNL1        0.1465
     34 H           4.6649   -2.5485   -0.8956 H       1  UNL1        0.1465
     35 H           4.9341    2.4796   -2.5869 H       1  UNL1        0.1729
     36 H           7.2789    1.2939   -1.2595 H       1  UNL1        0.1731
     37 H           9.1253    4.9554   -2.7780 H       1  UNL1        0.0625
     38 H          11.5824    4.8875   -3.1429 H       1  UNL1        0.0618
     39 H          12.7755    2.8122   -3.1201 H       1  UNL1        0.0636
     40 H          13.6944    1.1384   -3.2666 H       1  UNL1        0.0428
     41 H          13.3673   -0.3274   -4.1608 H       1  UNL1        0.0428
     42 H          13.6020   -0.3761   -2.4000 H       1  UNL1        0.0428
     43 H           9.9292   -0.9479   -2.8917 H       1  UNL1        0.0428
     44 H          11.3780   -1.6036   -2.1752 H       1  UNL1        0.0428
     45 H          11.1917   -1.5271   -3.9458 H       1  UNL1        0.0428
     46 H           9.0277    0.6916   -2.7360 H       1  UNL1        0.0643
@<TRIPOS>BOND
     1     1     2    1
     2     2     3    1
     3     5     6   am
     4     6     7   am
     5     6     8    2
     6     4     9    1
     7     9    10    2
     8     9    11   am
     9    11    12    1
    10    12    13   am
    11    13    14    2
    12    13    15    1
    13    15    16   ar
    14    16    17   ar
    15    17    18   ar
    16    18    19   ar
    17    19    20    1
    18    20    21    1
    19    20    22    1
    20    19    23   ar
    21    15    23   ar
    22     4     5    1
    23     4     2    1
    24     1    24    1
    25     1    25    1
    26     1    26    1
    27     2    27    1
    28     3    28    1
    29     3    29    1
    30     3    30    1
    31     4    31    1
    32     5    32    1
    33     7    33    1
    34     7    34    1
    35    11    35    1
    36    12    36    1
    37    16    37    1
    38    17    38    1
    39    18    39    1
    40    21    40    1
    41    21    41    1
    42    21    42    1
    43    22    43    1
    44    22    44    1
    45    22    45    1
    46    23    46    1
