REMARK  6 active torsions:
REMARK  status: ('A' for Active; 'I' for Inactive)
REMARK    1  A    between atoms: C_5  and  C_6 
REMARK    2  A    between atoms: C_9  and  N_10 
REMARK    3  A    between atoms: N_13  and  C_14 
REMARK    4  A    between atoms: C_14  and  C_15 
REMARK    5  A    between atoms: C_15  and  O_16 
REMARK    6  A    between atoms: C_19  and  N_20 
ROOT
ATOM      1  C   UNL d   1      -0.311  -3.340  -0.205  0.00  0.00    -0.002 C 
ATOM      2  C   UNL d   1       0.525  -3.968   0.698  0.00  0.00     0.016 C 
ATOM      3  C   UNL d   1       1.020  -5.234   0.395  0.00  0.00     0.033 C 
ATOM      4  C   UNL d   1       0.564  -6.031  -0.693  0.00  0.00     0.063 C 
ATOM      5  C   UNL d   1      -0.307  -5.364  -1.595  0.00  0.00     0.130 C 
ATOM      6  C   UNL d   1      -0.741  -4.029  -1.339  0.00  0.00     0.052 C 
ENDROOT
BRANCH   1   7
ATOM      7  C   UNL d   1      -0.633  -1.898  -0.047  0.00  0.00     0.098 A 
ATOM      8  N   UNL d   1      -1.886  -1.560   0.019  0.00  0.00    -0.170 NA
ATOM      9  N   UNL d   1      -2.186  -0.229   0.102  0.00  0.00    -0.242 N 
ATOM     10  C   UNL d   1      -1.291   0.810   0.018  0.00  0.00     0.272 A 
ATOM     11  H   UNL d   1      -3.169   0.018   0.176  0.00  0.00     0.192 HD
ATOM     12  O   UNL d   1      -1.644   1.988   0.005  0.00  0.00    -0.266 OA
ATOM     13  C   UNL d   1       0.131   0.442  -0.024  0.00  0.00     0.046 A 
ATOM     14  C   UNL d   1       1.124   1.431  -0.029  0.00  0.00     0.018 A 
ATOM     15  C   UNL d   1       0.477  -0.905  -0.019  0.00  0.00     0.011 A 
ATOM     16  C   UNL d   1       2.470   1.067   0.014  0.00  0.00     0.001 A 
ATOM     17  C   UNL d   1       2.825  -0.277   0.040  0.00  0.00     0.001 A 
ATOM     18  C   UNL d   1       1.836  -1.257  -0.005  0.00  0.00     0.015 A 
ENDBRANCH   1   7
BRANCH   5  19
ATOM     19  N   UNL d   1      -0.870  -5.981  -2.811  0.00  0.00    -0.113 N 
ATOM     20  O   UNL d   1      -0.620  -7.165  -3.060  0.00  0.00    -0.532 OA
ATOM     21  O   UNL d   1      -1.589  -5.280  -3.535  0.00  0.00    -0.532 OA
ENDBRANCH   5  19
BRANCH   4  22
ATOM     22  N   UNL d   1       0.926  -7.372  -0.631  0.00  0.00    -0.376 N 
ATOM     23  C   UNL d   1       1.419  -8.286  -1.683  0.00  0.00     0.150 C 
ATOM     24  C   UNL d   1       0.532  -9.575  -1.754  0.00  0.00     0.254 C 
ATOM     25  N   UNL d   1       0.369 -10.239  -0.347  0.00  0.00    -0.066 N 
ATOM     26  C   UNL d   1      -0.044  -9.198   0.692  0.00  0.00     0.254 C 
ATOM     27  H   UNL d   1       1.293 -10.608  -0.088  0.00  0.00     0.280 HD
ATOM     28  C   UNL d   1       0.908  -8.002   0.699  0.00  0.00     0.150 C 
BRANCH  25  29
ATOM     29  C   UNL d   1      -0.598 -11.414  -0.384  0.00  0.00     0.260 C 
BRANCH  29  30
ATOM     30  C   UNL d   1      -0.686 -12.159   0.961  0.00  0.00     0.192 C 
BRANCH  30  31
ATOM     31  O   UNL d   1      -1.623 -13.221   0.882  0.00  0.00    -0.399 OA
ATOM     32  H   UNL d   1      -2.524 -12.862   0.781  0.00  0.00     0.209 HD
ENDBRANCH  30  31
ENDBRANCH  29  30
ENDBRANCH  25  29
ENDBRANCH   4  22
TORSDOF 6
