@<TRIPOS>MOLECULE
*****
 48 51 0 0 0
SMALL
GASTEIGER

@<TRIPOS>ATOM
      1 O           1.0403   -0.0674    0.0860 O.2     1  UNL1       -0.2746
      2 C           2.2632    0.0973    0.0958 C.2     1  UNL1        0.2275
      3 C           2.9334    1.4817   -0.0046 C.3     1  UNL1        0.0779
      4 S           1.7219    2.8407   -0.0692 S.3     1  UNL1       -0.0785
      5 C           2.7408    4.2509   -0.0966 C.ar    1  UNL1        0.1699
      6 N           4.0244    4.2081   -0.2188 N.ar    1  UNL1       -0.2232
      7 C           4.7066    5.4435   -0.2714 C.ar    1  UNL1        0.0790
      8 C           6.0965    5.4430   -0.4011 C.ar    1  UNL1       -0.0355
      9 C           6.8100    6.6456   -0.4713 C.ar    1  UNL1       -0.0597
     10 C           6.1378    7.8678   -0.4256 C.ar    1  UNL1       -0.0609
     11 C           4.7492    7.8895   -0.3039 C.ar    1  UNL1       -0.0474
     12 C           4.0494    6.6788   -0.2167 C.ar    1  UNL1        0.0647
     13 C           2.5842    6.6571   -0.0560 C.ar    1  UNL1        0.2598
     14 O           1.9238    7.6815    0.0168 O.2     1  UNL1       -0.2671
     15 N           2.0212    5.4059    0.0042 N.ar    1  UNL1       -0.3014
     16 N           3.0491   -1.0383    0.1104 N.am    1  UNL1       -0.2833
     17 C           4.4507   -1.1376    0.0727 C.ar    1  UNL1        0.0561
     18 C           5.1973   -0.3248    0.9317 C.ar    1  UNL1       -0.0203
     19 C           6.5806   -0.3559    0.9145 C.ar    1  UNL1        0.0428
     20 CL          7.4554    0.7372    1.9112 Cl      1  UNL1       -0.0835
     21 C           7.2385   -1.2589    0.0966 C.ar    1  UNL1       -0.0415
     22 C           6.4963   -2.1430   -0.7006 C.ar    1  UNL1       -0.0375
     23 C           5.0885   -2.1098   -0.7385 C.ar    1  UNL1        0.0514
     24 N           4.4177   -2.9596   -1.5956 N.pl3   1  UNL1       -0.3241
     25 C           3.4893   -2.4956   -2.6361 C.3     1  UNL1        0.0357
     26 C           2.1135   -3.1526   -2.4305 C.3     1  UNL1        0.0634
     27 O           2.2175   -4.5873   -2.3638 O.3     1  UNL1       -0.3767
     28 C           3.0935   -4.9833   -1.2899 C.3     1  UNL1        0.0634
     29 C           4.5150   -4.4230   -1.4920 C.3     1  UNL1        0.0357
     30 H           3.5712    1.4971   -0.8952 H       1  UNL1        0.0475
     31 H           3.5251    1.6634    0.8892 H       1  UNL1        0.0475
     32 H           6.6283    4.4965   -0.4482 H       1  UNL1        0.0639
     33 H           7.8935    6.6251   -0.5649 H       1  UNL1        0.0618
     34 H           6.6964    8.7997   -0.4830 H       1  UNL1        0.0618
     35 H           4.2196    8.8397   -0.2764 H       1  UNL1        0.0626
     36 H           1.0194    5.3562    0.1097 H       1  UNL1        0.1709
     37 H           2.5367   -1.9030   -0.0084 H       1  UNL1        0.1549
     38 H           4.7071    0.2996    1.6693 H       1  UNL1        0.0651
     39 H           8.3241   -1.2839    0.0784 H       1  UNL1        0.0633
     40 H           7.0380   -2.8310   -1.3465 H       1  UNL1        0.0637
     41 H           3.8851   -2.8230   -3.6076 H       1  UNL1        0.0486
     42 H           3.4092   -1.4050   -2.6722 H       1  UNL1        0.0486
     43 H           1.4467   -2.8980   -3.2593 H       1  UNL1        0.0575
     44 H           1.6332   -2.8049   -1.5127 H       1  UNL1        0.0575
     45 H           3.1126   -6.0769   -1.2647 H       1  UNL1        0.0575
     46 H           2.6700   -4.6303   -0.3417 H       1  UNL1        0.0575
     47 H           4.9249   -4.8201   -2.4302 H       1  UNL1        0.0486
     48 H           5.1663   -4.7458   -0.6730 H       1  UNL1        0.0486
@<TRIPOS>BOND
     1     1     2    2
     2     2     3    1
     3     3     4    1
     4     4     5    1
     5     5     6   ar
     6     6     7   ar
     7     7     8   ar
     8     8     9   ar
     9     9    10   ar
    10    10    11   ar
    11    11    12   ar
    12     7    12   ar
    13    12    13   ar
    14    13    14    2
    15    13    15   ar
    16     5    15   ar
    17     2    16   am
    18    16    17    1
    19    17    18   ar
    20    18    19   ar
    21    19    20    1
    22    19    21   ar
    23    21    22   ar
    24    22    23   ar
    25    17    23   ar
    26    23    24    1
    27    24    25    1
    28    25    26    1
    29    26    27    1
    30    27    28    1
    31    28    29    1
    32    24    29    1
    33     3    30    1
    34     3    31    1
    35     8    32    1
    36     9    33    1
    37    10    34    1
    38    11    35    1
    39    15    36    1
    40    16    37    1
    41    18    38    1
    42    21    39    1
    43    22    40    1
    44    25    41    1
    45    25    42    1
    46    26    43    1
    47    26    44    1
    48    28    45    1
    49    28    46    1
    50    29    47    1
    51    29    48    1
