REMARK  3 active torsions:
REMARK  status: ('A' for Active; 'I' for Inactive)
REMARK    1  A    between atoms: C_6  and  C_5 
REMARK    2  A    between atoms: C_6  and  N_8 
REMARK       I    between atoms: N_8  and  C_9 
REMARK    3  A    between atoms: C_9  and  C_11 
ROOT
ATOM      1  N   UNL d   1      -4.089  -0.304   0.029  0.00  0.00    -0.348 N 
ATOM      2  C   UNL d   1      -5.438   0.001   0.086  0.00  0.00     0.253 C 
ATOM      3  O   UNL d   1      -5.878   1.147   0.128  0.00  0.00    -0.268 OA
ATOM      4  H   UNL d   1      -3.796  -1.269  -0.034  0.00  0.00     0.163 HD
ENDROOT
BRANCH   2   5
ATOM      5  C   UNL d   1      -6.393  -1.137   0.074  0.00  0.00     0.046 A 
ATOM      6  C   UNL d   1      -6.225  -2.247   0.921  0.00  0.00     0.018 A 
ATOM      7  C   UNL d   1      -7.169  -3.282   0.944  0.00  0.00     0.003 A 
ATOM      8  C   UNL d   1      -8.302  -3.256   0.125  0.00  0.00     0.032 A 
ATOM      9  C   UNL d   1      -8.454  -2.143  -0.707  0.00  0.00     0.062 A 
ATOM     10  N   UNL d   1      -9.434  -1.817  -1.608  0.00  0.00    -0.278 N 
ATOM     11  C   UNL d   1      -7.543  -1.088  -0.745  0.00  0.00     0.027 A 
ATOM     12  N   UNL d   1      -9.239  -0.642  -2.226  0.00  0.00    -0.186 NA
ATOM     13  H   UNL d   1     -10.258  -2.357  -1.848  0.00  0.00     0.189 HD
ATOM     14  C   UNL d   1      -8.098  -0.195  -1.692  0.00  0.00     0.153 A 
ENDBRANCH   2   5
BRANCH   1  15
ATOM     15  C   UNL d   1      -3.058   0.733  -0.004  0.00  0.00     0.121 C 
ATOM     16  C   UNL d   1      -1.642   0.147   0.024  0.00  0.00     0.038 C 
BRANCH  15  17
ATOM     17  C   UNL d   1      -3.184   1.645  -1.205  0.00  0.00     0.005 A 
ATOM     18  C   UNL d   1      -2.976   3.013  -1.214  0.00  0.00     0.018 A 
ATOM     19  C   UNL d   1      -3.120   3.581  -2.508  0.00  0.00     0.015 A 
ATOM     20  C   UNL d   1      -3.446   2.636  -3.457  0.00  0.00    -0.021 A 
ATOM     21  C   UNL d   1      -3.697   2.845  -4.910  0.00  0.00     0.056 C 
ATOM     22  S   UNL d   1      -3.546   1.068  -2.780  0.00  0.00    -0.098 SA
ENDBRANCH  15  17
ENDBRANCH   1  15
TORSDOF 3
