@<TRIPOS>MOLECULE
*****
 46 48 0 0 0
SMALL
GASTEIGER

@<TRIPOS>ATOM
      1 C           2.4863   -1.7609    0.1391 C.3     1  UNL1       -0.0260
      2 C           1.6616   -0.5091    0.0132 C.2     1  UNL1        0.0167
      3 C           2.0555    0.7918    0.0877 C.2     1  UNL1        0.0571
      4 C           3.5162    1.1881    0.2703 C.2     1  UNL1        0.2628
      5 O           4.3848    0.3164    0.3796 O.2     1  UNL1       -0.2687
      6 N           3.8753    2.5357    0.3058 N.am    1  UNL1       -0.2031
      7 N           5.2238    2.8381    0.4509 N.2     1  UNL1       -0.1875
      8 C           5.5820    4.0767    0.5807 C.2     1  UNL1        0.0528
      9 C           7.0113    4.4559    0.7843 C.ar    1  UNL1       -0.0052
     10 C           8.0382    3.8014    0.0912 C.ar    1  UNL1       -0.0497
     11 C           9.3794    4.1734    0.2876 C.ar    1  UNL1       -0.0196
     12 C           9.6869    5.1865    1.1912 C.ar    1  UNL1        0.1169
     13 O          10.9694    5.5883    1.4269 O.3     1  UNL1       -0.5068
     14 C           8.6756    5.8326    1.8948 C.ar    1  UNL1       -0.0196
     15 C           7.3349    5.4796    1.6837 C.ar    1  UNL1       -0.0497
     16 C           0.9947    1.8570   -0.0999 C.3     1  UNL1        0.0793
     17 C           0.9808    2.3843   -1.5310 C.ar    1  UNL1       -0.0162
     18 C           0.7785    1.5298   -2.6347 C.ar    1  UNL1       -0.0561
     19 C           0.9687    1.9750   -3.9423 C.ar    1  UNL1       -0.0550
     20 C           1.2801    3.3093   -4.1807 C.ar    1  UNL1        0.0156
     21 C           1.4291    4.1812   -3.0954 C.ar    1  UNL1        0.2735
     22 N           1.8296    5.5716   -3.3294 N.pl3   1  UNL1        0.0796
     23 O           1.9820    5.9436   -4.4972 O.2     1  UNL1        0.0414
     24 O           2.0119    6.2862   -2.3287 O.co2   1  UNL1       -0.5760
     25 C           1.2716    3.7300   -1.7773 C.ar    1  UNL1        0.0208
     26 N          -0.3236    1.3656    0.2710 N.am    1  UNL1       -0.3153
     27 C          -0.6998    0.0866    0.0144 C.2     1  UNL1        0.1350
     28 S          -2.2917   -0.3800    0.0014 S.2     1  UNL1       -0.0185
     29 N           0.3153   -0.7980   -0.1857 N.am    1  UNL1       -0.3001
     30 H           3.5489   -1.6194    0.3005 H       1  UNL1        0.0290
     31 H           2.3808   -2.3812   -0.7571 H       1  UNL1        0.0290
     32 H           2.1216   -2.3347    0.9992 H       1  UNL1        0.0290
     33 H           3.2223    3.3013    0.2289 H       1  UNL1        0.1776
     34 H           4.8527    4.9058    0.5717 H       1  UNL1        0.0851
     35 H           7.7990    3.0081   -0.6133 H       1  UNL1        0.0625
     36 H          10.1610    3.6599   -0.2654 H       1  UNL1        0.0654
     37 H          11.5797    5.0801    0.8675 H       1  UNL1        0.2921
     38 H           8.9376    6.6070    2.6121 H       1  UNL1        0.0654
     39 H           6.5645    5.9911    2.2531 H       1  UNL1        0.0625
     40 H           1.1694    2.6789    0.6030 H       1  UNL1        0.0601
     41 H           0.4999    0.4870   -2.4929 H       1  UNL1        0.0621
     42 H           0.9011    1.2680   -4.7671 H       1  UNL1        0.0620
     43 H           1.4096    3.6462   -5.2061 H       1  UNL1        0.0685
     44 H           1.4019    4.4149   -0.9421 H       1  UNL1        0.0689
     45 H          -1.0737    2.0229    0.4439 H       1  UNL1        0.1486
     46 H           0.0352   -1.7613   -0.3523 H       1  UNL1        0.1535
@<TRIPOS>UNITY_ATOM_ATTR
22 1
charge 1
24 1
charge -1
@<TRIPOS>BOND
     1     1     2    1
     2     2     3    2
     3     3     4    1
     4     4     5    2
     5     4     6   am
     6     6     7    1
     7     7     8    2
     8     8     9    1
     9     9    10   ar
    10    10    11   ar
    11    11    12   ar
    12    12    13    1
    13    12    14   ar
    14    14    15   ar
    15     9    15   ar
    16     3    16    1
    17    17    18   ar
    18    18    19   ar
    19    19    20   ar
    20    20    21   ar
    21    21    22    1
    22    22    23    2
    23    22    24    1
    24    21    25   ar
    25    17    25   ar
    26    16    26    1
    27    26    27    1
    28    27    28    2
    29    27    29    1
    30     2    29    1
    31    16    17    1
    32     1    30    1
    33     1    31    1
    34     1    32    1
    35     6    33    1
    36     8    34    1
    37    10    35    1
    38    11    36    1
    39    13    37    1
    40    14    38    1
    41    15    39    1
    42    16    40    1
    43    18    41    1
    44    19    42    1
    45    20    43    1
    46    25    44    1
    47    26    45    1
    48    29    46    1
