REMARK  12 active torsions:
REMARK  status: ('A' for Active; 'I' for Inactive)
REMARK    1  A    between atoms: C_2  and  O_3 
REMARK    2  A    between atoms: O_3  and  C_4 
REMARK    3  A    between atoms: C_4  and  C_5 
REMARK    4  A    between atoms: C_5  and  O_6 
REMARK    5  A    between atoms: O_6  and  C_7 
REMARK    6  A    between atoms: C_10  and  C_11 
REMARK       I    between atoms: C_11  and  N_13 
REMARK    7  A    between atoms: N_13  and  C_14 
REMARK    8  A    between atoms: C_14  and  N_16 
REMARK    9  A    between atoms: N_16  and  N_17 
REMARK       I    between atoms: N_17  and  C_18 
REMARK   10  A    between atoms: C_18  and  C_20 
REMARK   11  A    between atoms: C_20  and  O_21 
REMARK   12  A    between atoms: O_21  and  C_22 
ROOT
ATOM      1  C   UNL d   1      10.074  -7.672   6.084  0.00  0.00     0.193 C 
ATOM      2  S   UNL d   1      11.543  -7.270   6.814  0.00  0.00    -0.039 SA
ENDROOT
BRANCH   1   3
ATOM      3  N   UNL d   1       9.283  -6.796   5.293  0.00  0.00    -0.298 N 
ATOM      4  C   UNL d   1       9.579  -5.444   4.975  0.00  0.00     0.257 C 
ATOM      5  O   UNL d   1      10.609  -4.872   5.353  0.00  0.00    -0.267 OA
ATOM      6  H   UNL d   1       8.413  -7.166   4.942  0.00  0.00     0.171 HD
BRANCH   4   7
ATOM      7  C   UNL d   1       8.644  -4.573   4.171  0.00  0.00     0.032 A 
ATOM      8  C   UNL d   1       9.015  -3.220   3.976  0.00  0.00     0.020 A 
ATOM      9  C   UNL d   1       8.170  -2.303   3.333  0.00  0.00     0.038 A 
ATOM     10  C   UNL d   1       6.961  -2.727   2.793  0.00  0.00     0.068 A 
ATOM     11  C   UNL d   1       6.591  -4.064   2.950  0.00  0.00     0.038 A 
ATOM     12  C   UNL d   1       7.424  -4.983   3.632  0.00  0.00     0.020 A 
BRANCH  10  13
ATOM     13  O   UNL d   1       6.298  -1.793   2.047  0.00  0.00    -0.349 OA
BRANCH  13  14
ATOM     14  C   UNL d   1       4.873  -1.882   1.980  0.00  0.00     0.201 C 
BRANCH  14  15
ATOM     15  C   UNL d   1       4.372  -0.878   0.940  0.00  0.00     0.194 C 
BRANCH  15  16
ATOM     16  O   UNL d   1       2.942  -0.870   0.908  0.00  0.00    -0.389 OA
BRANCH  16  17
ATOM     17  C   UNL d   1       2.459   0.071  -0.051  0.00  0.00     0.163 C 
ATOM     18  C   UNL d   1       0.944   0.063  -0.042  0.00  0.00     0.033 C 
ENDBRANCH  16  17
ENDBRANCH  15  16
ENDBRANCH  14  15
ENDBRANCH  13  14
ENDBRANCH  10  13
ENDBRANCH   4   7
ENDBRANCH   1   3
BRANCH   1  19
ATOM     19  N   UNL d   1       9.560  -8.973   6.252  0.00  0.00    -0.273 N 
ATOM     20  H   UNL d   1       8.690  -9.335   5.865  0.00  0.00     0.189 HD
BRANCH  19  21
ATOM     21  N   UNL d   1      10.321  -9.942   7.044  0.00  0.00    -0.266 N 
ATOM     22  C   UNL d   1       9.873 -11.246   7.228  0.00  0.00     0.260 C 
ATOM     23  O   UNL d   1       8.805 -11.618   6.737  0.00  0.00    -0.269 OA
ATOM     24  H   UNL d   1      11.199  -9.590   7.428  0.00  0.00     0.190 HD
BRANCH  22  25
ATOM     25  C   UNL d   1      10.798 -12.175   8.089  0.00  0.00     0.280 C 
BRANCH  25  26
ATOM     26  O   UNL d   1      10.293 -13.515   8.097  0.00  0.00    -0.342 OA
BRANCH  26  27
ATOM     27  C   UNL d   1      10.829 -14.462   8.929  0.00  0.00     0.069 A 
ATOM     28  C   UNL d   1      10.687 -15.785   8.483  0.00  0.00     0.038 A 
ATOM     29  C   UNL d   1      11.032 -16.870   9.299  0.00  0.00     0.022 A 
ATOM     30  C   UNL d   1      11.590 -16.634  10.549  0.00  0.00     0.011 A 
ATOM     31 BR   UNL d   1      12.158 -18.090  11.615  0.00  0.00    -0.051 Br
ATOM     32  C   UNL d   1      11.755 -15.325  11.002  0.00  0.00     0.022 A 
ATOM     33  C   UNL d   1      11.371 -14.239  10.194  0.00  0.00     0.038 A 
ENDBRANCH  26  27
ENDBRANCH  25  26
ENDBRANCH  22  25
ENDBRANCH  19  21
ENDBRANCH   1  19
TORSDOF 12
