@<TRIPOS>MOLECULE
*****
 50 52 0 0 0
SMALL
GASTEIGER

@<TRIPOS>ATOM
      1 O           1.1216    0.0846    0.0850 O.2     1  UNL1       -0.2513
      2 C           2.3489    0.0841    0.0320 C.2     1  UNL1        0.3160
      3 N           3.0252   -0.2935   -1.0987 N.am    1  UNL1       -0.2982
      4 C           2.3211   -0.7083   -2.3003 C.3     1  UNL1        0.0147
      5 C           3.2811   -1.0867   -3.4258 C.3     1  UNL1       -0.0191
      6 C           2.5377   -1.5085   -4.6902 C.3     1  UNL1        0.0296
      7 N           3.4747   -1.8881   -5.7631 N.ar    1  UNL1       -0.2957
      8 C           3.7162   -3.1818   -6.2168 C.ar    1  UNL1        0.0732
      9 C           4.6247   -3.0841   -7.2330 C.ar    1  UNL1        0.1870
     10 N           4.9093   -1.7461   -7.3669 N.ar    1  UNL1       -0.2011
     11 C           4.2105   -1.0251   -6.4848 C.ar    1  UNL1        0.2463
     12 N           3.1164    0.4517    1.1084 N.am    1  UNL1       -0.2179
     13 N           4.5299    0.5794    1.1477 N.am    1  UNL1       -0.2266
     14 C           5.1137    1.0172    2.3362 C.2     1  UNL1        0.2958
     15 O           4.4055    1.4651    3.2472 O.2     1  UNL1       -0.2653
     16 C           6.5650    0.8704    2.4373 C.ar    1  UNL1        0.1968
     17 O           7.3806    1.3117    1.4210 O.2     1  UNL1       -0.4579
     18 C           8.6695    1.1575    1.8397 C.ar    1  UNL1        0.0932
     19 C           8.7122    0.5648    3.0763 C.ar    1  UNL1       -0.0167
     20 C           7.3597    0.3615    3.4623 C.ar    1  UNL1        0.0399
     21 C           6.9109   -0.2800    4.7297 C.3     1  UNL1        0.1183
     22 O           5.5246   -0.5616    4.6653 O.3     1  UNL1       -0.4873
     23 C           4.8518   -0.7950    5.8196 C.ar    1  UNL1        0.1210
     24 C           3.6287   -1.4420    5.6370 C.ar    1  UNL1       -0.0199
     25 C           2.8024   -1.6997    6.7253 C.ar    1  UNL1       -0.0583
     26 C           3.2262   -1.3590    8.0072 C.ar    1  UNL1       -0.0615
     27 C           4.4437   -0.7054    8.1911 C.ar    1  UNL1       -0.0583
     28 C           5.2508   -0.4066    7.0948 C.ar    1  UNL1       -0.0199
     29 H           4.0276   -0.2894   -1.0673 H       1  UNL1        0.1503
     30 H           1.6700    0.1167   -2.6135 H       1  UNL1        0.0463
     31 H           1.6743   -1.5566   -2.0453 H       1  UNL1        0.0463
     32 H           3.9362   -1.9032   -3.0986 H       1  UNL1        0.0297
     33 H           3.9382   -0.2383   -3.6526 H       1  UNL1        0.0297
     34 H           1.9099   -0.6945   -5.0705 H       1  UNL1        0.0494
     35 H           1.8839   -2.3648   -4.4869 H       1  UNL1        0.0494
     36 H           3.2046   -4.0105   -5.7571 H       1  UNL1        0.0871
     37 H           5.1082   -3.7926   -7.8831 H       1  UNL1        0.1392
     38 H           5.5549   -1.3487   -8.0465 H       1  UNL1        0.4538
     39 H           4.2404    0.0528   -6.3737 H       1  UNL1        0.1600
     40 H           2.6195    0.7456    1.9548 H       1  UNL1        0.1744
     41 H           5.1060    0.1548    0.4389 H       1  UNL1        0.1733
     42 H           9.4423    1.5070    1.1679 H       1  UNL1        0.1029
     43 H           9.6010    0.3102    3.6424 H       1  UNL1        0.0653
     44 H           7.2055    0.3780    5.5529 H       1  UNL1        0.0749
     45 H           7.4236   -1.2423    4.8397 H       1  UNL1        0.0749
     46 H           3.3218   -1.7404    4.6375 H       1  UNL1        0.0654
     47 H           1.8291   -2.1554    6.5705 H       1  UNL1        0.0619
     48 H           2.6016   -1.5924    8.8641 H       1  UNL1        0.0618
     49 H           4.7588   -0.4071    9.1873 H       1  UNL1        0.0619
     50 H           6.1633    0.1485    7.2751 H       1  UNL1        0.0654
@<TRIPOS>UNITY_ATOM_ATTR
10 1
charge 1
@<TRIPOS>BOND
     1     1     2    2
     2     2     3   am
     3     3     4    1
     4     4     5    1
     5     5     6    1
     6     6     7    1
     7     7     8   ar
     8     8     9   ar
     9     9    10   ar
    10    10    11   ar
    11     7    11   ar
    12     2    12   am
    13    12    13    1
    14    13    14   am
    15    14    15    2
    16    14    16    1
    17    16    17   ar
    18    17    18   ar
    19    18    19   ar
    20    19    20   ar
    21    16    20   ar
    22    20    21    1
    23    21    22    1
    24    22    23    1
    25    23    24   ar
    26    24    25   ar
    27    25    26   ar
    28    26    27   ar
    29    27    28   ar
    30    23    28   ar
    31     3    29    1
    32     4    30    1
    33     4    31    1
    34     5    32    1
    35     5    33    1
    36     6    34    1
    37     6    35    1
    38     8    36    1
    39     9    37    1
    40    10    38    1
    41    11    39    1
    42    12    40    1
    43    13    41    1
    44    18    42    1
    45    19    43    1
    46    21    44    1
    47    21    45    1
    48    24    46    1
    49    25    47    1
    50    26    48    1
    51    27    49    1
    52    28    50    1
