REMARK  7 active torsions:
REMARK  status: ('A' for Active; 'I' for Inactive)
REMARK    1  A    between atoms: C_2  and  C_3 
REMARK    2  A    between atoms: C_3  and  N_4 
REMARK       I    between atoms: N_4  and  C_5 
REMARK    3  A    between atoms: C_5  and  C_7 
REMARK    4  A    between atoms: C_10  and  N_11 
REMARK       I    between atoms: N_11  and  C_12 
REMARK    5  A    between atoms: C_12  and  C_14 
REMARK       I    between atoms: C_14  and  N_16 
REMARK    6  A    between atoms: N_16  and  C_17 
REMARK    7  A    between atoms: C_17  and  C_18 
ROOT
ATOM      1  C   UNL d   1       6.636   2.048  -1.616  0.00  0.00     0.053 A 
ATOM      2  C   UNL d   1       7.397   3.232  -1.534  0.00  0.00     0.021 A 
ATOM      3  C   UNL d   1       8.819   3.196  -1.513  0.00  0.00     0.030 A 
ATOM      4  C   UNL d   1       9.506   1.973  -1.589  0.00  0.00     0.036 A 
ATOM      5  C   UNL d   1       8.723   0.820  -1.705  0.00  0.00     0.054 A 
ATOM      6  C   UNL d   1       7.321   0.843  -1.727  0.00  0.00     0.051 A 
ATOM      7 CL   UNL d   1       6.538  -0.685  -1.948  0.00  0.00    -0.083 Cl
ENDROOT
BRANCH   4   8
ATOM      8  N   UNL d   1      10.938   1.903  -1.553  0.00  0.00    -0.319 N 
ATOM      9  C   UNL d   1      11.690   0.717  -1.621  0.00  0.00     0.313 C 
ATOM     10  O   UNL d   1      11.262  -0.430  -1.722  0.00  0.00    -0.262 OA
ATOM     11  H   UNL d   1      11.468   2.769  -1.466  0.00  0.00     0.169 HD
BRANCH   9  12
ATOM     12  C   UNL d   1      13.232   0.840  -1.559  0.00  0.00     0.309 C 
ATOM     13  O   UNL d   1      13.765   1.938  -1.446  0.00  0.00    -0.262 OA
ATOM     14  N   UNL d   1      13.896  -0.378  -1.640  0.00  0.00    -0.348 N 
ATOM     15  H   UNL d   1      13.328  -1.220  -1.718  0.00  0.00     0.163 HD
BRANCH  14  16
ATOM     16  C   UNL d   1      15.336  -0.491  -1.584  0.00  0.00     0.169 C 
BRANCH  16  17
ATOM     17  C   UNL d   1      15.865  -1.902  -1.702  0.00  0.00     0.000 A 
ATOM     18  C   UNL d   1      17.180  -2.260  -1.967  0.00  0.00     0.017 A 
ATOM     19  C   UNL d   1      17.384  -3.670  -2.003  0.00  0.00     0.008 A 
ATOM     20  C   UNL d   1      16.219  -4.359  -1.758  0.00  0.00     0.050 A 
ATOM     21  S   UNL d   1      14.901  -3.303  -1.469  0.00  0.00    -0.105 SA
ENDBRANCH  16  17
ENDBRANCH  14  16
ENDBRANCH   9  12
ENDBRANCH   4   8
BRANCH   1  22
ATOM     22  C   UNL d   1       5.142   2.125  -1.627  0.00  0.00     0.253 C 
ATOM     23  N   UNL d   1       4.457   1.206  -0.847  0.00  0.00    -0.357 N 
ATOM     24  H   UNL d   1       4.976   0.479  -0.369  0.00  0.00     0.162 HD
ATOM     25  O   UNL d   1       4.587   2.994  -2.292  0.00  0.00    -0.268 OA
BRANCH  23  26
ATOM     26  C   UNL d   1       3.005   1.132  -0.847  0.00  0.00     0.122 C 
BRANCH  26  27
ATOM     27  C   UNL d   1       2.470   0.022   0.059  0.00  0.00     0.015 C 
ATOM     28  C   UNL d   1       0.947   0.003   0.069  0.00  0.00     0.006 C 
ENDBRANCH  26  27
ENDBRANCH  23  26
ENDBRANCH   1  22
TORSDOF 7
