@<TRIPOS>MOLECULE
*****
 62 63 0 0 0
SMALL
GASTEIGER

@<TRIPOS>ATOM
      1 C           5.5850    2.5905   -0.7424 C.3     1  UNL1       -0.0652
      2 C           5.0717    1.1819   -0.5372 C.3     1  UNL1       -0.0538
      3 C           4.9200    0.9494    0.9575 C.3     1  UNL1       -0.0256
      4 C           4.4962   -0.4942    1.2622 C.3     1  UNL1        0.1073
      5 C           2.9839   -0.3116    0.9061 C.2     1  UNL1        0.2340
      6 O           2.2697    0.4614    1.5479 O.2     1  UNL1       -0.2738
      7 N           2.4987   -1.0342   -0.1975 N.am    1  UNL1       -0.3138
      8 C           1.0490   -1.1740   -0.2944 C.3     1  UNL1        0.0119
      9 C           0.4614   -2.3562   -1.1186 C.3     1  UNL1       -0.0350
     10 C          -1.0931   -2.4840   -1.0801 C.3     1  UNL1       -0.0453
     11 C          -1.7536   -1.1323   -1.2816 C.3     1  UNL1       -0.0626
     12 C          -1.6741   -3.6092   -1.9193 C.3     1  UNL1       -0.0626
     13 N           4.9524   -1.0464    2.6191 N.am    1  UNL1       -0.2550
     14 C           4.0914   -1.4485    3.7124 C.2     1  UNL1        0.2614
     15 O           4.5676   -1.7854    4.7996 O.2     1  UNL1       -0.2689
     16 C           2.6508   -1.4941    3.5588 C.ar    1  UNL1        0.1156
     17 S           1.6159   -0.6197    4.6037 S.2     1  UNL1        0.0190
     18 N           0.1841   -0.9630    3.8228 N.ar    1  UNL1       -0.2031
     19 C           0.4319   -1.9010    2.8995 C.ar    1  UNL1        0.1554
     20 C          -0.6580   -2.4479    2.0807 C.2     1  UNL1        0.2624
     21 N          -1.8147   -1.7179    1.8499 N.am    1  UNL1       -0.3240
     22 O          -0.4655   -3.5284    1.4900 O.2     1  UNL1       -0.2687
     23 C           1.8679   -2.2415    2.7142 C.ar    1  UNL1        0.0765
     24 N           2.4438   -3.0365    1.7521 N.pl3   1  UNL1       -0.3551
     25 C           6.4156   -1.2078    2.8357 C.ar    1  UNL1        0.0380
     26 C           6.9712   -2.3099    3.4952 C.ar    1  UNL1       -0.0402
     27 C           8.3370   -2.3368    3.8723 C.ar    1  UNL1       -0.0595
     28 C           9.2127   -1.3047    3.5296 C.ar    1  UNL1       -0.0500
     29 C           8.7151   -0.2169    2.8422 C.ar    1  UNL1        0.0566
     30 C           9.5445    1.0078    2.5184 C.3     1  UNL1        0.4175
     31 F          10.0572    1.6009    3.6294 F       1  UNL1       -0.1659
     32 F          10.5972    0.7308    1.7046 F       1  UNL1       -0.1659
     33 F           8.8405    1.9901    1.8769 F       1  UNL1       -0.1659
     34 C           7.3492   -0.2142    2.5169 C.ar    1  UNL1       -0.0286
     35 H           5.6481    2.8163   -1.8062 H       1  UNL1        0.0230
     36 H           6.5799    2.7062   -0.2966 H       1  UNL1        0.0230
     37 H           4.9133    3.3070   -0.2588 H       1  UNL1        0.0230
     38 H           5.7839    0.4619   -0.9610 H       1  UNL1        0.0263
     39 H           4.1154    1.0517   -1.0486 H       1  UNL1        0.0263
     40 H           4.2433    1.6703    1.4292 H       1  UNL1        0.0288
     41 H           5.8365    1.2878    1.3628 H       1  UNL1        0.0288
     42 H           4.9337   -1.1935    0.5335 H       1  UNL1        0.0600
     43 H           3.0596   -1.8122   -0.5085 H       1  UNL1        0.1487
     44 H           0.5850   -0.1923   -0.4171 H       1  UNL1        0.0462
     45 H           0.7876   -1.3932    0.7106 H       1  UNL1        0.0462
     46 H           0.8744   -3.3101   -0.7607 H       1  UNL1        0.0283
     47 H           0.7868   -2.2640   -2.1535 H       1  UNL1        0.0283
     48 H          -1.4477   -2.8574   -0.1403 H       1  UNL1        0.0296
     49 H          -1.4496   -0.7256   -2.2442 H       1  UNL1        0.0232
     50 H          -1.4550   -0.4224   -0.5010 H       1  UNL1        0.0232
     51 H          -2.8428   -1.1918   -1.2182 H       1  UNL1        0.0232
     52 H          -1.4052   -3.5009   -2.9646 H       1  UNL1        0.0232
     53 H          -2.7683   -3.6260   -1.8109 H       1  UNL1        0.0232
     54 H          -1.3237   -4.5798   -1.5387 H       1  UNL1        0.0232
     55 H          -2.1481   -0.9754    2.4484 H       1  UNL1        0.1453
     56 H          -2.4659   -1.9978    1.1219 H       1  UNL1        0.1453
     57 H           1.9038   -3.2505    0.9159 H       1  UNL1        0.1424
     58 H           3.4198   -2.8854    1.4996 H       1  UNL1        0.1424
     59 H           6.3611   -3.1746    3.7478 H       1  UNL1        0.0636
     60 H           8.7124   -3.1582    4.4784 H       1  UNL1        0.0618
     61 H          10.2602   -1.3308    3.8199 H       1  UNL1        0.0623
     62 H           7.1018    0.7287    2.1052 H       1  UNL1        0.0642
@<TRIPOS>BOND
     1     1     2    1
     2     2     3    1
     3     5     6    2
     4     5     7   am
     5     7     8    1
     6     8     9    1
     7     9    10    1
     8    10    11    1
     9    10    12    1
    10     4    13    1
    11    13    14   am
    12    14    15    2
    13    14    16    1
    14    16    17   ar
    15    17    18   ar
    16    18    19   ar
    17    19    20    1
    18    20    21   am
    19    20    22    2
    20    19    23   ar
    21    16    23   ar
    22    23    24    1
    23    13    25    1
    24    25    26   ar
    25    26    27   ar
    26    27    28   ar
    27    28    29   ar
    28    29    30    1
    29    30    31    1
    30    30    32    1
    31    30    33    1
    32    29    34   ar
    33    25    34   ar
    34     4     5    1
    35     4     3    1
    36     1    35    1
    37     1    36    1
    38     1    37    1
    39     2    38    1
    40     2    39    1
    41     3    40    1
    42     3    41    1
    43     4    42    1
    44     7    43    1
    45     8    44    1
    46     8    45    1
    47     9    46    1
    48     9    47    1
    49    10    48    1
    50    11    49    1
    51    11    50    1
    52    11    51    1
    53    12    52    1
    54    12    53    1
    55    12    54    1
    56    21    55    1
    57    21    56    1
    58    24    57    1
    59    24    58    1
    60    26    59    1
    61    27    60    1
    62    28    61    1
    63    34    62    1
