@<TRIPOS>MOLECULE
*****
 65 68 0 0 0
SMALL
GASTEIGER

@<TRIPOS>ATOM
      1 C           4.6483    6.4581   -7.7303 C.3     1  UNL1        0.0788
      2 O           5.3553    5.3282   -7.2290 O.3     1  UNL1       -0.4951
      3 C           5.3118    5.2398   -5.8686 C.ar    1  UNL1        0.1201
      4 C           6.4701    4.7965   -5.2289 C.ar    1  UNL1       -0.0196
      5 C           6.4795    4.6988   -3.8565 C.ar    1  UNL1       -0.0529
      6 C           5.4279    5.2813   -3.1266 C.ar    1  UNL1       -0.0180
      7 C           5.5451    5.3381   -1.5869 C.3     1  UNL1        0.1281
      8 C           5.3086    4.0048   -1.1246 C.2     1  UNL1        0.2383
      9 O           5.2984    3.1925   -2.1003 O.2     1  UNL1       -0.2734
     10 N           4.7540    3.7881    0.4921 N.am    1  UNL1       -0.3106
     11 C           3.0909    2.8677    0.7249 C.3     1  UNL1        0.0232
     12 C           1.5343    3.2234   -0.7698 C.3     1  UNL1       -0.0345
     13 C          -0.0051    2.2827   -0.7932 C.3     1  UNL1       -0.0514
     14 C           0.3289    0.6542   -0.6455 C.3     1  UNL1       -0.0529
     15 C           1.3594   -0.0001    0.7579 C.3     1  UNL1       -0.0514
     16 C           3.0574    0.8454    1.1448 C.3     1  UNL1       -0.0345
     17 N           4.6469    6.2722   -0.9736 N.am    1  UNL1       -0.2766
     18 C           3.3169    5.9479   -0.4275 C.3     1  UNL1        0.0473
     19 C           2.9175    4.5450   -0.4717 C.ar    1  UNL1        0.0071
     20 C           3.4532    2.9985   -1.1411 C.ar    1  UNL1       -0.0500
     21 C           2.6061    1.6582   -0.6933 C.ar    1  UNL1       -0.0544
     22 C           1.4575    2.1315    0.7036 C.ar    1  UNL1       -0.0240
     23 S           1.3512    4.3391    1.1237 S.2     1  UNL1       -0.1000
     24 C           5.0652    7.5617   -1.2158 C.2     1  UNL1        0.2577
     25 O           6.0517    7.7913   -1.9103 O.2     1  UNL1       -0.2693
     26 C           4.3300    8.5515   -0.5164 C.ar    1  UNL1        0.1153
     27 S           3.7090    9.9200   -1.2879 S.2     1  UNL1        0.0190
     28 N           2.9400   10.5359    0.0674 N.ar    1  UNL1       -0.2031
     29 C           3.1734    9.7145    1.1055 C.ar    1  UNL1        0.1554
     30 C           2.6577    9.9304    2.4672 C.2     1  UNL1        0.2624
     31 N           1.9559   11.0672    2.7236 N.am    1  UNL1       -0.3240
     32 O           2.8360    9.1205    3.3796 O.2     1  UNL1       -0.2687
     33 C           3.9943    8.5824    0.8120 C.ar    1  UNL1        0.0765
     34 N           4.3669    7.6649    1.7399 N.pl3   1  UNL1       -0.3551
     35 C           4.1942    5.4637   -3.7707 C.ar    1  UNL1       -0.0529
     36 C           4.1473    5.4924   -5.1454 C.ar    1  UNL1       -0.0196
     37 H           4.6801    6.3966   -8.8177 H       1  UNL1        0.0660
     38 H           5.1413    7.3802   -7.4070 H       1  UNL1        0.0660
     39 H           3.5889    6.4800   -7.4519 H       1  UNL1        0.0660
     40 H           7.3931    4.5975   -5.7594 H       1  UNL1        0.0654
     41 H           7.2485    4.1106   -3.3438 H       1  UNL1        0.0622
     42 H           6.5671    5.2543   -1.1945 H       1  UNL1        0.0648
     43 H           4.6820    4.6880    0.9931 H       1  UNL1        0.1490
     44 H           2.9832    3.1604    1.8783 H       1  UNL1        0.0498
     45 H           1.7841    3.0465   -1.9210 H       1  UNL1        0.0283
     46 H           1.0865    4.2565   -1.0735 H       1  UNL1        0.0283
     47 H          -0.5979    2.6090   -1.6506 H       1  UNL1        0.0266
     48 H          -0.5764    2.6064    0.1001 H       1  UNL1        0.0266
     49 H           0.8412    0.4153   -1.5895 H       1  UNL1        0.0265
     50 H          -0.6464    0.1817   -0.5654 H       1  UNL1        0.0265
     51 H           1.5635   -1.0458    0.5294 H       1  UNL1        0.0266
     52 H           0.7158    0.1119    1.6506 H       1  UNL1        0.0266
     53 H           3.3283    0.0598    0.3587 H       1  UNL1        0.0283
     54 H           3.7127    0.5702    1.9546 H       1  UNL1        0.0283
     55 H           2.4865    6.5427   -0.8159 H       1  UNL1        0.0519
     56 H           3.3007    6.1413    0.6483 H       1  UNL1        0.0519
     57 H           4.5192    2.4240   -0.7301 H       1  UNL1        0.0626
     58 H           3.6188    1.0349   -0.7600 H       1  UNL1        0.0623
     59 H           1.3507    1.8519    1.7473 H       1  UNL1        0.0693
     60 H           1.7792   11.7612    2.0133 H       1  UNL1        0.1453
     61 H           1.6354   11.2034    3.6721 H       1  UNL1        0.1453
     62 H           3.9106    7.6665    2.6608 H       1  UNL1        0.1424
     63 H           4.9169    6.8351    1.5486 H       1  UNL1        0.1424
     64 H           3.2603    5.5283   -3.2186 H       1  UNL1        0.0622
     65 H           3.2060    5.7552   -5.6110 H       1  UNL1        0.0654
@<TRIPOS>BOND
     1     1     2    1
     2     2     3    1
     3     3     4   ar
     4     4     5   ar
     5     5     6   ar
     6     8     9    2
     7     8    10   am
     8    10    11    1
     9    11    12    1
    10    12    13    1
    11    13    14    1
    12    14    15    1
    13    15    16    1
    14    11    16    1
    15     7    17    1
    16    17    18    1
    17    18    19    1
    18    19    20   ar
    19    20    21   ar
    20    21    22   ar
    21    22    23   ar
    22    19    23   ar
    23    17    24   am
    24    24    25    2
    25    24    26    1
    26    26    27   ar
    27    27    28   ar
    28    28    29   ar
    29    29    30    1
    30    30    31   am
    31    30    32    2
    32    29    33   ar
    33    26    33   ar
    34    33    34    1
    35     6    35   ar
    36    35    36   ar
    37     3    36   ar
    38     7     8    1
    39     7     6    1
    40     1    37    1
    41     1    38    1
    42     1    39    1
    43     4    40    1
    44     5    41    1
    45     7    42    1
    46    10    43    1
    47    11    44    1
    48    12    45    1
    49    12    46    1
    50    13    47    1
    51    13    48    1
    52    14    49    1
    53    14    50    1
    54    15    51    1
    55    15    52    1
    56    16    53    1
    57    16    54    1
    58    18    55    1
    59    18    56    1
    60    20    57    1
    61    21    58    1
    62    22    59    1
    63    31    60    1
    64    31    61    1
    65    34    62    1
    66    34    63    1
    67    35    64    1
    68    36    65    1
