@<TRIPOS>MOLECULE
*****
 61 65 0 0 0
SMALL
GASTEIGER

@<TRIPOS>ATOM
      1 C           0.9624    0.1413    0.0304 C.3     1  UNL1       -0.0358
      2 C           2.4942    0.1665    0.0843 C.3     1  UNL1        0.0684
      3 C           2.9255    0.3253    1.5527 C.3     1  UNL1       -0.0358
      4 C           2.9888   -1.1530   -0.4607 C.3     1  UNL1        0.0025
      5 C           4.4680   -1.1949   -0.7297 C.ar    1  UNL1       -0.0158
      6 C           5.1996    0.0156   -0.8582 C.ar    1  UNL1        0.0697
      7 C           6.6010   -0.0142   -1.0582 C.ar    1  UNL1        0.2784
      8 N           7.4291    1.0973   -1.0134 N.pl3   1  UNL1       -0.2777
      9 C           7.3170    2.1462    0.0231 C.3     1  UNL1        0.0174
     10 C           7.2727    3.4689   -0.7364 C.3     1  UNL1       -0.0356
     11 C           8.2339    3.2120   -1.8803 C.3     1  UNL1       -0.0356
     12 C           8.0620    1.7096   -2.2087 C.3     1  UNL1        0.0174
     13 N           7.1813   -1.2422   -1.1820 N.ar    1  UNL1       -0.1851
     14 C           6.4678   -2.4265   -1.0768 C.ar    1  UNL1        0.2566
     15 S           7.0987   -4.0424   -1.1652 S.2     1  UNL1       -0.0133
     16 C           5.5495   -4.7861   -0.9241 C.ar    1  UNL1        0.1012
     17 C           5.2222   -6.2366   -0.8818 C.2     1  UNL1        0.2528
     18 O           4.0535   -6.6238   -0.7113 O.2     1  UNL1       -0.2696
     19 N           6.2046   -7.1865   -1.0375 N.am    1  UNL1       -0.3084
     20 C           5.8950   -8.6350   -1.0131 C.3     1  UNL1        0.0382
     21 C           7.1423   -9.4971   -1.2535 C.3     1  UNL1        0.0742
     22 C           7.7324   -9.2380   -2.6277 C.3     1  UNL1       -0.0231
     23 C           8.4910  -10.5048   -2.9099 C.3     1  UNL1       -0.0271
     24 C           7.6397  -11.5612   -2.2374 C.3     1  UNL1        0.0482
     25 O           6.8821  -10.9089   -1.1994 O.3     1  UNL1       -0.3750
     26 C           4.5958   -3.7921   -0.7786 C.ar    1  UNL1        0.0581
     27 N           3.2943   -4.0971   -0.5730 N.pl3   1  UNL1       -0.3563
     28 C           5.1063   -2.4468   -0.8550 C.ar    1  UNL1        0.0793
     29 C           4.4244    1.3186   -0.7124 C.3     1  UNL1        0.0812
     30 O           2.9987    1.1873   -0.7781 O.3     1  UNL1       -0.3687
     31 H           0.5663   -0.6703    0.6551 H       1  UNL1        0.0257
     32 H           0.5946   -0.0153   -0.9901 H       1  UNL1        0.0257
     33 H           0.5432    1.0858    0.3859 H       1  UNL1        0.0257
     34 H           2.5103   -0.4776    2.1723 H       1  UNL1        0.0257
     35 H           2.5965    1.2899    1.9450 H       1  UNL1        0.0257
     36 H           4.0121    0.2783    1.6805 H       1  UNL1        0.0257
     37 H           2.4906   -1.4069   -1.4060 H       1  UNL1        0.0341
     38 H           2.7396   -1.8923    0.3038 H       1  UNL1        0.0341
     39 H           8.2314    2.1063    0.6237 H       1  UNL1        0.0465
     40 H           6.4910    2.0451    0.7242 H       1  UNL1        0.0465
     41 H           7.5763    4.3171   -0.1116 H       1  UNL1        0.0281
     42 H           6.2721    3.6910   -1.1250 H       1  UNL1        0.0281
     43 H           9.2593    3.4213   -1.5485 H       1  UNL1        0.0281
     44 H           8.0390    3.8654   -2.7391 H       1  UNL1        0.0281
     45 H           9.0535    1.2685   -2.3572 H       1  UNL1        0.0465
     46 H           7.4743    1.5884   -3.1242 H       1  UNL1        0.0465
     47 H           8.1890   -1.2691   -1.2970 H       1  UNL1        0.4554
     48 H           7.1589   -6.8936   -1.1778 H       1  UNL1        0.1491
     49 H           5.1272   -8.8540   -1.7704 H       1  UNL1        0.0487
     50 H           5.4295   -8.8899   -0.0511 H       1  UNL1        0.0487
     51 H           7.8787   -9.2814   -0.4700 H       1  UNL1        0.0611
     52 H           8.3619   -8.3453   -2.6446 H       1  UNL1        0.0291
     53 H           6.9363   -9.1135   -3.3717 H       1  UNL1        0.0291
     54 H           9.4801  -10.4578   -2.4408 H       1  UNL1        0.0288
     55 H           8.6331  -10.6903   -3.9784 H       1  UNL1        0.0288
     56 H           8.2516  -12.3679   -1.8185 H       1  UNL1        0.0560
     57 H           6.9258  -12.0047   -2.9390 H       1  UNL1        0.0560
     58 H           2.9796   -5.0755   -0.5343 H       1  UNL1        0.1424
     59 H           2.5018   -3.4722   -0.6266 H       1  UNL1        0.1424
     60 H           4.7223    2.0168   -1.4975 H       1  UNL1        0.0613
     61 H           4.6327    1.7803    0.2529 H       1  UNL1        0.0613
@<TRIPOS>UNITY_ATOM_ATTR
13 1
charge 1
@<TRIPOS>BOND
     1     1     2    1
     2     2     3    1
     3     2     4    1
     4     4     5    1
     5     5     6   ar
     6     6     7   ar
     7     7     8    1
     8     8     9    1
     9     9    10    1
    10    10    11    1
    11    11    12    1
    12     8    12    1
    13     7    13   ar
    14    13    14   ar
    15    14    15   ar
    16    15    16   ar
    17    16    17    1
    18    17    18    2
    19    17    19   am
    20    19    20    1
    21    20    21    1
    22    21    22    1
    23    22    23    1
    24    23    24    1
    25    24    25    1
    26    21    25    1
    27    16    26   ar
    28    26    27    1
    29    26    28   ar
    30     5    28   ar
    31    14    28   ar
    32     6    29    1
    33    29    30    1
    34     2    30    1
    35     1    31    1
    36     1    32    1
    37     1    33    1
    38     3    34    1
    39     3    35    1
    40     3    36    1
    41     4    37    1
    42     4    38    1
    43     9    39    1
    44     9    40    1
    45    10    41    1
    46    10    42    1
    47    11    43    1
    48    11    44    1
    49    12    45    1
    50    12    46    1
    51    13    47    1
    52    19    48    1
    53    20    49    1
    54    20    50    1
    55    21    51    1
    56    22    52    1
    57    22    53    1
    58    23    54    1
    59    23    55    1
    60    24    56    1
    61    24    57    1
    62    27    58    1
    63    27    59    1
    64    29    60    1
    65    29    61    1
