REMARK  4 active torsions:
REMARK  status: ('A' for Active; 'I' for Inactive)
REMARK    1  A    between atoms: C_5  and  N_6 
REMARK       I    between atoms: N_6  and  C_7 
REMARK    2  A    between atoms: C_9  and  C_7 
REMARK    3  A    between atoms: C_9  and  N_11 
REMARK       I    between atoms: N_11  and  C_12 
REMARK    4  A    between atoms: C_12  and  C_14 
ROOT
ATOM      1  C   UNL d   1      -5.442   1.574  -0.021  0.00  0.00     0.173 C 
ATOM      2  C   UNL d   1      -3.914   1.487  -0.044  0.00  0.00     0.042 C 
ENDROOT
BRANCH   1   3
ATOM      3  N   UNL d   1      -5.915   2.949   0.019  0.00  0.00    -0.344 N 
ATOM      4  C   UNL d   1      -7.263   3.208  -0.092  0.00  0.00     0.252 C 
ATOM      5  O   UNL d   1      -8.122   2.327  -0.101  0.00  0.00    -0.268 OA
ATOM      6  H   UNL d   1      -5.239   3.700  -0.046  0.00  0.00     0.163 HD
BRANCH   4   7
ATOM      7  C   UNL d   1      -7.668   4.624  -0.120  0.00  0.00     0.032 A 
ATOM      8  C   UNL d   1      -8.764   5.038   0.648  0.00  0.00     0.017 A 
ATOM      9  C   UNL d   1      -9.257   6.334   0.501  0.00  0.00     0.001 A 
ATOM     10  C   UNL d   1      -8.616   7.229  -0.357  0.00  0.00     0.000 A 
ATOM     11  C   UNL d   1      -7.506   6.820  -1.098  0.00  0.00     0.001 A 
ATOM     12  C   UNL d   1      -7.032   5.514  -0.987  0.00  0.00     0.017 A 
ENDBRANCH   4   7
ENDBRANCH   1   3
BRANCH   1  13
ATOM     13  C   UNL d   1      -5.918   0.710   1.156  0.00  0.00     0.245 C 
ATOM     14  N   UNL d   1      -6.455   1.361   2.255  0.00  0.00    -0.310 N 
ATOM     15  H   UNL d   1      -6.689   2.343   2.188  0.00  0.00     0.170 HD
ATOM     16  O   UNL d   1      -5.690  -0.500   1.076  0.00  0.00    -0.271 OA
BRANCH  14  17
ATOM     17  C   UNL d   1      -6.881   0.735   3.439  0.00  0.00     0.129 A 
ATOM     18  C   UNL d   1      -6.691  -0.624   3.628  0.00  0.00     0.051 A 
ATOM     19  C   UNL d   1      -7.092  -1.241   4.797  0.00  0.00     0.012 A 
ATOM     20  C   UNL d   1      -7.687  -0.488   5.790  0.00  0.00    -0.044 A 
ATOM     21  C   UNL d   1      -8.112  -1.147   7.059  0.00  0.00     0.049 C 
ATOM     22  C   UNL d   1      -7.849   0.873   5.540  0.00  0.00     0.125 A 
ATOM     23  N   UNL d   1      -7.460   1.504   4.391  0.00  0.00    -0.243 NA
ENDBRANCH  14  17
ENDBRANCH   1  13
TORSDOF 4
