REMARK  5 active torsions:
REMARK  status: ('A' for Active; 'I' for Inactive)
REMARK    1  A    between atoms: C_5  and  C_6 
REMARK       I    between atoms: C_6  and  N_8 
REMARK    2  A    between atoms: N_8  and  N_9 
REMARK       I    between atoms: N_9  and  C_10 
REMARK    3  A    between atoms: C_10  and  C_12 
REMARK    4  A    between atoms: C_12  and  C_13 
REMARK    5  A    between atoms: C_18  and  O_19 
ROOT
ATOM      1  C   UNL d   1      -2.438  -2.010  -0.058  0.00  0.00     0.272 C 
ATOM      2  O   UNL d   1      -3.519  -1.401  -0.072  0.00  0.00    -0.266 OA
ATOM      3  N   UNL d   1      -2.385  -3.396  -0.079  0.00  0.00    -0.263 N 
ATOM      4  H   UNL d   1      -1.526  -3.946  -0.070  0.00  0.00     0.190 HD
ENDROOT
BRANCH   3   5
ATOM      5  N   UNL d   1      -3.587  -4.183  -0.130  0.00  0.00    -0.267 N 
ATOM      6  C   UNL d   1      -3.437  -5.558  -0.141  0.00  0.00     0.236 C 
ATOM      7  O   UNL d   1      -2.294  -6.027  -0.074  0.00  0.00    -0.272 OA
ATOM      8  H   UNL d   1      -4.469  -3.679  -0.147  0.00  0.00     0.190 HD
BRANCH   6   9
ATOM      9  C   UNL d   1      -4.710  -6.457  -0.242  0.00  0.00     0.113 C 
BRANCH   9  10
ATOM     10  C   UNL d   1      -4.235  -7.940  -0.256  0.00  0.00     0.017 C 
ATOM     11  C   UNL d   1      -4.121  -8.491   1.139  0.00  0.00    -0.026 C 
ATOM     12  C   UNL d   1      -4.229  -9.822   1.168  0.00  0.00    -0.030 C 
ATOM     13  C   UNL d   1      -4.499 -10.379  -0.188  0.00  0.00     0.027 C 
ATOM     14  C   UNL d   1      -4.900  -9.121  -1.001  0.00  0.00     0.012 C 
ENDBRANCH   9  10
ENDBRANCH   6   9
ENDBRANCH   3   5
BRANCH   1  15
ATOM     15  C   UNL d   1      -1.153  -1.215  -0.021  0.00  0.00     0.066 A 
ATOM     16  C   UNL d   1       0.112  -1.827  -0.000  0.00  0.00     0.020 A 
ATOM     17  C   UNL d   1       1.295  -1.060   0.018  0.00  0.00     0.008 A 
ATOM     18  C   UNL d   1       1.246   0.337   0.004  0.00  0.00    -0.059 A 
ATOM     19  C   UNL d   1       2.489   1.182  -0.001  0.00  0.00     0.048 C 
ATOM     20  C   UNL d   1      -0.005   0.956  -0.007  0.00  0.00     0.044 A 
ATOM     21  C   UNL d   1      -1.183   0.195  -0.012  0.00  0.00     0.082 A 
BRANCH  21  22
ATOM     22  O   UNL d   1      -2.339   0.935  -0.005  0.00  0.00    -0.360 OA
ATOM     23  H   UNL d   1      -3.100   0.316  -0.001  0.00  0.00     0.217 HD
ENDBRANCH  21  22
ENDBRANCH   1  15
TORSDOF 5
