@<TRIPOS>MOLECULE
*****
 54 58 0 0 0
SMALL
GASTEIGER

@<TRIPOS>ATOM
      1 C           0.9497    0.0325   -0.0826 C.3     1  UNL1       -0.0427
      2 N           2.4453    0.0386   -0.1398 N.4     1  UNL1        0.2369
      3 C           2.9515    1.1891   -1.0050 C.3     1  UNL1       -0.0277
      4 C           4.4577    1.3604   -0.8199 C.3     1  UNL1        0.0144
      5 C           5.1666    0.0550   -0.9747 C.ar    1  UNL1       -0.0131
      6 C           4.5106   -1.1564   -0.8632 C.ar    1  UNL1        0.0400
      7 S           5.5767   -2.4695   -1.1066 S.2     1  UNL1       -0.0724
      8 C           6.9217   -1.4285   -1.2904 C.ar    1  UNL1        0.0799
      9 C           6.5615   -0.1071   -1.2120 C.ar    1  UNL1        0.0687
     10 C           7.5637    0.9232   -1.3529 C.2     1  UNL1        0.2483
     11 O           7.2925    2.1203   -1.2498 O.2     1  UNL1       -0.2701
     12 N           8.8239    0.4941   -1.6067 N.am    1  UNL1       -0.2891
     13 C           9.2665   -0.8768   -1.7081 C.3     1  UNL1        0.1142
     14 C           9.8660   -1.1090   -3.0752 C.ar    1  UNL1       -0.0060
     15 C          11.2452   -1.1626   -3.2876 C.ar    1  UNL1       -0.0550
     16 C          11.7525   -1.1390   -4.5903 C.ar    1  UNL1       -0.0579
     17 C          10.8873   -1.1266   -5.6901 C.ar    1  UNL1       -0.0193
     18 C           9.5079   -1.1108   -5.4863 C.ar    1  UNL1        0.1291
     19 O           8.7017   -0.9379   -6.5924 O.3     1  UNL1       -0.4492
     20 C           7.3858   -0.5592   -6.4131 C.ar    1  UNL1        0.2054
     21 C           6.4516   -1.4256   -7.0139 C.ar    1  UNL1       -0.0061
     22 C           5.0772   -1.1619   -6.9604 C.ar    1  UNL1        0.0195
     23 C           4.6168   -0.0738   -6.2158 C.ar    1  UNL1        0.2799
     24 N           3.1738    0.1069   -5.9948 N.pl3   1  UNL1        0.0798
     25 O           2.4013   -0.6956   -6.5329 O.2     1  UNL1        0.0414
     26 O           2.8213    1.0058   -5.2152 O.co2   1  UNL1       -0.5760
     27 C           5.5248    0.8045   -5.6130 C.ar    1  UNL1        0.0964
     28 C           6.9151    0.5899   -5.7444 C.ar    1  UNL1        0.3212
     29 N           7.7943    1.5831   -5.0923 N.pl3   1  UNL1        0.0837
     30 O           7.2489    2.3672   -4.3032 O.2     1  UNL1        0.0416
     31 O           9.0013    1.5967   -5.3440 O.co2   1  UNL1       -0.5759
     32 C           9.0143   -1.1435   -4.1851 C.ar    1  UNL1       -0.0128
     33 N           8.1926   -1.8275   -1.4870 N.pl3   1  UNL1       -0.3162
     34 C           3.0398   -1.3013   -0.5987 C.3     1  UNL1        0.0005
     35 H           0.6231    1.0006    0.3108 H       1  UNL1        0.0778
     36 H           0.6315   -0.7673    0.5889 H       1  UNL1        0.0778
     37 H           0.5658   -0.1184   -1.0946 H       1  UNL1        0.0778
     38 H           2.7944    0.1962    0.8156 H       1  UNL1        0.2034
     39 H           2.4249    2.0999   -0.7053 H       1  UNL1        0.0818
     40 H           2.6973    0.9379   -2.0412 H       1  UNL1        0.0818
     41 H           4.6730    1.7563    0.1801 H       1  UNL1        0.0366
     42 H           4.8168    2.0826   -1.5586 H       1  UNL1        0.0366
     43 H           9.4986    1.2319   -1.7623 H       1  UNL1        0.1511
     44 H          10.0255   -1.0078   -0.9309 H       1  UNL1        0.0759
     45 H          11.9334   -1.1966   -2.4462 H       1  UNL1        0.0621
     46 H          12.8277   -1.0824   -4.7479 H       1  UNL1        0.0619
     47 H          11.2985   -1.0809   -6.6961 H       1  UNL1        0.0654
     48 H           6.7958   -2.3303   -7.5170 H       1  UNL1        0.0659
     49 H           4.3867   -1.8157   -7.4928 H       1  UNL1        0.0686
     50 H           5.1550    1.6574   -5.0443 H       1  UNL1        0.0755
     51 H           7.9488   -1.0846   -3.9975 H       1  UNL1        0.0658
     52 H           8.4454   -2.7996   -1.6401 H       1  UNL1        0.1486
     53 H           2.8263   -2.0246    0.1955 H       1  UNL1        0.0872
     54 H           2.5059   -1.5819   -1.5132 H       1  UNL1        0.0872
@<TRIPOS>UNITY_ATOM_ATTR
2 1
charge 1
24 1
charge 1
26 1
charge -1
29 1
charge 1
31 1
charge -1
@<TRIPOS>BOND
     1     1     2    1
     2     2     3    1
     3     3     4    1
     4     4     5    1
     5     5     6   ar
     6     6     7   ar
     7     7     8   ar
     8     8     9   ar
     9     5     9   ar
    10     9    10    1
    11    10    11    2
    12    10    12   am
    13    12    13    1
    14    13    14    1
    15    14    15   ar
    16    15    16   ar
    17    16    17   ar
    18    17    18   ar
    19    18    19    1
    20    19    20    1
    21    20    21   ar
    22    21    22   ar
    23    22    23   ar
    24    23    24    1
    25    24    25    2
    26    24    26    1
    27    23    27   ar
    28    27    28   ar
    29    20    28   ar
    30    28    29    1
    31    29    30    2
    32    29    31    1
    33    18    32   ar
    34    14    32   ar
    35    13    33    1
    36     8    33    1
    37     6    34    1
    38     2    34    1
    39     1    35    1
    40     1    36    1
    41     1    37    1
    42     2    38    1
    43     3    39    1
    44     3    40    1
    45     4    41    1
    46     4    42    1
    47    12    43    1
    48    13    44    1
    49    15    45    1
    50    16    46    1
    51    17    47    1
    52    21    48    1
    53    22    49    1
    54    27    50    1
    55    32    51    1
    56    33    52    1
    57    34    53    1
    58    34    54    1
