REMARK  5 active torsions:
REMARK  status: ('A' for Active; 'I' for Inactive)
REMARK    1  A    between atoms: N_1  and  C_2 
REMARK    2  A    between atoms: C_2  and  C_15 
REMARK    3  A    between atoms: N_3  and  O_4 
REMARK    4  A    between atoms: O_4  and  C_5 
REMARK       I    between atoms: C_5  and  N_7 
REMARK    5  A    between atoms: N_7  and  C_8 
ROOT
ATOM      1  C   UNL d   1       2.527   0.132  -0.102  0.00  0.00     0.159 C 
ATOM      2  N   UNL d   1       3.226   1.184  -0.426  0.00  0.00    -0.105 NA
ENDROOT
BRANCH   2   3
ATOM      3  O   UNL d   1       2.438   2.287  -0.918  0.00  0.00    -0.154 OA
BRANCH   3   4
ATOM      4  C   UNL d   1       3.278   3.313  -1.367  0.00  0.00     0.389 C 
ATOM      5  O   UNL d   1       4.510   3.248  -1.348  0.00  0.00    -0.236 OA
ATOM      6  N   UNL d   1       2.578   4.451  -1.779  0.00  0.00    -0.301 N 
ATOM      7  H   UNL d   1       1.597   4.492  -1.542  0.00  0.00     0.171 HD
BRANCH   6   8
ATOM      8  C   UNL d   1       3.207   5.647  -2.232  0.00  0.00     0.037 A 
ATOM      9  C   UNL d   1       4.327   5.611  -3.073  0.00  0.00     0.031 A 
ATOM     10  C   UNL d   1       4.947   6.792  -3.510  0.00  0.00     0.026 A 
ATOM     11  C   UNL d   1       4.465   8.026  -3.088  0.00  0.00     0.034 A 
ATOM     12 CL   UNL d   1       5.258   9.473  -3.583  0.00  0.00    -0.084 Cl
ATOM     13  C   UNL d   1       3.343   8.087  -2.264  0.00  0.00     0.026 A 
ATOM     14  C   UNL d   1       2.700   6.901  -1.858  0.00  0.00     0.031 A 
ENDBRANCH   6   8
ENDBRANCH   3   4
ENDBRANCH   2   3
BRANCH   1  15
ATOM     15  N   UNL d   1       1.158   0.048  -0.183  0.00  0.00    -0.382 N 
ATOM     16  H   UNL d   1       0.642   0.900  -0.352  0.00  0.00     0.157 HD
ATOM     17  H   UNL d   1       0.661  -0.697   0.293  0.00  0.00     0.157 HD
ENDBRANCH   1  15
BRANCH   1  18
ATOM     18  C   UNL d   1       3.254  -1.113   0.384  0.00  0.00     0.012 A 
ATOM     19  C   UNL d   1       2.823  -2.381  -0.049  0.00  0.00     0.017 A 
ATOM     20  C   UNL d   1       3.446  -3.551   0.410  0.00  0.00     0.025 A 
ATOM     21  C   UNL d   1       4.503  -3.465   1.313  0.00  0.00     0.034 A 
ATOM     22 CL   UNL d   1       5.247  -4.905   1.898  0.00  0.00    -0.084 Cl
ATOM     23  C   UNL d   1       4.951  -2.217   1.744  0.00  0.00     0.025 A 
ATOM     24  C   UNL d   1       4.332  -1.041   1.277  0.00  0.00     0.017 A 
ENDBRANCH   1  18
TORSDOF 5
