@<TRIPOS>MOLECULE
*****
 55 57 0 0 0
SMALL
GASTEIGER

@<TRIPOS>ATOM
      1 C           1.1104    0.0518    0.1184 C.3     1  UNL1        0.0790
      2 O           2.5433    0.0758    0.1729 O.3     1  UNL1       -0.4914
      3 C           3.1467   -1.1108    0.5307 C.ar    1  UNL1        0.1634
      4 C           2.7186   -2.3169   -0.0417 C.ar    1  UNL1       -0.0080
      5 C           3.3474   -3.5169    0.2841 C.ar    1  UNL1        0.0021
      6 C           2.8757   -4.8006   -0.3235 C.3     1  UNL1       -0.0075
      7 N           3.6684   -5.9639    0.1575 N.4     1  UNL1        0.2314
      8 C           3.2430   -7.2613   -0.4056 C.3     1  UNL1       -0.0175
      9 C           4.1240   -8.3791    0.1580 C.3     1  UNL1        0.0491
     10 N           3.7962   -9.6272   -0.4784 N.pl3   1  UNL1       -0.3388
     11 C           4.3146  -10.8351   -0.0512 C.ar    1  UNL1        0.0277
     12 C           4.5323  -11.8260   -1.0162 C.ar    1  UNL1       -0.0344
     13 C           5.0083  -13.0891   -0.6625 C.ar    1  UNL1        0.0173
     14 C           5.3414  -13.3450    0.6706 C.ar    1  UNL1        0.2733
     15 N           5.9568  -14.6277    1.0288 N.pl3   1  UNL1        0.0796
     16 O           6.1416  -15.4497    0.1272 O.2     1  UNL1        0.0414
     17 O           6.2773  -14.7939    2.2185 O.co2   1  UNL1       -0.5760
     18 C           5.1478  -12.3643    1.6477 C.ar    1  UNL1        0.0173
     19 C           4.6460  -11.1119    1.2793 C.ar    1  UNL1       -0.0344
     20 C           4.4157   -3.4841    1.1801 C.ar    1  UNL1       -0.0314
     21 C           4.8773   -2.3023    1.7446 C.ar    1  UNL1        0.0866
     22 CL          6.1996   -2.5986    2.8298 Cl      1  UNL1       -0.0796
     23 C           4.2640   -1.0852    1.4144 C.ar    1  UNL1        0.1806
     24 O           4.6255    0.1555    1.8661 O.3     1  UNL1       -0.4822
     25 C           5.7421    0.2559    2.7536 C.3     1  UNL1        0.1163
     26 C           6.0028    1.6706    3.1478 C.ar    1  UNL1        0.0077
     27 C           5.5191    2.7330    2.3918 C.ar    1  UNL1       -0.0525
     28 C           5.7340    4.0280    2.8275 C.ar    1  UNL1       -0.0432
     29 C           6.4561    4.2143    3.9943 C.ar    1  UNL1        0.0276
     30 N           6.9916    3.2100    4.7227 N.ar    1  UNL1       -0.2629
     31 C           6.7605    1.9584    4.2805 C.ar    1  UNL1        0.0339
     32 H           0.7592    1.0423   -0.1895 H       1  UNL1        0.0660
     33 H           0.6933   -0.1669    1.1066 H       1  UNL1        0.0660
     34 H           0.7167   -0.6543   -0.6211 H       1  UNL1        0.0660
     35 H           1.9095   -2.3243   -0.7685 H       1  UNL1        0.0660
     36 H           2.9831   -4.7686   -1.4122 H       1  UNL1        0.0866
     37 H           1.8343   -4.9881   -0.0431 H       1  UNL1        0.0866
     38 H           3.6017   -6.0017    1.1844 H       1  UNL1        0.2017
     39 H           4.6575   -5.8038   -0.0827 H       1  UNL1        0.2017
     40 H           3.3347   -7.1879   -1.4934 H       1  UNL1        0.0829
     41 H           2.1942   -7.4078   -0.1292 H       1  UNL1        0.0829
     42 H           4.0014   -8.4099    1.2466 H       1  UNL1        0.0514
     43 H           5.1775   -8.1483   -0.0481 H       1  UNL1        0.0514
     44 H           2.9800   -9.7106   -1.0819 H       1  UNL1        0.1463
     45 H           4.3629  -11.6056   -2.0690 H       1  UNL1        0.0638
     46 H           5.1210  -13.8476   -1.4333 H       1  UNL1        0.0686
     47 H           5.3758  -12.5582    2.6946 H       1  UNL1        0.0686
     48 H           4.4906  -10.3800    2.0657 H       1  UNL1        0.0638
     49 H           4.9454   -4.3837    1.4767 H       1  UNL1        0.0638
     50 H           6.6516   -0.1079    2.2613 H       1  UNL1        0.0748
     51 H           5.5014   -0.2827    3.6768 H       1  UNL1        0.0748
     52 H           4.9570    2.5481    1.4800 H       1  UNL1        0.0622
     53 H           5.3328    4.8655    2.2718 H       1  UNL1        0.0633
     54 H           6.6254    5.2115    4.3865 H       1  UNL1        0.0829
     55 H           7.2063    1.1736    4.8892 H       1  UNL1        0.0833
@<TRIPOS>UNITY_ATOM_ATTR
7 1
charge 1
15 1
charge 1
17 1
charge -1
@<TRIPOS>BOND
     1     1     2    1
     2     2     3    1
     3     3     4   ar
     4     4     5   ar
     5     5     6    1
     6     6     7    1
     7     7     8    1
     8     8     9    1
     9     9    10    1
    10    10    11    1
    11    11    12   ar
    12    12    13   ar
    13    13    14   ar
    14    14    15    1
    15    15    16    2
    16    15    17    1
    17    14    18   ar
    18    18    19   ar
    19    11    19   ar
    20     5    20   ar
    21    20    21   ar
    22    21    22    1
    23    21    23   ar
    24     3    23   ar
    25    23    24    1
    26    24    25    1
    27    25    26    1
    28    26    27   ar
    29    27    28   ar
    30    28    29   ar
    31    29    30   ar
    32    30    31   ar
    33    26    31   ar
    34     1    32    1
    35     1    33    1
    36     1    34    1
    37     4    35    1
    38     6    36    1
    39     6    37    1
    40     7    38    1
    41     7    39    1
    42     8    40    1
    43     8    41    1
    44     9    42    1
    45     9    43    1
    46    10    44    1
    47    12    45    1
    48    13    46    1
    49    18    47    1
    50    19    48    1
    51    20    49    1
    52    25    50    1
    53    25    51    1
    54    27    52    1
    55    28    53    1
    56    29    54    1
    57    31    55    1
