@<TRIPOS>MOLECULE
*****
 45 45 0 0 0
SMALL
GASTEIGER

@<TRIPOS>ATOM
      1 C           1.0595   -0.0573   -0.0419 C.3     1  UNL1       -0.0653
      2 C           2.5794   -0.0728   -0.0524 C.3     1  UNL1       -0.0559
      3 C           3.1141   -1.2653   -0.8530 C.3     1  UNL1       -0.0529
      4 C           4.6455   -1.2805   -0.8633 C.3     1  UNL1       -0.0448
      5 C           5.2420   -2.4579   -1.6539 C.3     1  UNL1        0.0254
      6 C           6.7831   -2.4270   -1.6327 C.2     1  UNL1        0.2291
      7 O           7.4287   -1.5580   -1.0488 O.2     1  UNL1       -0.2743
      8 N           7.4083   -3.4529   -2.3209 N.am    1  UNL1       -0.2351
      9 N           8.8587   -3.5479   -2.3785 N.am    1  UNL1       -0.2455
     10 C           9.4476   -4.6050   -3.0944 C.2     1  UNL1        0.1533
     11 S           8.4546   -5.7405   -3.8544 S.2     1  UNL1       -0.0170
     12 N          10.8646   -4.6226   -3.1063 N.am    1  UNL1       -0.2627
     13 C          11.6797   -5.5557   -3.7901 C.2     1  UNL1        0.2496
     14 O          11.2642   -6.4941   -4.4655 O.2     1  UNL1       -0.2698
     15 C          13.1716   -5.4738   -3.7237 C.ar    1  UNL1        0.0378
     16 C          13.9024   -5.8354   -4.8782 C.ar    1  UNL1       -0.0496
     17 C          15.2853   -6.0342   -4.8251 C.ar    1  UNL1       -0.0603
     18 C          15.9641   -5.8186   -3.6280 C.ar    1  UNL1       -0.0477
     19 C          15.2554   -5.4682   -2.4651 C.ar    1  UNL1        0.0597
     20 C          16.0305   -5.3440   -1.1961 C.2     1  UNL1        0.3389
     21 O          17.2468   -5.4820   -1.1336 O.2     1  UNL1       -0.2450
     22 O          15.2146   -5.0667   -0.1498 O.3     1  UNL1       -0.4645
     23 C          15.8927   -4.9342    1.1050 C.3     1  UNL1        0.0820
     24 C          13.8542   -5.3016   -2.5156 C.ar    1  UNL1       -0.0356
     25 H           0.6883    0.7975    0.5321 H       1  UNL1        0.0230
     26 H           0.6647   -0.9712    0.4132 H       1  UNL1        0.0230
     27 H           0.6647    0.0181   -1.0601 H       1  UNL1        0.0230
     28 H           2.9463   -0.1179    0.9801 H       1  UNL1        0.0263
     29 H           2.9463    0.8658   -0.4848 H       1  UNL1        0.0263
     30 H           2.7343   -1.2109   -1.8803 H       1  UNL1        0.0265
     31 H           2.7343   -2.1956   -0.4140 H       1  UNL1        0.0265
     32 H           5.0072   -1.3180    0.1717 H       1  UNL1        0.0270
     33 H           5.0072   -0.3366   -1.2897 H       1  UNL1        0.0270
     34 H           4.8881   -2.4129   -2.6914 H       1  UNL1        0.0359
     35 H           4.8880   -3.4012   -1.2197 H       1  UNL1        0.0359
     36 H           6.8971   -4.1858   -2.8135 H       1  UNL1        0.1728
     37 H           9.3487   -2.8020   -1.8865 H       1  UNL1        0.1718
     38 H          11.3434   -3.8754   -2.6239 H       1  UNL1        0.1569
     39 H          13.3872   -6.0094   -5.8244 H       1  UNL1        0.0625
     40 H          15.8268   -6.3886   -5.7022 H       1  UNL1        0.0618
     41 H          17.0469   -5.9476   -3.6019 H       1  UNL1        0.0626
     42 H          15.1468   -4.7117    1.8738 H       1  UNL1        0.0661
     43 H          16.6068   -4.1052    1.0699 H       1  UNL1        0.0661
     44 H          16.3970   -5.8676    1.3761 H       1  UNL1        0.0661
     45 H          13.2978   -5.1122   -1.6047 H       1  UNL1        0.0633
@<TRIPOS>BOND
     1     1     2    1
     2     2     3    1
     3     3     4    1
     4     4     5    1
     5     5     6    1
     6     6     7    2
     7     6     8   am
     8     8     9    1
     9     9    10    1
    10    10    11    2
    11    10    12    1
    12    12    13   am
    13    13    14    2
    14    13    15    1
    15    15    16   ar
    16    16    17   ar
    17    17    18   ar
    18    18    19   ar
    19    19    20    1
    20    20    21    2
    21    20    22    1
    22    22    23    1
    23    19    24   ar
    24    15    24   ar
    25     1    25    1
    26     1    26    1
    27     1    27    1
    28     2    28    1
    29     2    29    1
    30     3    30    1
    31     3    31    1
    32     4    32    1
    33     4    33    1
    34     5    34    1
    35     5    35    1
    36     8    36    1
    37     9    37    1
    38    12    38    1
    39    16    39    1
    40    17    40    1
    41    18    41    1
    42    23    42    1
    43    23    43    1
    44    23    44    1
    45    24    45    1
