@<TRIPOS>MOLECULE
*****
 79 80 0 0 0
SMALL
GASTEIGER

@<TRIPOS>ATOM
      1 C           8.2016    8.6861    3.8629 C.3     1  UNL1        0.0004
      2 N           7.3692    8.0135    2.9008 N.pl3   1  UNL1       -0.3360
      3 C           6.5041    8.7284    1.9779 C.3     1  UNL1        0.0004
      4 C           7.0002    6.7215    3.1772 C.ar    1  UNL1        0.0292
      5 C           6.6645    5.8765    2.1431 C.ar    1  UNL1       -0.0403
      6 C           5.9913    4.7256    2.4383 C.ar    1  UNL1       -0.0546
      7 C           5.9440    4.1780    3.7010 C.ar    1  UNL1       -0.0181
      8 C           5.6094    2.7606    4.0813 C.3     1  UNL1        0.1282
      9 C           4.9942    2.2363    2.8176 C.2     1  UNL1        0.2385
     10 O           4.0139    1.5968    2.9589 O.2     1  UNL1       -0.2734
     11 N           5.3080    2.3996    1.5089 N.am    1  UNL1       -0.3085
     12 C           4.4186    1.7439    0.5480 C.3     1  UNL1        0.0295
     13 C           4.9713    0.3159    0.5867 C.3     1  UNL1       -0.0440
     14 C           2.8943    1.9367    0.8576 C.3     1  UNL1       -0.0440
     15 C           4.6079    2.3949   -0.8165 C.3     1  UNL1       -0.0272
     16 C           3.8940    1.6908   -2.0052 C.3     1  UNL1       -0.0358
     17 C           4.3908    0.2573   -2.2301 C.3     1  UNL1       -0.0600
     18 C           2.3562    1.6777   -1.9274 C.3     1  UNL1       -0.0600
     19 C           4.2526    2.4890   -3.2497 C.3     1  UNL1       -0.0600
     20 N           4.7525    2.5036    5.4551 N.am    1  UNL1       -0.2767
     21 C           3.5517    1.6193    5.5867 C.2     1  UNL1        0.2550
     22 O           2.8231    1.6284    6.5902 O.2     1  UNL1       -0.2697
     23 C           2.8918    0.6825    4.6333 C.ar    1  UNL1        0.1195
     24 C           1.5912    1.0213    4.1364 C.ar    1  UNL1        0.1325
     25 O           0.8691    2.1278    4.5376 O.3     1  UNL1       -0.5059
     26 C           1.0465    0.3581    3.0259 C.ar    1  UNL1       -0.0192
     27 C           1.8352   -0.5586    2.3239 C.ar    1  UNL1       -0.0548
     28 C           3.0905   -0.9446    2.8215 C.ar    1  UNL1       -0.0192
     29 C           3.6049   -0.3760    4.0095 C.ar    1  UNL1        0.1325
     30 O           4.9620   -0.5191    4.2635 O.3     1  UNL1       -0.5059
     31 C           5.4083    2.9111    6.8397 C.3     1  UNL1        0.0304
     32 C           6.7891    2.2578    7.0193 C.3     1  UNL1       -0.0440
     33 C           5.6623    4.4041    7.0875 C.3     1  UNL1       -0.0440
     34 C           4.5249    2.6272    8.0618 C.3     1  UNL1       -0.0440
     35 C           5.9851    5.1697    4.5907 C.ar    1  UNL1       -0.0546
     36 C           6.7073    6.3213    4.4579 C.ar    1  UNL1       -0.0403
     37 H           8.3401    9.7281    3.5867 H       1  UNL1        0.0428
     38 H           9.1724    8.1801    3.8481 H       1  UNL1        0.0428
     39 H           7.8238    8.6613    4.8916 H       1  UNL1        0.0428
     40 H           6.7878    9.7771    1.9159 H       1  UNL1        0.0428
     41 H           5.4387    8.6699    2.2483 H       1  UNL1        0.0428
     42 H           6.6136    8.2999    0.9750 H       1  UNL1        0.0428
     43 H           6.7805    6.1364    1.1015 H       1  UNL1        0.0636
     44 H           5.2701    4.4558    1.6732 H       1  UNL1        0.0622
     45 H           6.5212    2.1682    4.2392 H       1  UNL1        0.0648
     46 H           6.1499    2.8482    1.1794 H       1  UNL1        0.1493
     47 H           5.1928   -0.0227    1.5906 H       1  UNL1        0.0250
     48 H           5.9572    0.2719    0.1074 H       1  UNL1        0.0250
     49 H           4.2933   -0.4375    0.2149 H       1  UNL1        0.0250
     50 H           2.5438    1.8374    1.8618 H       1  UNL1        0.0250
     51 H           2.2993    1.1583    0.4117 H       1  UNL1        0.0250
     52 H           2.5050    2.9363    0.6426 H       1  UNL1        0.0250
     53 H           5.6868    2.4713   -1.0081 H       1  UNL1        0.0291
     54 H           4.2687    3.4435   -0.7395 H       1  UNL1        0.0291
     55 H           3.9771   -0.4489   -1.5171 H       1  UNL1        0.0235
     56 H           5.4857    0.2097   -2.1980 H       1  UNL1        0.0235
     57 H           4.0381   -0.1485   -3.1766 H       1  UNL1        0.0235
     58 H           1.9652    0.9220   -1.2507 H       1  UNL1        0.0235
     59 H           1.9061    1.3614   -2.8676 H       1  UNL1        0.0235
     60 H           1.9614    2.6642   -1.6533 H       1  UNL1        0.0235
     61 H           5.3361    2.5071   -3.3953 H       1  UNL1        0.0235
     62 H           3.8858    3.5165   -3.1679 H       1  UNL1        0.0235
     63 H           3.7890    2.0191   -4.1205 H       1  UNL1        0.0235
     64 H           1.3073    2.5263    5.3131 H       1  UNL1        0.2922
     65 H           0.1054    0.6957    2.5932 H       1  UNL1        0.0654
     66 H           1.5656   -0.7965    1.2915 H       1  UNL1        0.0620
     67 H           3.7443   -1.4969    2.1488 H       1  UNL1        0.0654
     68 H           5.4227   -0.3036    3.4303 H       1  UNL1        0.2922
     69 H           7.4666    2.5057    6.1933 H       1  UNL1        0.0250
     70 H           6.7269    1.1736    7.1070 H       1  UNL1        0.0250
     71 H           7.2704    2.6534    7.9252 H       1  UNL1        0.0250
     72 H           6.5775    4.6739    6.5648 H       1  UNL1        0.0250
     73 H           5.9322    4.7370    8.0920 H       1  UNL1        0.0250
     74 H           4.7429    4.9628    6.8763 H       1  UNL1        0.0250
     75 H           4.3965    1.5573    8.2243 H       1  UNL1        0.0250
     76 H           3.5586    3.1379    7.9348 H       1  UNL1        0.0250
     77 H           4.9465    3.0482    8.9788 H       1  UNL1        0.0250
     78 H           5.1079    5.2114    5.2053 H       1  UNL1        0.0622
     79 H           6.7898    6.9476    5.3348 H       1  UNL1        0.0636
@<TRIPOS>BOND
     1     1     2    1
     2     2     3    1
     3     2     4    1
     4     4     5   ar
     5     5     6   ar
     6     6     7   ar
     7     9    10    2
     8     9    11   am
     9    11    12    1
    10    12    13    1
    11    12    14    1
    12    12    15    1
    13    15    16    1
    14    16    17    1
    15    16    18    1
    16    16    19    1
    17     8    20    1
    18    20    21   am
    19    21    22    2
    20    21    23    1
    21    23    24   ar
    22    24    25    1
    23    24    26   ar
    24    26    27   ar
    25    27    28   ar
    26    28    29   ar
    27    23    29   ar
    28    29    30    1
    29    20    31    1
    30    31    32    1
    31    31    33    1
    32    31    34    1
    33     7    35   ar
    34    35    36   ar
    35     4    36   ar
    36     8     9    1
    37     8     7    1
    38     1    37    1
    39     1    38    1
    40     1    39    1
    41     3    40    1
    42     3    41    1
    43     3    42    1
    44     5    43    1
    45     6    44    1
    46     8    45    1
    47    11    46    1
    48    13    47    1
    49    13    48    1
    50    13    49    1
    51    14    50    1
    52    14    51    1
    53    14    52    1
    54    15    53    1
    55    15    54    1
    56    17    55    1
    57    17    56    1
    58    17    57    1
    59    18    58    1
    60    18    59    1
    61    18    60    1
    62    19    61    1
    63    19    62    1
    64    19    63    1
    65    25    64    1
    66    26    65    1
    67    27    66    1
    68    28    67    1
    69    30    68    1
    70    32    69    1
    71    32    70    1
    72    32    71    1
    73    33    72    1
    74    33    73    1
    75    33    74    1
    76    34    75    1
    77    34    76    1
    78    34    77    1
    79    35    78    1
    80    36    79    1
