REMARK  9 active torsions:
REMARK  status: ('A' for Active; 'I' for Inactive)
REMARK    1  A    between atoms: C_2  and  C_3 
REMARK    2  A    between atoms: C_3  and  C_4 
REMARK    3  A    between atoms: C_4  and  C_5 
REMARK    4  A    between atoms: C_5  and  N_6 
REMARK       I    between atoms: N_6  and  C_7 
REMARK       I    between atoms: C_7  and  N_9 
REMARK    5  A    between atoms: N_9  and  N_10 
REMARK       I    between atoms: N_10  and  C_11 
REMARK    6  A    between atoms: C_11  and  C_13 
REMARK    7  A    between atoms: C_14  and  C_15 
REMARK    8  A    between atoms: C_17  and  O_18 
REMARK    9  A    between atoms: C_21  and  O_22 
ROOT
ATOM      1  N   UNL d   1       9.457  -3.638   4.051  0.00  0.00    -0.263 N 
ATOM      2  C   UNL d   1      10.845  -3.583   4.013  0.00  0.00     0.259 C 
ATOM      3  O   UNL d   1      11.460  -2.882   3.207  0.00  0.00    -0.267 OA
ATOM      4  H   UNL d   1       8.919  -4.207   4.702  0.00  0.00     0.190 HD
ENDROOT
BRANCH   2   5
ATOM      5  C   UNL d   1      11.569  -4.446   5.021  0.00  0.00     0.076 C 
ATOM      6  C   UNL d   1      12.920  -4.470   5.106  0.00  0.00     0.017 C 
BRANCH   6   7
ATOM      7  C   UNL d   1      13.736  -5.340   5.998  0.00  0.00    -0.031 A 
ATOM      8  C   UNL d   1      14.977  -4.918   6.517  0.00  0.00     0.048 A 
ATOM      9  C   UNL d   1      15.845  -5.822   7.162  0.00  0.00     0.071 A 
ATOM     10  C   UNL d   1      15.422  -7.131   7.389  0.00  0.00     0.073 A 
ATOM     11  C   UNL d   1      14.194  -7.566   6.894  0.00  0.00     0.071 A 
ATOM     12  C   UNL d   1      13.367  -6.675   6.201  0.00  0.00     0.048 A 
BRANCH   9  13
ATOM     13  O   UNL d   1      17.094  -5.350   7.486  0.00  0.00    -0.356 OA
ATOM     14  C   UNL d   1      18.044  -6.329   7.920  0.00  0.00     0.210 C 
ENDBRANCH   9  13
BRANCH  11  15
ATOM     15  O   UNL d   1      13.928  -8.894   7.102  0.00  0.00    -0.356 OA
ATOM     16  C   UNL d   1      12.726  -9.381   6.516  0.00  0.00     0.210 C 
ENDBRANCH  11  15
ENDBRANCH   6   7
ENDBRANCH   2   5
BRANCH   1  17
ATOM     17  N   UNL d   1       8.673  -2.834   3.143  0.00  0.00    -0.249 N 
ATOM     18  C   UNL d   1       7.286  -2.881   3.201  0.00  0.00     0.334 C 
ATOM     19  N   UNL d   1       6.631  -2.068   2.291  0.00  0.00    -0.342 N 
ATOM     20  O   UNL d   1       6.690  -3.599   4.005  0.00  0.00    -0.246 OA
ATOM     21  H   UNL d   1       7.164  -1.496   1.652  0.00  0.00     0.164 HD
ATOM     22  H   UNL d   1       9.198  -2.250   2.498  0.00  0.00     0.192 HD
BRANCH  19  23
ATOM     23  C   UNL d   1       5.163  -2.012   2.228  0.00  0.00     0.124 C 
BRANCH  23  24
ATOM     24  C   UNL d   1       4.608  -1.056   1.158  0.00  0.00     0.020 C 
BRANCH  24  25
ATOM     25  C   UNL d   1       3.069  -1.039   1.139  0.00  0.00     0.001 C 
BRANCH  25  26
ATOM     26  C   UNL d   1       2.522  -0.086   0.070  0.00  0.00    -0.004 C 
ATOM     27  C   UNL d   1       0.999  -0.077   0.060  0.00  0.00     0.005 C 
ENDBRANCH  25  26
ENDBRANCH  24  25
ENDBRANCH  23  24
ENDBRANCH  19  23
ENDBRANCH   1  17
TORSDOF 9
