@<TRIPOS>MOLECULE
*****
 30 31 0 0 0
SMALL
GASTEIGER

@<TRIPOS>ATOM
      1 C           1.5888    1.7372    0.0124 C.3     1  UNL1       -0.0369
      2 C           0.4044    0.8222    0.0045 C.ar    1  UNL1       -0.0135
      3 C          -0.8861    1.3624    0.0085 C.ar    1  UNL1       -0.0348
      4 C          -2.0397    0.5699   -0.0003 C.ar    1  UNL1        0.0341
      5 N          -3.3456    1.1477   -0.0240 N.am    1  UNL1       -0.2815
      6 C          -3.6049    2.5163   -0.0961 C.2     1  UNL1        0.2483
      7 O          -2.7749    3.4251   -0.1306 O.2     1  UNL1       -0.2699
      8 C          -5.0110    2.9751   -0.1602 C.ar    1  UNL1        0.0386
      9 C          -5.9934    2.4795    0.6995 C.ar    1  UNL1       -0.0461
     10 C          -7.2781    3.0429    0.6846 C.ar    1  UNL1       -0.0180
     11 C          -7.5744    4.0942   -0.1887 C.ar    1  UNL1        0.1351
     12 O          -8.8262    4.6449   -0.2116 O.3     1  UNL1       -0.5053
     13 C          -6.5893    4.5969   -1.0420 C.ar    1  UNL1        0.0830
     14 CL         -6.9232    5.8882   -2.1380 Cl      1  UNL1       -0.0797
     15 C          -5.3075    4.0502   -1.0167 C.ar    1  UNL1       -0.0277
     16 C          -1.8704   -0.8235    0.0074 C.ar    1  UNL1       -0.0377
     17 C          -0.5774   -1.3829    0.0028 C.ar    1  UNL1       -0.0244
     18 C           0.5446   -0.5573   -0.0018 C.ar    1  UNL1        0.1264
     19 F           1.7688   -1.1035   -0.0063 F       1  UNL1       -0.2052
     20 H           1.2773    2.7888    0.0044 H       1  UNL1        0.0278
     21 H           2.2051    1.5708   -0.8752 H       1  UNL1        0.0278
     22 H           2.1833    1.5772    0.9160 H       1  UNL1        0.0278
     23 H          -0.9466    2.4424    0.0190 H       1  UNL1        0.0640
     24 H          -4.1273    0.5043   -0.0638 H       1  UNL1        0.1551
     25 H          -5.7555    1.7017    1.4197 H       1  UNL1        0.0626
     26 H          -8.0292    2.6621    1.3707 H       1  UNL1        0.0655
     27 H          -9.3983    4.2162    0.4438 H       1  UNL1        0.2922
     28 H          -4.5278    4.4739   -1.6484 H       1  UNL1        0.0641
     29 H          -2.7193   -1.5022    0.0160 H       1  UNL1        0.0637
     30 H          -0.4287   -2.4596    0.0024 H       1  UNL1        0.0647
@<TRIPOS>BOND
     1     1     2    1
     2     2     3   ar
     3     3     4   ar
     4     4     5    1
     5     5     6   am
     6     6     7    2
     7     6     8    1
     8     8     9   ar
     9     9    10   ar
    10    10    11   ar
    11    11    12    1
    12    11    13   ar
    13    13    14    1
    14    13    15   ar
    15     8    15   ar
    16     4    16   ar
    17    16    17   ar
    18    17    18   ar
    19     2    18   ar
    20    18    19    1
    21     1    20    1
    22     1    21    1
    23     1    22    1
    24     3    23    1
    25     5    24    1
    26     9    25    1
    27    10    26    1
    28    12    27    1
    29    15    28    1
    30    16    29    1
    31    17    30    1
