REMARK  16 active torsions:
REMARK  status: ('A' for Active; 'I' for Inactive)
REMARK    1  A    between atoms: C_2  and  C_4 
REMARK    2  A    between atoms: C_6  and  C_7 
REMARK    3  A    between atoms: C_7  and  N_8 
REMARK       I    between atoms: N_8  and  C_10 
REMARK       I    between atoms: C_10  and  N_12 
REMARK    4  A    between atoms: C_13  and  N_12 
REMARK    5  A    between atoms: C_13  and  C_37 
REMARK    6  A    between atoms: C_13  and  C_14 
REMARK       I    between atoms: C_14  and  N_16 
REMARK    7  A    between atoms: N_16  and  C_17 
REMARK    8  A    between atoms: C_17  and  C_18 
REMARK    9  A    between atoms: C_17  and  C_25 
REMARK   10  A    between atoms: C_18  and  C_19 
REMARK   11  A    between atoms: C_26  and  C_25 
REMARK   12  A    between atoms: C_26  and  C_28 
REMARK   13  A    between atoms: C_26  and  O_27 
REMARK   14  A    between atoms: C_28  and  N_29 
REMARK   15  A    between atoms: C_28  and  C_30 
REMARK   16  A    between atoms: C_30  and  C_31 
ROOT
ATOM      1  C   UNL d   1       3.399  -3.037   0.258  0.00  0.00     0.091 C 
ENDROOT
BRANCH   1   2
ATOM      2  N   UNL d   1       3.359  -4.402   0.754  0.00  0.00    -0.354 N 
ATOM      3  C   UNL d   1       3.681  -4.809   2.029  0.00  0.00     0.241 C 
ATOM      4  O   UNL d   1       3.945  -4.105   2.955  0.00  0.00    -0.271 OA
ATOM      5  H   UNL d   1       2.754  -5.039   0.268  0.00  0.00     0.162 HD
BRANCH   3   6
ATOM      6  C   UNL d   1       3.764  -6.299   2.263  0.00  0.00     0.181 C 
BRANCH   6   7
ATOM      7  C   UNL d   1       3.334  -7.256   1.116  0.00  0.00     0.009 C 
ATOM      8  C   UNL d   1       4.364  -7.158  -0.028  0.00  0.00     0.012 C 
ATOM      9  C   UNL d   1       3.123  -8.748   1.476  0.00  0.00     0.012 C 
ENDBRANCH   6   7
BRANCH   6  10
ATOM     10  N   UNL d   1       3.140  -6.559   3.552  0.00  0.00    -0.329 N 
ATOM     11  C   UNL d   1       3.370  -7.551   4.455  0.00  0.00     0.319 C 
ATOM     12  N   UNL d   1       4.371  -8.485   4.201  0.00  0.00    -0.333 N 
ATOM     13  O   UNL d   1       2.619  -7.605   5.429  0.00  0.00    -0.247 OA
ATOM     14  C   UNL d   1       5.529  -8.176   3.371  0.00  0.00     0.154 C 
ATOM     15  H   UNL d   1       2.543  -5.823   3.919  0.00  0.00     0.165 HD
BRANCH  12  16
ATOM     16  C   UNL d   1       4.402  -9.678   5.077  0.00  0.00     0.186 C 
BRANCH  16  17
ATOM     17  C   UNL d   1       5.381 -10.768   4.667  0.00  0.00     0.060 C 
ATOM     18  N   UNL d   1       6.034 -10.693   3.458  0.00  0.00    -0.248 NA
ATOM     19  C   UNL d   1       7.015 -11.536   3.302  0.00  0.00     0.078 C 
ATOM     20  S   UNL d   1       6.998 -12.753   4.505  0.00  0.00    -0.084 SA
ATOM     21  C   UNL d   1       5.712 -11.931   5.330  0.00  0.00     0.080 C 
BRANCH  19  22
ATOM     22  C   UNL d   1       7.968 -11.401   2.128  0.00  0.00     0.037 C 
ATOM     23  C   UNL d   1       9.061 -10.356   2.392  0.00  0.00     0.016 C 
ATOM     24  C   UNL d   1       8.577 -12.726   1.711  0.00  0.00     0.016 C 
ENDBRANCH  19  22
ENDBRANCH  16  17
ENDBRANCH  12  16
ENDBRANCH   6  10
ENDBRANCH   3   6
ENDBRANCH   1   2
BRANCH   1  25
ATOM     25  C   UNL d   1       4.834  -2.544  -0.048  0.00  0.00     0.063 C 
BRANCH  25  26
ATOM     26  C   UNL d   1       5.760  -2.469   1.136  0.00  0.00    -0.056 C 
ATOM     27  C   UNL d   1       5.314  -2.102   2.412  0.00  0.00     0.007 C 
ATOM     28  C   UNL d   1       6.092  -2.378   3.538  0.00  0.00     0.001 C 
ATOM     29  C   UNL d   1       7.375  -2.880   3.382  0.00  0.00     0.000 C 
ATOM     30  C   UNL d   1       7.891  -3.069   2.102  0.00  0.00     0.001 C 
ATOM     31  C   UNL d   1       7.083  -2.883   0.983  0.00  0.00     0.007 C 
ENDBRANCH  25  26
ENDBRANCH   1  25
BRANCH   1  32
ATOM     32  C   UNL d   1       2.606  -2.965  -1.055  0.00  0.00     0.059 C 
BRANCH  32  33
ATOM     33  C   UNL d   1       1.141  -3.353  -0.872  0.00  0.00     0.150 C 
BRANCH  33  34
ATOM     34  C   UNL d   1       0.338  -3.205  -2.168  0.00  0.00     0.216 C 
BRANCH  34  35
ATOM     35  N   UNL d   1      -1.043  -3.699  -1.844  0.00  0.00    -0.072 N 
ATOM     36  H   UNL d   1      -1.522  -3.081  -1.176  0.00  0.00     0.274 HD
ATOM     37  H   UNL d   1      -0.990  -4.624  -1.389  0.00  0.00     0.274 HD
ATOM     38  H   UNL d   1      -1.616  -3.801  -2.691  0.00  0.00     0.274 HD
ENDBRANCH  34  35
BRANCH  34  39
ATOM     39  C   UNL d   1       0.336  -1.770  -2.682  0.00  0.00     0.074 C 
BRANCH  39  40
ATOM     40  C   UNL d   1      -0.486  -1.574  -3.918  0.00  0.00    -0.056 A 
ATOM     41  C   UNL d   1       0.126  -1.220  -5.124  0.00  0.00     0.007 A 
ATOM     42  C   UNL d   1      -0.666  -0.830  -6.200  0.00  0.00     0.001 A 
ATOM     43  C   UNL d   1      -2.055  -0.925  -6.120  0.00  0.00     0.000 A 
ATOM     44  C   UNL d   1      -2.664  -1.359  -4.950  0.00  0.00     0.001 A 
ATOM     45  C   UNL d   1      -1.883  -1.632  -3.841  0.00  0.00     0.007 A 
ENDBRANCH  39  40
ENDBRANCH  34  39
ENDBRANCH  33  34
BRANCH  33  46
ATOM     46  O   UNL d   1       0.989  -4.728  -0.475  0.00  0.00    -0.393 OA
ATOM     47  H   UNL d   1       1.447  -5.302  -1.119  0.00  0.00     0.210 HD
ENDBRANCH  33  46
ENDBRANCH  32  33
ENDBRANCH   1  32
TORSDOF 16
