@<TRIPOS>MOLECULE
*****
 65 69 0 0 0
SMALL
GASTEIGER

@<TRIPOS>ATOM
      1 N           2.1126   -0.0917   -0.4699 N.pl3   1  UNL1       -0.3375
      2 C           0.7386   -0.0787   -0.5419 C.ar    1  UNL1        0.2064
      3 N           0.0320    0.9906   -0.1586 N.ar    1  UNL1       -0.0319
      4 O          -1.2814    0.5612   -0.0340 O.2     1  UNL1       -0.2388
      5 N          -1.3771   -0.8225   -0.1759 N.ar    1  UNL1       -0.0272
      6 C          -0.1780   -1.2022   -0.6448 C.ar    1  UNL1        0.2407
      7 N           0.1631   -2.5725   -0.4384 N.ar    1  UNL1       -0.1830
      8 N          -0.1466   -3.7146   -1.1026 N.ar    1  UNL1       -0.0581
      9 N           0.4912   -4.7546   -0.5287 N.ar    1  UNL1       -0.1279
     10 C           1.1231   -4.3083    0.6065 C.ar    1  UNL1        0.1399
     11 C           1.9486   -5.2866    1.5489 C.3     1  UNL1        0.0155
     12 N           2.5437   -4.6556    2.8457 N.4     1  UNL1        0.2397
     13 C           3.6099   -3.4372    2.4139 C.3     1  UNL1       -0.0315
     14 C           3.6942   -2.3596    3.5657 C.3     1  UNL1       -0.0123
     15 C           2.4188   -2.0538    4.5036 C.3     1  UNL1       -0.0434
     16 C           1.6022   -3.2573    4.9451 C.3     1  UNL1       -0.0123
     17 C           1.2208   -4.2964    3.8535 C.3     1  UNL1       -0.0315
     18 C           0.8476   -2.9128    0.6599 C.ar    1  UNL1        0.1608
     19 C           1.1851   -1.9819    1.6651 C.2     1  UNL1        0.2838
     20 O           1.5839   -2.5980    2.5519 O.2     1  UNL1       -0.2667
     21 N           1.1381   -0.6122    1.9014 N.am    1  UNL1       -0.2016
     22 N           2.0460   -0.0254    2.8210 N.2     1  UNL1       -0.1874
     23 C           1.6253    0.9975    3.5128 C.2     1  UNL1        0.0528
     24 C           2.2810    1.5294    4.7681 C.ar    1  UNL1       -0.0052
     25 C           1.6022    2.4781    5.5439 C.ar    1  UNL1       -0.0496
     26 C           2.2988    3.2317    6.5105 C.ar    1  UNL1       -0.0193
     27 C           3.6229    2.9273    6.8446 C.ar    1  UNL1        0.1210
     28 O           4.1944    3.6738    7.8367 O.3     1  UNL1       -0.4873
     29 C           5.5329    3.3303    8.2458 C.3     1  UNL1        0.1173
     30 C           5.9094    4.2231    9.3954 C.ar    1  UNL1        0.0248
     31 C           6.1614    3.7156   10.6774 C.ar    1  UNL1       -0.0526
     32 C           6.2140    4.5855   11.7690 C.ar    1  UNL1       -0.0612
     33 C           6.1633    5.9657   11.5716 C.ar    1  UNL1       -0.0590
     34 C           6.0140    6.4781   10.2854 C.ar    1  UNL1       -0.0261
     35 C           5.8965    5.6065    9.2109 C.ar    1  UNL1        0.1298
     36 F           5.7487    6.1093    7.9768 F       1  UNL1       -0.2051
     37 C           4.2512    1.8882    6.1695 C.ar    1  UNL1       -0.0193
     38 C           3.5823    1.1866    5.1512 C.ar    1  UNL1       -0.0496
     39 H           2.5348    0.7441   -0.0425 H       1  UNL1        0.1439
     40 H           2.6222   -0.8805   -0.0745 H       1  UNL1        0.1439
     41 H           2.8056   -5.7491    1.0255 H       1  UNL1        0.0884
     42 H           1.3468   -6.1444    1.9022 H       1  UNL1        0.0884
     43 H           3.1107   -5.3109    3.3903 H       1  UNL1        0.2037
     44 H           3.3090   -2.9937    1.4330 H       1  UNL1        0.0814
     45 H           4.5714   -3.8650    2.0725 H       1  UNL1        0.0814
     46 H           4.0715   -1.4200    3.1097 H       1  UNL1        0.0317
     47 H           4.4732   -2.6995    4.2381 H       1  UNL1        0.0317
     48 H           1.5705   -1.5013    4.0864 H       1  UNL1        0.0269
     49 H           2.6440   -1.3035    5.2573 H       1  UNL1        0.0269
     50 H           0.6572   -2.8265    5.3400 H       1  UNL1        0.0317
     51 H           2.1562   -3.7132    5.7475 H       1  UNL1        0.0317
     52 H           0.3554   -3.9660    3.2243 H       1  UNL1        0.0814
     53 H           0.8010   -5.2234    4.2575 H       1  UNL1        0.0814
     54 H           0.2628   -0.1368    1.7524 H       1  UNL1        0.1776
     55 H           0.7143    1.5144    3.1859 H       1  UNL1        0.0851
     56 H           0.5387    2.6650    5.4065 H       1  UNL1        0.0625
     57 H           1.8137    4.0923    6.9726 H       1  UNL1        0.0654
     58 H           6.2381    3.4814    7.4207 H       1  UNL1        0.0749
     59 H           5.5614    2.2839    8.5757 H       1  UNL1        0.0749
     60 H           6.2824    2.6477   10.8454 H       1  UNL1        0.0622
     61 H           6.2566    4.1885   12.7809 H       1  UNL1        0.0618
     62 H           6.2436    6.6397   12.4203 H       1  UNL1        0.0618
     63 H           5.9446    7.5469   10.1151 H       1  UNL1        0.0646
     64 H           5.2871    1.6367    6.3727 H       1  UNL1        0.0654
     65 H           4.1199    0.3848    4.6611 H       1  UNL1        0.0625
@<TRIPOS>UNITY_ATOM_ATTR
12 1
charge 1
@<TRIPOS>BOND
     1     1     2    1
     2     2     3   ar
     3     3     4   ar
     4     4     5   ar
     5     5     6   ar
     6     2     6   ar
     7     6     7    1
     8     7     8   ar
     9     8     9   ar
    10     9    10   ar
    11    10    11    1
    12    11    12    1
    13    12    13    1
    14    13    14    1
    15    14    15    1
    16    15    16    1
    17    16    17    1
    18    12    17    1
    19    10    18   ar
    20     7    18   ar
    21    18    19    1
    22    19    20    2
    23    19    21   am
    24    21    22    1
    25    22    23    2
    26    23    24    1
    27    24    25   ar
    28    25    26   ar
    29    26    27   ar
    30    27    28    1
    31    28    29    1
    32    29    30    1
    33    30    31   ar
    34    31    32   ar
    35    32    33   ar
    36    33    34   ar
    37    34    35   ar
    38    30    35   ar
    39    35    36    1
    40    27    37   ar
    41    37    38   ar
    42    24    38   ar
    43     1    39    1
    44     1    40    1
    45    11    41    1
    46    11    42    1
    47    12    43    1
    48    13    44    1
    49    13    45    1
    50    14    46    1
    51    14    47    1
    52    15    48    1
    53    15    49    1
    54    16    50    1
    55    16    51    1
    56    17    52    1
    57    17    53    1
    58    21    54    1
    59    23    55    1
    60    25    56    1
    61    26    57    1
    62    29    58    1
    63    29    59    1
    64    31    60    1
    65    32    61    1
    66    33    62    1
    67    34    63    1
    68    37    64    1
    69    38    65    1
