REMARK  4 active torsions:
REMARK  status: ('A' for Active; 'I' for Inactive)
REMARK    1  A    between atoms: C_5  and  C_6 
REMARK       I    between atoms: C_6  and  N_7 
REMARK    2  A    between atoms: C_10  and  N_11 
REMARK       I    between atoms: N_11  and  C_12 
REMARK    3  A    between atoms: C_12  and  C_14 
REMARK    4  A    between atoms: C_15  and  C_16 
ROOT
ATOM      1  N   UNL d   1       1.148   2.426  -0.001  0.00  0.00    -0.323 N 
ATOM      2  C   UNL d   1       2.529   2.585  -0.015  0.00  0.00     0.245 C 
ATOM      3  O   UNL d   1       3.400   1.721  -0.040  0.00  0.00    -0.268 OA
ATOM      4  H   UNL d   1       0.586   3.271   0.003  0.00  0.00     0.169 HD
ENDROOT
BRANCH   1   5
ATOM      5  C   UNL d   1       0.399   1.179   0.001  0.00  0.00     0.042 A 
ATOM      6  C   UNL d   1      -1.026   1.214  -0.003  0.00  0.00     0.047 A 
ATOM      7  C   UNL d   1      -1.807   0.017  -0.010  0.00  0.00     0.034 A 
ATOM      8  C   UNL d   1      -1.166  -1.218   0.001  0.00  0.00     0.017 A 
ATOM      9  C   UNL d   1       0.208  -1.271   0.007  0.00  0.00     0.010 A 
ATOM     10  C   UNL d   1       0.985  -0.108   0.003  0.00  0.00    -0.035 A 
ATOM     11  C   UNL d   1       2.445  -0.405  -0.004  0.00  0.00     0.050 C 
BRANCH   7  12
ATOM     12  C   UNL d   1      -3.306   0.056  -0.038  0.00  0.00     0.249 C 
ATOM     13  N   UNL d   1      -3.996  -1.135  -0.055  0.00  0.00    -0.366 N 
ATOM     14  H   UNL d   1      -3.590  -2.058  -0.053  0.00  0.00     0.159 HD
ATOM     15  H   UNL d   1      -5.007  -1.097  -0.081  0.00  0.00     0.159 HD
ATOM     16  O   UNL d   1      -3.917   1.117  -0.051  0.00  0.00    -0.268 OA
ENDBRANCH   7  12
ENDBRANCH   1   5
BRANCH   2  17
ATOM     17  C   UNL d   1       3.106   3.939  -0.004  0.00  0.00     0.075 C 
ATOM     18  C   UNL d   1       4.463   3.992   0.001  0.00  0.00     0.017 C 
BRANCH  18  19
ATOM     19  C   UNL d   1       5.279   5.201   0.009  0.00  0.00    -0.035 A 
ATOM     20  C   UNL d   1       6.684   5.150   0.001  0.00  0.00     0.011 A 
ATOM     21  C   UNL d   1       7.421   6.338   0.024  0.00  0.00     0.003 A 
ATOM     22  C   UNL d   1       6.760   7.568   0.055  0.00  0.00     0.024 A 
ATOM     23  C   UNL d   1       5.373   7.608   0.053  0.00  0.00     0.034 A 
ATOM     24 CL   UNL d   1       4.519   9.098   0.079  0.00  0.00    -0.084 Cl
ATOM     25  C   UNL d   1       4.641   6.437   0.032  0.00  0.00     0.035 A 
ENDBRANCH  18  19
ENDBRANCH   2  17
TORSDOF 4
