@<TRIPOS>MOLECULE
*****
 93 93 0 0 0
SMALL
GASTEIGER

@<TRIPOS>ATOM
      1 C           4.1286    6.0319   -6.1680 C.3     1  UNL1       -0.0620
      2 C           4.4829    5.4721   -4.7825 C.3     1  UNL1       -0.0351
      3 C           3.2065    5.1236   -3.9999 C.3     1  UNL1        0.0269
      4 C           2.1041    6.1159   -4.2461 C.2     1  UNL1        0.2196
      5 O           2.2987    7.2567   -4.6959 O.2     1  UNL1       -0.2754
      6 N           0.8798    5.6814   -3.8569 N.am    1  UNL1       -0.2543
      7 C          -0.1483    6.5512   -4.1065 C.ar    1  UNL1        0.2274
      8 N          -0.3455    7.0083   -5.3190 N.ar    1  UNL1       -0.1804
      9 C          -1.3385    7.8451   -5.4808 C.ar    1  UNL1        0.2274
     10 N          -1.5450    8.3824   -6.7344 N.am    1  UNL1       -0.2543
     11 C          -0.8299    7.9656   -7.8193 C.2     1  UNL1        0.2196
     12 O           0.1731    7.2474   -7.8101 O.2     1  UNL1       -0.2754
     13 C          -1.2619    8.4998   -9.1451 C.3     1  UNL1        0.0269
     14 C          -2.6080    9.1832   -9.3495 C.3     1  UNL1       -0.0351
     15 C          -3.7712    8.3860   -8.7552 C.3     1  UNL1       -0.0620
     16 C          -2.9262    9.3905  -10.8583 C.3     1  UNL1       -0.0451
     17 C          -1.9162   10.2028  -11.7131 C.3     1  UNL1       -0.0374
     18 C          -1.7493   11.6023  -11.1069 C.3     1  UNL1       -0.0601
     19 C          -0.5514    9.5133  -11.8784 C.3     1  UNL1       -0.0601
     20 C          -2.4748   10.3353  -13.1432 C.3     1  UNL1       -0.0601
     21 N          -2.1758    8.1810   -4.5246 N.ar    1  UNL1       -0.1804
     22 C          -1.8399    7.6539   -3.3481 C.ar    1  UNL1        0.2274
     23 N          -2.6907    7.9408   -2.3388 N.am    1  UNL1       -0.2543
     24 C          -2.5305    7.6082   -1.0343 C.2     1  UNL1        0.2196
     25 O          -1.5507    7.0254   -0.5661 O.2     1  UNL1       -0.2754
     26 C          -3.5578    8.1161   -0.0586 C.3     1  UNL1        0.0269
     27 C          -4.8329    8.9068   -0.4129 C.3     1  UNL1       -0.0351
     28 C          -5.2206    8.8606   -1.8709 C.3     1  UNL1       -0.0620
     29 C          -4.7086   10.3937   -0.0243 C.3     1  UNL1       -0.0451
     30 C          -4.7156   10.6938    1.4919 C.3     1  UNL1       -0.0374
     31 C          -6.0127   10.1552    2.1070 C.3     1  UNL1       -0.0601
     32 C          -3.5238   10.0897    2.2463 C.3     1  UNL1       -0.0601
     33 C          -4.6378   12.2153    1.6703 C.3     1  UNL1       -0.0601
     34 N          -0.8686    6.8322   -3.0786 N.ar    1  UNL1       -0.1804
     35 C           5.4068    6.3878   -3.9374 C.3     1  UNL1       -0.0451
     36 C           6.7457    6.8051   -4.6081 C.3     1  UNL1       -0.0374
     37 C           7.5438    5.5454   -4.9786 C.3     1  UNL1       -0.0601
     38 C           6.5566    7.6999   -5.8440 C.3     1  UNL1       -0.0601
     39 C           7.5675    7.6536   -3.6231 C.3     1  UNL1       -0.0601
     40 H           4.9161    5.8712   -6.8978 H       1  UNL1        0.0233
     41 H           3.9400    7.1120   -6.1217 H       1  UNL1        0.0233
     42 H           3.2515    5.5387   -6.5937 H       1  UNL1        0.0233
     43 H           5.0060    4.5223   -4.9373 H       1  UNL1        0.0303
     44 H           2.8619    4.1309   -4.3194 H       1  UNL1        0.0361
     45 H           3.3903    5.0732   -2.9205 H       1  UNL1        0.0361
     46 H           0.8039    5.2267   -2.9587 H       1  UNL1        0.1577
     47 H          -2.2799    9.0670   -6.7976 H       1  UNL1        0.1577
     48 H          -1.1581    7.6733   -9.8623 H       1  UNL1        0.0361
     49 H          -0.4774    9.2385   -9.3017 H       1  UNL1        0.0361
     50 H          -2.5648   10.1616   -8.8555 H       1  UNL1        0.0303
     51 H          -3.8764    7.4274   -9.2681 H       1  UNL1        0.0233
     52 H          -4.6961    8.9618   -8.8423 H       1  UNL1        0.0233
     53 H          -3.6735    8.1549   -7.6967 H       1  UNL1        0.0233
     54 H          -3.9035    9.8954  -10.9149 H       1  UNL1        0.0273
     55 H          -3.0835    8.4082  -11.3267 H       1  UNL1        0.0273
     56 H          -1.3695   11.5583  -10.0813 H       1  UNL1        0.0235
     57 H          -2.7093   12.1324  -11.0810 H       1  UNL1        0.0235
     58 H          -1.0450   12.2044  -11.6873 H       1  UNL1        0.0235
     59 H           0.0569    9.5121  -10.9824 H       1  UNL1        0.0235
     60 H           0.0789   10.0398  -12.5994 H       1  UNL1        0.0235
     61 H          -0.6756    8.4759  -12.2095 H       1  UNL1        0.0235
     62 H          -3.4389   10.8513  -13.1622 H       1  UNL1        0.0235
     63 H          -2.6070    9.3478  -13.6020 H       1  UNL1        0.0235
     64 H          -1.7776   10.8991  -13.7744 H       1  UNL1        0.0235
     65 H          -3.5057    8.2810   -2.7806 H       1  UNL1        0.1577
     66 H          -2.8932    8.7603    0.5101 H       1  UNL1        0.0361
     67 H          -3.8263    7.2845    0.6076 H       1  UNL1        0.0361
     68 H          -5.6730    8.4475    0.1181 H       1  UNL1        0.0303
     69 H          -4.5400    9.5391   -2.4019 H       1  UNL1        0.0233
     70 H          -6.2076    9.2405   -2.1181 H       1  UNL1        0.0233
     71 H          -5.1864    7.8160   -2.2039 H       1  UNL1        0.0233
     72 H          -5.5478   10.9367   -0.4872 H       1  UNL1        0.0273
     73 H          -3.8037   10.8117   -0.4899 H       1  UNL1        0.0273
     74 H          -6.0917    9.0683    1.9994 H       1  UNL1        0.0235
     75 H          -6.8896   10.6006    1.6255 H       1  UNL1        0.0235
     76 H          -6.0520   10.3615    3.1785 H       1  UNL1        0.0235
     77 H          -3.6051    9.0002    2.3136 H       1  UNL1        0.0235
     78 H          -3.4718   10.4310    3.2816 H       1  UNL1        0.0235
     79 H          -2.5780   10.3645    1.7606 H       1  UNL1        0.0235
     80 H          -5.4917   12.7178    1.2055 H       1  UNL1        0.0235
     81 H          -3.7228   12.6150    1.2156 H       1  UNL1        0.0235
     82 H          -4.6241   12.4747    2.7332 H       1  UNL1        0.0235
     83 H           5.6455    5.8485   -3.0044 H       1  UNL1        0.0273
     84 H           4.8555    7.2804   -3.6114 H       1  UNL1        0.0273
     85 H           6.9888    4.8958   -5.6632 H       1  UNL1        0.0235
     86 H           7.7811    4.9548   -4.0855 H       1  UNL1        0.0235
     87 H           8.4809    5.8040   -5.4778 H       1  UNL1        0.0235
     88 H           6.2341    7.1580   -6.7266 H       1  UNL1        0.0235
     89 H           7.4998    8.1497   -6.1637 H       1  UNL1        0.0235
     90 H           5.8394    8.5030   -5.6385 H       1  UNL1        0.0235
     91 H           7.8198    7.1030   -2.7131 H       1  UNL1        0.0235
     92 H           7.0180    8.5589   -3.3393 H       1  UNL1        0.0235
     93 H           8.5052    7.9739   -4.0935 H       1  UNL1        0.0235
@<TRIPOS>BOND
     1     3     4    1
     2     4     5    2
     3     4     6   am
     4     6     7    1
     5     7     8   ar
     6     8     9   ar
     7     9    10    1
     8    10    11   am
     9    11    12    2
    10    11    13    1
    11    14    16    1
    12    16    17    1
    13    17    18    1
    14    17    19    1
    15    17    20    1
    16     9    21   ar
    17    21    22   ar
    18    22    23    1
    19    23    24   am
    20    24    25    2
    21    24    26    1
    22    27    29    1
    23    29    30    1
    24    30    31    1
    25    30    32    1
    26    30    33    1
    27    22    34   ar
    28     7    34   ar
    29     2    35    1
    30    35    36    1
    31    36    37    1
    32    36    38    1
    33    36    39    1
    34     2     3    1
    35     2     1    1
    36    27    28    1
    37    27    26    1
    38    14    15    1
    39    14    13    1
    40     1    40    1
    41     1    41    1
    42     1    42    1
    43     2    43    1
    44     3    44    1
    45     3    45    1
    46     6    46    1
    47    10    47    1
    48    13    48    1
    49    13    49    1
    50    14    50    1
    51    15    51    1
    52    15    52    1
    53    15    53    1
    54    16    54    1
    55    16    55    1
    56    18    56    1
    57    18    57    1
    58    18    58    1
    59    19    59    1
    60    19    60    1
    61    19    61    1
    62    20    62    1
    63    20    63    1
    64    20    64    1
    65    23    65    1
    66    26    66    1
    67    26    67    1
    68    27    68    1
    69    28    69    1
    70    28    70    1
    71    28    71    1
    72    29    72    1
    73    29    73    1
    74    31    74    1
    75    31    75    1
    76    31    76    1
    77    32    77    1
    78    32    78    1
    79    32    79    1
    80    33    80    1
    81    33    81    1
    82    33    82    1
    83    35    83    1
    84    35    84    1
    85    37    85    1
    86    37    86    1
    87    37    87    1
    88    38    88    1
    89    38    89    1
    90    38    90    1
    91    39    91    1
    92    39    92    1
    93    39    93    1
