@<TRIPOS>MOLECULE
*****
 30 31 0 0 0
SMALL
GASTEIGER

@<TRIPOS>ATOM
      1 C           2.5014    1.2164   -0.0004 C.3     1  UNL1       -0.0396
      2 C           1.2612    0.3776    0.0052 C.ar    1  UNL1       -0.0469
      3 C           1.3334   -1.0086    0.0209 C.ar    1  UNL1       -0.0569
      4 C           0.1648   -1.7744   -0.0008 C.ar    1  UNL1       -0.0366
      5 C          -1.1154   -1.2012   -0.0299 C.ar    1  UNL1        0.0756
      6 N          -2.2890   -2.0216   -0.0758 N.am    1  UNL1       -0.2786
      7 C          -2.2832   -3.4147   -0.0740 C.2     1  UNL1        0.2484
      8 O          -1.3056   -4.1591   -0.0333 O.2     1  UNL1       -0.2698
      9 C          -3.5827   -4.1186   -0.0982 C.ar    1  UNL1        0.0398
     10 C          -4.5958   -3.7691   -0.9897 C.ar    1  UNL1       -0.0312
     11 C          -5.7578   -4.5437   -1.0299 C.ar    1  UNL1        0.0431
     12 CL         -7.0114   -4.1245   -2.1316 Cl      1  UNL1       -0.0835
     13 C          -5.9170   -5.6548   -0.1998 C.ar    1  UNL1       -0.0250
     14 C          -4.8904   -6.0073    0.6702 C.ar    1  UNL1        0.0431
     15 CL         -5.0647   -7.3794    1.6931 Cl      1  UNL1       -0.0835
     16 C          -3.7215   -5.2541    0.7175 C.ar    1  UNL1       -0.0312
     17 C          -1.1736    0.2046   -0.0196 C.ar    1  UNL1        0.1382
     18 O          -2.3253    0.9448   -0.0227 O.3     1  UNL1       -0.5049
     19 C          -0.0009    0.9780   -0.0090 C.ar    1  UNL1       -0.0154
     20 H           3.4076    0.6007    0.0031 H       1  UNL1        0.0278
     21 H           2.5243    1.8559    0.8870 H       1  UNL1        0.0278
     22 H           2.5243    1.8406   -0.8991 H       1  UNL1        0.0278
     23 H           2.2903   -1.5256    0.0441 H       1  UNL1        0.0621
     24 H           0.3202   -2.8455    0.0029 H       1  UNL1        0.0637
     25 H          -3.1860   -1.5611   -0.0781 H       1  UNL1        0.1552
     26 H          -4.4671   -2.9436   -1.6830 H       1  UNL1        0.0640
     27 H          -6.8274   -6.2477   -0.2381 H       1  UNL1        0.0647
     28 H          -2.9049   -5.5566    1.3725 H       1  UNL1        0.0640
     29 H          -3.0968    0.3712    0.0368 H       1  UNL1        0.2922
     30 H          -0.0743    2.0637   -0.0139 H       1  UNL1        0.0657
@<TRIPOS>BOND
     1     1     2    1
     2     2     3   ar
     3     3     4   ar
     4     4     5   ar
     5     5     6    1
     6     6     7   am
     7     7     8    2
     8     7     9    1
     9     9    10   ar
    10    10    11   ar
    11    11    12    1
    12    11    13   ar
    13    13    14   ar
    14    14    15    1
    15    14    16   ar
    16     9    16   ar
    17     5    17   ar
    18    17    18    1
    19    17    19   ar
    20     2    19   ar
    21     1    20    1
    22     1    21    1
    23     1    22    1
    24     3    23    1
    25     4    24    1
    26     6    25    1
    27    10    26    1
    28    13    27    1
    29    16    28    1
    30    18    29    1
    31    19    30    1
