REMARK  4 active torsions:
REMARK  status: ('A' for Active; 'I' for Inactive)
REMARK    1  A    between atoms: C_2  and  C_4 
REMARK       I    between atoms: C_4  and  N_6 
REMARK    2  A    between atoms: N_6  and  N_7 
REMARK       I    between atoms: N_7  and  C_8 
REMARK    3  A    between atoms: C_8  and  C_10 
REMARK    4  A    between atoms: C_13  and  C_14 
ROOT
ATOM      1  N   UNL d   1       4.998  -2.421   1.981  0.00  0.00    -0.263 N 
ATOM      2  C   UNL d   1       6.367  -2.524   2.152  0.00  0.00     0.270 C 
ATOM      3  O   UNL d   1       7.162  -1.747   1.611  0.00  0.00    -0.266 OA
ATOM      4  H   UNL d   1       4.311  -2.989   2.476  0.00  0.00     0.190 HD
ENDROOT
BRANCH   2   5
ATOM      5  C   UNL d   1       6.895  -3.641   2.989  0.00  0.00     0.033 A 
ATOM      6  C   UNL d   1       8.095  -3.467   3.694  0.00  0.00     0.017 A 
ATOM      7  C   UNL d   1       8.744  -4.561   4.286  0.00  0.00     0.008 A 
ATOM      8  C   UNL d   1       8.161  -5.837   4.269  0.00  0.00    -0.055 A 
ATOM      9  C   UNL d   1       6.954  -5.991   3.566  0.00  0.00     0.008 A 
ATOM     10  C   UNL d   1       6.321  -4.911   2.939  0.00  0.00     0.017 A 
BRANCH   8  11
ATOM     11  C   UNL d   1       8.815  -6.985   5.037  0.00  0.00     0.010 C 
ATOM     12  C   UNL d   1       8.945  -6.622   6.524  0.00  0.00     0.015 C 
ATOM     13  C   UNL d   1       8.040  -8.306   4.931  0.00  0.00     0.015 C 
ENDBRANCH   8  11
ENDBRANCH   2   5
BRANCH   1  14
ATOM     14  N   UNL d   1       4.480  -1.393   1.151  0.00  0.00    -0.267 N 
ATOM     15  C   UNL d   1       3.108  -1.249   1.043  0.00  0.00     0.239 C 
ATOM     16  O   UNL d   1       2.339  -2.009   1.635  0.00  0.00    -0.271 OA
ATOM     17  H   UNL d   1       5.166  -0.813   0.670  0.00  0.00     0.190 HD
BRANCH  15  18
ATOM     18  C   UNL d   1       2.613  -0.117   0.123  0.00  0.00     0.071 C 
ATOM     19  C   UNL d   1       1.079  -0.091   0.065  0.00  0.00     0.019 C 
ATOM     20  C   UNL d   1       3.106   1.253   0.585  0.00  0.00     0.019 C 
ENDBRANCH  15  18
ENDBRANCH   1  14
TORSDOF 4
