@<TRIPOS>MOLECULE
*****
 37 39 0 0 0
SMALL
GASTEIGER

@<TRIPOS>ATOM
      1 O           3.3529   -3.6259    0.1488 O.2     1  UNL1       -0.2708
      2 C           2.6536   -2.6093    0.0536 C.2     1  UNL1        0.2653
      3 N           1.3820   -2.6872   -0.4982 N.am    1  UNL1       -0.2045
      4 N           1.0002   -3.9145   -0.9939 N.2     1  UNL1       -0.1862
      5 C          -0.1348   -4.0076   -1.5950 C.2     1  UNL1        0.0689
      6 C          -0.5057   -5.2377   -2.2548 C.ar    1  UNL1        0.0601
      7 C          -1.0822   -5.3444   -3.5049 C.ar    1  UNL1       -0.0277
      8 C          -1.1504   -6.7142   -3.8601 C.ar    1  UNL1        0.0003
      9 C          -1.5562   -7.3878   -5.0274 C.ar    1  UNL1       -0.0526
     10 C          -1.4601   -8.7795   -5.0875 C.ar    1  UNL1       -0.0611
     11 C          -0.9921   -9.4997   -3.9913 C.ar    1  UNL1       -0.0598
     12 C          -0.6016   -8.8518   -2.8081 C.ar    1  UNL1       -0.0378
     13 C          -0.6704   -7.4481   -2.7764 C.ar    1  UNL1        0.0469
     14 N          -0.2991   -6.5302   -1.8061 N.ar    1  UNL1       -0.3534
     15 C           3.0875   -1.2088    0.5915 C.3     1  UNL1        0.1574
     16 O           2.3148   -0.1751   -0.0364 O.3     1  UNL1       -0.3778
     17 C           4.5922   -0.8999    0.5036 C.ar    1  UNL1       -0.0103
     18 C           5.5622   -1.9191    0.5337 C.ar    1  UNL1       -0.0557
     19 C           6.9294   -1.6520    0.5764 C.ar    1  UNL1       -0.0614
     20 C           7.3757   -0.3426    0.5426 C.ar    1  UNL1       -0.0617
     21 C           6.4480    0.6963    0.5210 C.ar    1  UNL1       -0.0614
     22 C           5.0704    0.4240    0.5211 C.ar    1  UNL1       -0.0557
     23 H           0.7835   -1.8660   -0.5536 H       1  UNL1        0.1773
     24 H          -0.8180   -3.1475   -1.6961 H       1  UNL1        0.0866
     25 H          -1.3438   -4.5124   -4.1434 H       1  UNL1        0.0645
     26 H          -1.9157   -6.8260   -5.8838 H       1  UNL1        0.0624
     27 H          -1.7461   -9.2960   -6.0007 H       1  UNL1        0.0618
     28 H          -0.9187  -10.5835   -4.0642 H       1  UNL1        0.0618
     29 H          -0.2353   -9.4299   -1.9651 H       1  UNL1        0.0638
     30 H           0.0942   -6.7737   -0.9058 H       1  UNL1        0.1659
     31 H           2.8227   -1.1923    1.6572 H       1  UNL1        0.0742
     32 H           2.7295   -0.0175   -0.9032 H       1  UNL1        0.2109
     33 H           5.3013   -2.9713    0.5344 H       1  UNL1        0.0621
     34 H           7.6283   -2.4820    0.6447 H       1  UNL1        0.0618
     35 H           8.4426   -0.1405    0.5409 H       1  UNL1        0.0618
     36 H           6.8023    1.7241    0.5229 H       1  UNL1        0.0618
     37 H           4.3796    1.2653    0.5475 H       1  UNL1        0.0621
@<TRIPOS>BOND
     1     1     2    2
     2     2     3   am
     3     3     4    1
     4     4     5    2
     5     5     6    1
     6     6     7   ar
     7     7     8   ar
     8     8     9   ar
     9     9    10   ar
    10    10    11   ar
    11    11    12   ar
    12    12    13   ar
    13     8    13   ar
    14    13    14   ar
    15     6    14   ar
    16    15    17    1
    17    17    18   ar
    18    18    19   ar
    19    19    20   ar
    20    20    21   ar
    21    21    22   ar
    22    17    22   ar
    23    15    16    1
    24    15     2    1
    25     3    23    1
    26     5    24    1
    27     7    25    1
    28     9    26    1
    29    10    27    1
    30    11    28    1
    31    12    29    1
    32    14    30    1
    33    15    31    1
    34    16    32    1
    35    18    33    1
    36    19    34    1
    37    20    35    1
    38    21    36    1
    39    22    37    1
