@<TRIPOS>MOLECULE
*****
 47 49 0 0 0
SMALL
GASTEIGER

@<TRIPOS>ATOM
      1 C           0.9940   -0.1440    0.0292 C.3     1  UNL1        0.0125
      2 C           2.4971   -0.0417   -0.0009 C.2     1  UNL1        0.2141
      3 O           3.0250    1.0451   -0.2305 O.2     1  UNL1       -0.2758
      4 N           3.1820   -1.2360    0.2008 N.am    1  UNL1       -0.2857
      5 C           4.5951   -1.2923    0.2896 C.ar    1  UNL1        0.0335
      6 C           5.3388   -2.3682   -0.2090 C.ar    1  UNL1       -0.0387
      7 C           6.7558   -2.3942   -0.0745 C.ar    1  UNL1       -0.0387
      8 C           7.4421   -1.3334    0.5403 C.ar    1  UNL1        0.0338
      9 N           8.8707   -1.2889    0.5879 N.am    1  UNL1       -0.2802
     10 C           9.6193   -0.2666    1.1738 C.2     1  UNL1        0.2672
     11 O           9.1553    0.7296    1.7384 O.2     1  UNL1       -0.2682
     12 C          11.0780   -0.4064    1.1534 C.ar    1  UNL1        0.1349
     13 C          11.8746    0.0517    2.1893 C.ar    1  UNL1        0.0094
     14 S          13.5281   -0.0625    1.7715 S.2     1  UNL1       -0.0598
     15 C          13.0849   -0.7196    0.2399 C.ar    1  UNL1        0.1631
     16 N          14.0266   -1.0012   -0.6924 N.pl3   1  UNL1       -0.2935
     17 C          13.6972   -1.2447   -2.0400 C.ar    1  UNL1        0.0357
     18 C          14.1014   -2.4573   -2.6140 C.ar    1  UNL1       -0.0400
     19 C          13.7617   -2.7762   -3.9311 C.ar    1  UNL1       -0.0571
     20 C          12.9766   -1.9041   -4.6874 C.ar    1  UNL1       -0.0501
     21 C          12.4467   -2.3081   -6.0313 C.3     1  UNL1       -0.0397
     22 C          12.6296   -0.6624   -4.1451 C.ar    1  UNL1       -0.0542
     23 C          12.9940   -0.3143   -2.8335 C.ar    1  UNL1       -0.0290
     24 C          12.5875    1.0356   -2.3077 C.3     1  UNL1       -0.0379
     25 N          11.7877   -0.9190    0.0826 N.ar    1  UNL1       -0.2200
     26 C           6.6630   -0.3085    1.0764 C.ar    1  UNL1       -0.0387
     27 C           5.2767   -0.2760    0.9406 C.ar    1  UNL1       -0.0387
     28 H           0.5783    0.8460   -0.1984 H       1  UNL1        0.0323
     29 H           0.6429   -0.4347    1.0218 H       1  UNL1        0.0323
     30 H           0.6353   -0.8418   -0.7299 H       1  UNL1        0.0323
     31 H           2.6714   -2.1093    0.2008 H       1  UNL1        0.1548
     32 H           4.8478   -3.1565   -0.7764 H       1  UNL1        0.0637
     33 H           7.2949   -3.2549   -0.4660 H       1  UNL1        0.0637
     34 H           9.3965   -2.0302    0.1334 H       1  UNL1        0.1552
     35 H          11.5459    0.4598    3.1362 H       1  UNL1        0.0717
     36 H          15.0053   -0.8059   -0.5179 H       1  UNL1        0.1541
     37 H          14.6195   -3.1978   -2.0091 H       1  UNL1        0.0636
     38 H          14.0837   -3.7267   -4.3482 H       1  UNL1        0.0621
     39 H          12.7794   -3.3143   -6.3061 H       1  UNL1        0.0278
     40 H          12.7766   -1.6120   -6.8075 H       1  UNL1        0.0278
     41 H          11.3509   -2.3233   -6.0038 H       1  UNL1        0.0278
     42 H          12.0446    0.0359   -4.7412 H       1  UNL1        0.0623
     43 H          12.0595    1.6225   -3.0646 H       1  UNL1        0.0278
     44 H          13.4701    1.5992   -1.9899 H       1  UNL1        0.0278
     45 H          11.8940    0.9427   -1.4715 H       1  UNL1        0.0278
     46 H           7.0827    0.5255    1.6206 H       1  UNL1        0.0637
     47 H           4.7487    0.5643    1.3824 H       1  UNL1        0.0637
@<TRIPOS>BOND
     1     1     2    1
     2     2     3    2
     3     2     4   am
     4     4     5    1
     5     5     6   ar
     6     6     7   ar
     7     7     8   ar
     8     8     9    1
     9     9    10   am
    10    10    11    2
    11    10    12    1
    12    12    13   ar
    13    13    14   ar
    14    14    15   ar
    15    15    16    1
    16    16    17    1
    17    17    18   ar
    18    18    19   ar
    19    19    20   ar
    20    20    21    1
    21    20    22   ar
    22    22    23   ar
    23    17    23   ar
    24    23    24    1
    25    15    25   ar
    26    12    25   ar
    27     8    26   ar
    28    26    27   ar
    29     5    27   ar
    30     1    28    1
    31     1    29    1
    32     1    30    1
    33     4    31    1
    34     6    32    1
    35     7    33    1
    36     9    34    1
    37    13    35    1
    38    16    36    1
    39    18    37    1
    40    19    38    1
    41    21    39    1
    42    21    40    1
    43    21    41    1
    44    22    42    1
    45    24    43    1
    46    24    44    1
    47    24    45    1
    48    26    46    1
    49    27    47    1
