@<TRIPOS>MOLECULE
*****
 56 59 0 0 0
SMALL
GASTEIGER

@<TRIPOS>ATOM
      1 C           0.9379    0.0696   -0.0486 C.3     1  UNL1       -0.0622
      2 C           2.4542    0.0410   -0.0242 C.3     1  UNL1       -0.0215
      3 C           2.9658   -1.2839    0.5342 C.3     1  UNL1        0.0893
      4 O           4.3837   -1.2014    0.6088 O.3     1  UNL1       -0.4920
      5 C           5.0551   -2.3496    0.9085 C.ar    1  UNL1        0.1205
      6 C           6.2671   -2.1487    1.5551 C.ar    1  UNL1       -0.0193
      7 C           7.1289   -3.2199    1.7699 C.ar    1  UNL1       -0.0491
      8 C           6.7361   -4.5256    1.4887 C.ar    1  UNL1        0.0004
      9 C           7.4526   -5.6341    2.0893 C.ar    1  UNL1        0.0736
     10 N           8.0374   -6.6914    1.4320 N.ar    1  UNL1       -0.2732
     11 N           8.4335   -7.6993    2.2451 N.ar    1  UNL1       -0.1348
     12 C           8.0936   -7.2302    3.4562 C.ar    1  UNL1        0.2451
     13 C           7.6647   -5.8953    3.4294 C.ar    1  UNL1        0.0539
     14 C           7.4293   -5.1324    4.6877 C.3     1  UNL1        0.0594
     15 C           8.2837   -3.8633    4.7062 C.ar    1  UNL1        0.0073
     16 C           7.5428   -2.6462    4.7477 C.ar    1  UNL1       -0.0507
     17 C           8.1697   -1.3956    4.6390 C.ar    1  UNL1       -0.0194
     18 C           9.5530   -1.3143    4.6147 C.ar    1  UNL1        0.1236
     19 O          10.1346   -0.0785    4.5734 O.3     1  UNL1       -0.4950
     20 C          11.5563   -0.0931    4.7479 C.3     1  UNL1        0.0788
     21 C          10.2825   -2.4853    4.6397 C.ar    1  UNL1        0.0220
     22 C           9.6943   -3.7425    4.6847 C.ar    1  UNL1        0.1276
     23 O          10.7482   -4.6218    4.6828 O.3     1  UNL1       -0.4947
     24 C          10.4910   -5.8910    5.1694 C.3     1  UNL1        0.0788
     25 C           7.7357   -5.9778    5.8708 C.2     1  UNL1        0.0983
     26 C           7.1619   -5.5585    7.2144 C.1     1  UNL1        0.1008
     27 N           6.6858   -5.2106    8.3291 N.1     1  UNL1       -0.1910
     28 C           8.1200   -7.2901    5.8148 C.2     1  UNL1        0.2005
     29 N           8.4113   -8.0547    6.9382 N.pl3   1  UNL1       -0.3284
     30 O           8.3526   -7.9435    4.5775 O.3     1  UNL1       -0.4215
     31 C           5.5173   -4.7321    0.8414 C.ar    1  UNL1       -0.0491
     32 C           4.6886   -3.6430    0.5345 C.ar    1  UNL1       -0.0193
     33 H           0.5778    1.0206   -0.4515 H       1  UNL1        0.0231
     34 H           0.5337   -0.0497    0.9616 H       1  UNL1        0.0231
     35 H           0.5434   -0.7383   -0.6732 H       1  UNL1        0.0231
     36 H           2.8393    0.8764    0.5728 H       1  UNL1        0.0295
     37 H           2.8479    0.1896   -1.0379 H       1  UNL1        0.0295
     38 H           2.6341   -2.0881   -0.1283 H       1  UNL1        0.0696
     39 H           2.5693   -1.4473    1.5427 H       1  UNL1        0.0696
     40 H           6.5381   -1.1579    1.9127 H       1  UNL1        0.0654
     41 H           8.0951   -3.0278    2.2245 H       1  UNL1        0.0625
     42 H           8.1840   -6.7967    0.4276 H       1  UNL1        0.1890
     43 H           6.3527   -4.8946    4.7139 H       1  UNL1        0.0458
     44 H           6.4497   -2.6598    4.7774 H       1  UNL1        0.0623
     45 H           7.5710   -0.4938    4.5429 H       1  UNL1        0.0654
     46 H          11.9109    0.9359    4.7992 H       1  UNL1        0.0660
     47 H          12.0503   -0.5759    3.8943 H       1  UNL1        0.0660
     48 H          11.8395   -0.5896    5.6868 H       1  UNL1        0.0660
     49 H          11.3680   -2.4819    4.6240 H       1  UNL1        0.0691
     50 H          11.3096   -6.6058    5.1346 H       1  UNL1        0.0660
     51 H           9.8314   -6.2728    4.4316 H       1  UNL1        0.0660
     52 H          10.1244   -5.8262    6.1960 H       1  UNL1        0.0660
     53 H           8.4701   -7.5415    7.8193 H       1  UNL1        0.1451
     54 H           9.2356   -8.6405    6.8114 H       1  UNL1        0.1451
     55 H           5.1847   -5.7389    0.6009 H       1  UNL1        0.0625
     56 H           3.7659   -3.8419    0.0026 H       1  UNL1        0.0654
@<TRIPOS>BOND
     1     1     2    1
     2     2     3    1
     3     3     4    1
     4     4     5    1
     5     5     6   ar
     6     6     7   ar
     7     7     8   ar
     8     8     9    1
     9     9    10   ar
    10    10    11   ar
    11    11    12   ar
    12    12    13   ar
    13     9    13   ar
    14    13    14    1
    15    14    15    1
    16    15    16   ar
    17    16    17   ar
    18    17    18   ar
    19    18    19    1
    20    19    20    1
    21    18    21   ar
    22    21    22   ar
    23    15    22   ar
    24    22    23    1
    25    23    24    1
    26    14    25    1
    27    25    26    1
    28    26    27    3
    29    25    28    2
    30    28    29    1
    31    28    30    1
    32    12    30    1
    33     8    31   ar
    34    31    32   ar
    35     5    32   ar
    36     1    33    1
    37     1    34    1
    38     1    35    1
    39     2    36    1
    40     2    37    1
    41     3    38    1
    42     3    39    1
    43     6    40    1
    44     7    41    1
    45    10    42    1
    46    14    43    1
    47    16    44    1
    48    17    45    1
    49    20    46    1
    50    20    47    1
    51    20    48    1
    52    21    49    1
    53    24    50    1
    54    24    51    1
    55    24    52    1
    56    29    53    1
    57    29    54    1
    58    31    55    1
    59    32    56    1
