REMARK  8 active torsions:
REMARK  status: ('A' for Active; 'I' for Inactive)
REMARK    1  A    between atoms: C_2  and  O_3 
REMARK    2  A    between atoms: O_3  and  C_4 
REMARK    3  A    between atoms: C_9  and  N_10 
REMARK       I    between atoms: N_10  and  C_11 
REMARK       I    between atoms: C_11  and  N_12 
REMARK       I    between atoms: C_11  and  N_25 
REMARK       I    between atoms: N_12  and  C_13 
REMARK    4  A    between atoms: C_13  and  C_15 
REMARK    5  A    between atoms: C_18  and  N_19 
REMARK       I    between atoms: N_19  and  C_20 
REMARK    6  A    between atoms: N_25  and  C_26 
REMARK    7  A    between atoms: C_26  and  C_27 
REMARK    8  A    between atoms: C_27  and  C_28 
ROOT
ATOM      1  N   UNL d   1       4.605  -0.738   2.067  0.00  0.00    -0.187 N 
ATOM      2  C   UNL d   1       3.096  -0.716   1.906  0.00  0.00     0.704 C 
ATOM      3  N   UNL d   1       2.255  -1.400   1.038  0.00  0.00    -0.027 NA
ATOM      4  C   UNL d   1       2.377  -1.743  -0.467  0.00  0.00     0.278 C 
ATOM      5  O   UNL d   1       3.016  -1.229  -1.429  0.00  0.00    -0.269 OA
ATOM      6  N   UNL d   1       2.568   0.410   2.778  0.00  0.00    -0.224 N 
ATOM      7  H   UNL d   1       5.071   0.086   2.448  0.00  0.00     0.184 HD
ATOM      8  H   UNL d   1       3.279   1.054   3.132  0.00  0.00     0.177 HD
ENDROOT
BRANCH   1   9
ATOM      9  C   UNL d   1       5.416  -1.280   1.019  0.00  0.00     0.082 C 
ATOM     10  C   UNL d   1       6.764  -1.552   0.844  0.00  0.00     0.033 C 
ATOM     11  C   UNL d   1       7.242  -2.300  -0.302  0.00  0.00     0.002 C 
ATOM     12  C   UNL d   1       6.388  -2.795  -1.280  0.00  0.00     0.003 C 
ATOM     13  C   UNL d   1       5.122  -2.269  -1.238  0.00  0.00     0.039 C 
ATOM     14  C   UNL d   1       4.760  -1.353  -0.151  0.00  0.00     0.096 C 
BRANCH  14  15
ATOM     15  O   UNL d   1       4.108  -0.025  -0.184  0.00  0.00    -0.349 OA
BRANCH  15  16
ATOM     16  C   UNL d   1       2.715   0.724  -0.221  0.00  0.00     0.171 C 
ATOM     17  C   UNL d   1       0.942   0.409  -0.007  0.00  0.00     0.034 C 
ENDBRANCH  15  16
ENDBRANCH  14  15
ENDBRANCH   1   9
BRANCH   6  18
ATOM     18  C   UNL d   1       1.274   1.156   2.599  0.00  0.00     0.142 C 
BRANCH  18  19
ATOM     19  C   UNL d   1       0.900   2.181   3.660  0.00  0.00     0.057 C 
BRANCH  19  20
ATOM     20  C   UNL d   1      -0.523   2.709   3.655  0.00  0.00    -0.048 C 
ATOM     21  C   UNL d   1      -0.937   3.443   4.688  0.00  0.00    -0.006 C 
ATOM     22  C   UNL d   1      -0.233   3.824   5.856  0.00  0.00     0.014 C 
ATOM     23  C   UNL d   1      -2.356   3.741   4.487  0.00  0.00     0.038 C 
ATOM     24  C   UNL d   1      -0.937   4.298   6.884  0.00  0.00     0.001 C 
ATOM     25  C   UNL d   1      -2.344   4.631   6.736  0.00  0.00     0.002 C 
ATOM     26  C   UNL d   1      -3.058   4.408   5.609  0.00  0.00     0.030 C 
ATOM     27  N   UNL d   1      -2.754   3.327   3.341  0.00  0.00    -0.385 N 
ATOM     28  C   UNL d   1      -1.668   2.499   2.693  0.00  0.00     0.155 C 
ATOM     29  H   UNL d   1      -3.678   3.564   2.976  0.00  0.00     0.160 HD
ENDBRANCH  19  20
ENDBRANCH  18  19
ENDBRANCH   6  18
BRANCH   4  30
ATOM     30  C   UNL d   1       1.408  -2.133  -1.482  0.00  0.00     0.103 C 
ATOM     31  C   UNL d   1       1.655  -3.359  -2.040  0.00  0.00     0.001 C 
ATOM     32  C   UNL d   1       1.102  -3.626  -3.299  0.00  0.00     0.027 C 
ATOM     33  C   UNL d   1       0.378  -2.593  -3.943  0.00  0.00     0.034 C 
ATOM     34  C   UNL d   1       0.549  -1.318  -3.640  0.00  0.00     0.027 C 
ATOM     35  C   UNL d   1       1.057  -1.065  -2.403  0.00  0.00     0.001 C 
BRANCH  33  36
ATOM     36  N   UNL d   1      -0.584  -2.935  -4.913  0.00  0.00    -0.328 N 
ATOM     37  C   UNL d   1      -1.549  -2.135  -5.418  0.00  0.00     0.218 C 
ATOM     38  C   UNL d   1      -1.811  -0.679  -5.077  0.00  0.00     0.117 C 
ATOM     39  O   UNL d   1      -2.320  -2.686  -6.282  0.00  0.00    -0.274 OA
ATOM     40  H   UNL d   1      -0.637  -3.904  -5.154  0.00  0.00     0.169 HD
ENDBRANCH  33  36
ENDBRANCH   4  30
TORSDOF 8
