REMARK  9 active torsions:
REMARK  status: ('A' for Active; 'I' for Inactive)
REMARK    1  A    between atoms: O_2  and  C_3 
REMARK    2  A    between atoms: C_6  and  C_7 
REMARK       I    between atoms: C_7  and  N_9 
REMARK    3  A    between atoms: N_9  and  C_10 
REMARK    4  A    between atoms: C_10  and  N_12 
REMARK    5  A    between atoms: N_12  and  C_13 
REMARK    6  A    between atoms: C_18  and  C_19 
REMARK    7  A    between atoms: C_19  and  O_21 
REMARK    8  A    between atoms: O_21  and  C_22 
REMARK    9  A    between atoms: C_29  and  O_30 
ROOT
ATOM      1  N   UNL d   1       4.976   8.500  -1.448  0.00  0.00    -0.312 N 
ATOM      2  H   UNL d   1       4.287   8.527  -0.705  0.00  0.00     0.170 HD
ENDROOT
BRANCH   1   3
ATOM      3  C   UNL d   1       5.555   7.255  -1.817  0.00  0.00     0.180 C 
ATOM      4  S   UNL d   1       6.951   7.130  -2.748  0.00  0.00    -0.040 SA
BRANCH   3   5
ATOM      5  N   UNL d   1       4.882   6.069  -1.307  0.00  0.00    -0.299 N 
ATOM      6  C   UNL d   1       5.262   4.705  -1.578  0.00  0.00     0.257 C 
ATOM      7  O   UNL d   1       6.230   4.402  -2.277  0.00  0.00    -0.267 OA
ATOM      8  H   UNL d   1       4.067   6.193  -0.722  0.00  0.00     0.171 HD
BRANCH   6   9
ATOM      9  C   UNL d   1       4.506   3.490  -1.094  0.00  0.00     0.035 A 
ATOM     10  C   UNL d   1       4.936   2.208  -1.514  0.00  0.00     0.020 A 
ATOM     11  C   UNL d   1       4.207   1.034  -1.215  0.00  0.00     0.040 A 
ATOM     12  C   UNL d   1       3.055   1.079  -0.411  0.00  0.00     0.101 A 
ATOM     13  C   UNL d   1       2.674   2.351   0.082  0.00  0.00     0.102 A 
ATOM     14  C   UNL d   1       3.387   3.529  -0.282  0.00  0.00     0.056 A 
BRANCH  12  15
ATOM     15  O   UNL d   1       2.616  -0.165  -0.007  0.00  0.00    -0.353 OA
ATOM     16  C   UNL d   1       1.280  -0.601  -0.276  0.00  0.00     0.210 C 
ENDBRANCH  12  15
BRANCH  13  17
ATOM     17  O   UNL d   1       1.696   2.717   0.978  0.00  0.00    -0.353 OA
ATOM     18  C   UNL d   1       0.761   1.727   1.296  0.00  0.00     0.210 C 
ENDBRANCH  13  17
ENDBRANCH   6   9
ENDBRANCH   3   5
ENDBRANCH   1   3
BRANCH   1  19
ATOM     19  C   UNL d   1       5.406   9.831  -1.786  0.00  0.00     0.174 C 
ATOM     20  N   UNL d   1       5.114  10.878  -1.040  0.00  0.00    -0.223 NA
ATOM     21  C   UNL d   1       5.694  12.056  -1.557  0.00  0.00     0.076 C 
ATOM     22  C   UNL d   1       5.835  13.288  -0.886  0.00  0.00     0.034 C 
ATOM     23  C   UNL d   1       6.194  11.986  -2.859  0.00  0.00     0.038 C 
ATOM     24  C   UNL d   1       6.359  14.420  -1.544  0.00  0.00     0.020 C 
ATOM     25  C   UNL d   1       6.754  14.387  -2.890  0.00  0.00     0.041 C 
ATOM     26  C   UNL d   1       6.632  13.159  -3.582  0.00  0.00     0.039 C 
ATOM     27  S   UNL d   1       6.255  10.284  -3.232  0.00  0.00    -0.050 SA
BRANCH  25  28
ATOM     28  C   UNL d   1       7.393  15.656  -3.430  0.00  0.00     0.293 C 
ATOM     29  O   UNL d   1       7.508  16.654  -2.702  0.00  0.00    -0.259 OA
BRANCH  28  30
ATOM     30  O   UNL d   1       7.865  15.601  -4.704  0.00  0.00    -0.313 OA
BRANCH  30  31
ATOM     31  C   UNL d   1       8.545  16.800  -5.210  0.00  0.00     0.124 C 
ATOM     32  C   UNL d   1       9.868  17.071  -4.484  0.00  0.00     0.040 C 
ATOM     33  C   UNL d   1       8.861  16.605  -6.698  0.00  0.00     0.040 C 
ENDBRANCH  30  31
ENDBRANCH  28  30
ENDBRANCH  25  28
ENDBRANCH   1  19
TORSDOF 9
