REMARK  6 active torsions:
REMARK  status: ('A' for Active; 'I' for Inactive)
REMARK    1  A    between atoms: C_3  and  C_22 
REMARK    2  A    between atoms: C_4  and  C_5 
REMARK    3  A    between atoms: N_7  and  C_8 
REMARK    4  A    between atoms: C_8  and  C_9 
REMARK       I    between atoms: C_22  and  N_24 
REMARK    5  A    between atoms: N_24  and  C_25 
REMARK    6  A    between atoms: C_30  and  N_31 
ROOT
ATOM      1  N   UNL d   1       1.089  -0.034  -0.032  0.00  0.00    -0.096 N 
ATOM      2  C   UNL d   1       2.350  -0.034  -0.032  0.00  0.00     0.025 C 
ATOM      3  C   UNL d   1       3.870  -0.034  -0.032  0.00  0.00     0.099 C 
ATOM      4  C   UNL d   1       4.507  -0.172   1.149  0.00  0.00     0.041 C 
ENDROOT
BRANCH   3   5
ATOM      5  C   UNL d   1       4.580   0.178  -1.343  0.00  0.00     0.265 C 
ATOM      6  O   UNL d   1       3.904   0.262  -2.373  0.00  0.00    -0.267 OA
ATOM      7  N   UNL d   1       5.976   0.192  -1.351  0.00  0.00    -0.320 N 
ATOM      8  H   UNL d   1       6.467  -0.227  -0.564  0.00  0.00     0.169 HD
BRANCH   7   9
ATOM      9  C   UNL d   1       6.737   0.257  -2.563  0.00  0.00     0.068 C 
ATOM     10  C   UNL d   1       6.337   1.149  -3.568  0.00  0.00     0.032 C 
ATOM     11  C   UNL d   1       6.932   1.133  -4.834  0.00  0.00     0.002 C 
ATOM     12  C   UNL d   1       8.019   0.305  -5.088  0.00  0.00     0.003 C 
ATOM     13  C   UNL d   1       8.532  -0.490  -4.064  0.00  0.00     0.038 C 
ATOM     14  C   UNL d   1       7.872  -0.546  -2.816  0.00  0.00     0.129 C 
BRANCH  14  15
ATOM     15  N   UNL d   1       8.336  -1.557  -1.853  0.00  0.00    -0.113 N 
ATOM     16  O   UNL d   1       9.285  -2.279  -2.176  0.00  0.00    -0.532 OA
ATOM     17  O   UNL d   1       7.743  -1.632  -0.760  0.00  0.00    -0.532 OA
ENDBRANCH  14  15
ENDBRANCH   7   9
ENDBRANCH   3   5
BRANCH   4  18
ATOM     18  C   UNL d   1       3.843  -0.356   2.400  0.00  0.00    -0.006 A 
ATOM     19  C   UNL d   1       4.172   0.327   3.538  0.00  0.00     0.104 A 
ATOM     20  N   UNL d   1       3.254   0.015   4.519  0.00  0.00    -0.351 N 
ATOM     21  C   UNL d   1       2.363  -0.930   4.024  0.00  0.00     0.045 A 
ATOM     22  C   UNL d   1       1.254  -1.576   4.599  0.00  0.00     0.030 A 
ATOM     23  C   UNL d   1       2.751  -1.208   2.710  0.00  0.00     0.002 A 
ATOM     24  C   UNL d   1       0.528  -2.483   3.808  0.00  0.00     0.002 A 
ATOM     25  C   UNL d   1       0.900  -2.765   2.503  0.00  0.00     0.001 A 
ATOM     26  C   UNL d   1       2.031  -2.168   1.968  0.00  0.00     0.014 A 
BRANCH  20  27
ATOM     27  C   UNL d   1       3.208   0.575   5.881  0.00  0.00     0.167 C 
BRANCH  27  28
ATOM     28  C   UNL d   1       4.298   1.593   6.147  0.00  0.00    -0.038 A 
ATOM     29  C   UNL d   1       4.340   2.794   5.414  0.00  0.00     0.009 A 
ATOM     30  C   UNL d   1       5.455   3.628   5.478  0.00  0.00     0.002 A 
ATOM     31  C   UNL d   1       6.554   3.253   6.248  0.00  0.00     0.024 A 
ATOM     32  C   UNL d   1       6.493   2.100   7.028  0.00  0.00     0.034 A 
ATOM     33 CL   UNL d   1       7.864   1.624   7.953  0.00  0.00    -0.084 Cl
ATOM     34  C   UNL d   1       5.351   1.297   7.023  0.00  0.00     0.032 A 
ENDBRANCH  27  28
ENDBRANCH  20  27
ENDBRANCH   4  18
TORSDOF 6
