REMARK  11 active torsions:
REMARK  status: ('A' for Active; 'I' for Inactive)
REMARK    1  A    between atoms: C_2  and  O_3 
REMARK    2  A    between atoms: O_3  and  C_4 
REMARK    3  A    between atoms: C_4  and  C_5 
REMARK    4  A    between atoms: C_5  and  C_6 
REMARK       I    between atoms: C_6  and  N_8 
REMARK    5  A    between atoms: N_8  and  N_9 
REMARK    6  A    between atoms: N_9  and  C_10 
REMARK    7  A    between atoms: C_10  and  N_12 
REMARK       I    between atoms: N_12  and  C_13 
REMARK    8  A    between atoms: C_13  and  C_15 
REMARK    9  A    between atoms: C_18  and  O_19 
REMARK   10  A    between atoms: O_19  and  C_20 
REMARK   11  A    between atoms: C_20  and  C_22 
ROOT
ATOM      1  N   UNL d   1      10.633   2.436   4.772  0.00  0.00    -0.298 N 
ATOM      2  C   UNL d   1      11.442   2.896   5.838  0.00  0.00     0.257 C 
ATOM      3  O   UNL d   1      11.017   3.383   6.892  0.00  0.00    -0.267 OA
ATOM      4  H   UNL d   1      11.120   2.029   3.984  0.00  0.00     0.171 HD
ENDROOT
BRANCH   1   5
ATOM      5  C   UNL d   1       9.218   2.428   4.736  0.00  0.00     0.193 C 
ATOM      6  S   UNL d   1       8.216   3.036   5.952  0.00  0.00    -0.039 SA
BRANCH   5   7
ATOM      7  N   UNL d   1       8.637   1.867   3.583  0.00  0.00    -0.273 N 
ATOM      8  H   UNL d   1       9.134   1.462   2.792  0.00  0.00     0.189 HD
BRANCH   7   9
ATOM      9  N   UNL d   1       7.185   1.810   3.481  0.00  0.00    -0.268 N 
ATOM     10  C   UNL d   1       6.557   1.261   2.376  0.00  0.00     0.238 C 
ATOM     11  O   UNL d   1       7.201   0.796   1.435  0.00  0.00    -0.272 OA
ATOM     12  H   UNL d   1       6.674   2.201   4.274  0.00  0.00     0.190 HD
BRANCH  10  13
ATOM     13  C   UNL d   1       5.019   1.276   2.406  0.00  0.00     0.130 C 
BRANCH  13  14
ATOM     14  C   UNL d   1       4.449   0.643   1.130  0.00  0.00     0.176 C 
BRANCH  14  15
ATOM     15  O   UNL d   1       3.013   0.643   1.129  0.00  0.00    -0.391 OA
BRANCH  15  16
ATOM     16  C   UNL d   1       2.513   0.045  -0.077  0.00  0.00     0.163 C 
ATOM     17  C   UNL d   1       0.995   0.046  -0.076  0.00  0.00     0.033 C 
ENDBRANCH  15  16
ENDBRANCH  14  15
ENDBRANCH  13  14
ENDBRANCH  10  13
ENDBRANCH   7   9
ENDBRANCH   5   7
ENDBRANCH   1   5
BRANCH   2  18
ATOM     18  C   UNL d   1      12.929   2.849   5.753  0.00  0.00     0.032 A 
ATOM     19  C   UNL d   1      13.688   2.610   6.921  0.00  0.00     0.020 A 
ATOM     20  C   UNL d   1      15.084   2.793   6.938  0.00  0.00     0.038 A 
ATOM     21  C   UNL d   1      15.758   3.134   5.766  0.00  0.00     0.069 A 
ATOM     22  C   UNL d   1      14.996   3.330   4.606  0.00  0.00     0.038 A 
ATOM     23  C   UNL d   1      13.597   3.242   4.603  0.00  0.00     0.020 A 
BRANCH  21  24
ATOM     24  O   UNL d   1      17.125   3.272   5.857  0.00  0.00    -0.346 OA
BRANCH  24  25
ATOM     25  C   UNL d   1      17.849   3.581   4.647  0.00  0.00     0.124 C 
ATOM     26  C   UNL d   1      17.571   5.026   4.211  0.00  0.00     0.040 C 
BRANCH  25  27
ATOM     27  C   UNL d   1      19.368   3.427   4.898  0.00  0.00     0.027 C 
ATOM     28  C   UNL d   1      20.196   3.729   3.647  0.00  0.00     0.007 C 
ENDBRANCH  25  27
ENDBRANCH  24  25
ENDBRANCH  21  24
ENDBRANCH   2  18
TORSDOF 11
