REMARK  4 active torsions:
REMARK  status: ('A' for Active; 'I' for Inactive)
REMARK       I    between atoms: C_2  and  N_3 
REMARK    1  A    between atoms: C_2  and  C_17 
REMARK    2  A    between atoms: N_3  and  C_4 
REMARK    3  A    between atoms: C_7  and  N_8 
REMARK    4  A    between atoms: N_8  and  C_9 
ROOT
ATOM      1  C   UNL d   1       2.200   2.407  -0.413  0.00  0.00     0.034 A 
ATOM      2  C   UNL d   1       2.721   3.310  -1.355  0.00  0.00     0.032 A 
ATOM      3  C   UNL d   1       2.129   4.571  -1.510  0.00  0.00     0.031 A 
ATOM      4  C   UNL d   1       0.999   4.899  -0.755  0.00  0.00     0.032 A 
ATOM      5  C   UNL d   1       0.538   3.978   0.198  0.00  0.00     0.031 A 
ATOM      6  C   UNL d   1       1.120   2.744   0.366  0.00  0.00     0.032 A 
ENDROOT
BRANCH   1   7
ATOM      7  N   UNL d   1       2.834   1.199  -0.147  0.00  0.00    -0.326 N 
ATOM      8  C   UNL d   1       2.194  -0.038  -0.010  0.00  0.00     0.236 C 
ATOM      9  O   UNL d   1       0.987  -0.208   0.029  0.00  0.00    -0.272 OA
ATOM     10  H   UNL d   1       3.831   1.203  -0.332  0.00  0.00     0.169 HD
BRANCH   8  11
ATOM     11  C   UNL d   1       3.224  -1.193   0.106  0.00  0.00     0.164 C 
ATOM     12  C   UNL d   1       2.623  -2.581   0.277  0.00  0.00    -0.004 C 
ATOM     13  C   UNL d   1       2.978  -3.623  -0.485  0.00  0.00     0.016 C 
ATOM     14  C   UNL d   1       3.878  -3.351  -1.608  0.00  0.00     0.117 C 
ATOM     15  N   UNL d   1       4.434  -2.229  -1.893  0.00  0.00    -0.253 NA
ATOM     16  C   UNL d   1       4.273  -1.157  -1.054  0.00  0.00     0.117 C 
ATOM     17  S   UNL d   1       5.328   0.159  -1.289  0.00  0.00    -0.062 SA
ENDBRANCH   8  11
ENDBRANCH   1   7
BRANCH   4  18
ATOM     18  N   UNL d   1       0.317   6.110  -0.942  0.00  0.00    -0.356 N 
ATOM     19  H   UNL d   1       0.577   6.682  -1.734  0.00  0.00     0.166 HD
BRANCH  18  20
ATOM     20  C   UNL d   1      -0.805   6.541  -0.214  0.00  0.00     0.032 A 
ATOM     21  C   UNL d   1      -2.029   6.779  -0.841  0.00  0.00     0.029 A 
ATOM     22  C   UNL d   1      -3.127   7.206  -0.088  0.00  0.00     0.002 A 
ATOM     23  C   UNL d   1      -3.030   7.310   1.301  0.00  0.00     0.000 A 
ATOM     24  C   UNL d   1      -1.829   7.022   1.939  0.00  0.00     0.002 A 
ATOM     25  C   UNL d   1      -0.723   6.656   1.181  0.00  0.00     0.029 A 
ENDBRANCH  18  20
ENDBRANCH   4  18
TORSDOF 4
