@<TRIPOS>MOLECULE
*****
 43 46 0 0 0
SMALL
GASTEIGER

@<TRIPOS>ATOM
      1 O           1.2058   -0.6450    0.3305 O.2     1  UNL1       -0.2866
      2 C           2.3239   -0.1873    0.1066 C.2     1  UNL1        0.1950
      3 C           3.0661    0.6530    1.0960 C.ar    1  UNL1        0.0223
      4 C           4.2419    1.3661    0.8026 C.ar    1  UNL1       -0.0509
      5 C           5.0519    1.8100    1.8522 C.ar    1  UNL1       -0.0611
      6 C           4.6383    1.6318    3.1737 C.ar    1  UNL1       -0.0617
      7 C           3.4154    1.0226    3.4506 C.ar    1  UNL1       -0.0611
      8 C           2.6258    0.5461    2.4124 C.ar    1  UNL1       -0.0509
      9 C           3.0187   -0.6646   -1.0907 C.ar    1  UNL1        0.0448
     10 C           4.1302   -1.4938   -0.7780 C.ar    1  UNL1       -0.0308
     11 C           4.8804   -2.0634   -1.7846 C.ar    1  UNL1        0.0418
     12 CL          6.3287   -2.9106   -1.4000 Cl      1  UNL1       -0.0835
     13 C           4.4636   -1.9018   -3.0986 C.ar    1  UNL1       -0.0416
     14 C           3.3273   -1.0991   -3.4084 C.ar    1  UNL1       -0.0384
     15 C           2.5673   -0.4373   -2.4142 C.ar    1  UNL1        0.0446
     16 N           1.3779    0.3489   -2.8071 N.am    1  UNL1       -0.2804
     17 C           0.7236    1.2969   -1.9904 C.2     1  UNL1        0.2563
     18 O           1.4118    1.8010   -1.0734 O.2     1  UNL1       -0.2692
     19 C          -0.6653    1.8366   -2.1570 C.ar    1  UNL1        0.0938
     20 S          -1.3281    2.3504   -0.6451 S.2     1  UNL1       -0.0755
     21 C          -2.3215    3.5376   -1.3842 C.ar    1  UNL1        0.0985
     22 C          -2.7591    4.7551   -0.8125 C.ar    1  UNL1        0.2873
     23 N          -1.8584    5.5493    0.0285 N.pl3   1  UNL1        0.0808
     24 O          -2.2759    6.6285    0.4673 O.2     1  UNL1        0.0415
     25 O          -0.6987    5.1435    0.1733 O.co2   1  UNL1       -0.5760
     26 C          -4.0050    5.2812   -1.1560 C.ar    1  UNL1        0.0168
     27 C          -4.7255    4.6457   -2.1543 C.ar    1  UNL1       -0.0547
     28 C          -4.1433    3.5500   -2.9001 C.ar    1  UNL1       -0.0517
     29 C          -2.8226    3.0020   -2.5682 C.ar    1  UNL1        0.0148
     30 C          -1.6622    2.1110   -3.1148 C.ar    1  UNL1        0.0681
     31 CL         -1.4068    1.6816   -4.7640 Cl      1  UNL1       -0.0816
     32 H           4.5529    1.5624   -0.2216 H       1  UNL1        0.0625
     33 H           6.0192    2.2654    1.6487 H       1  UNL1        0.0618
     34 H           5.2654    1.9717    3.9933 H       1  UNL1        0.0618
     35 H           3.0873    0.8732    4.4740 H       1  UNL1        0.0618
     36 H           1.6868    0.0412    2.6221 H       1  UNL1        0.0625
     37 H           4.3899   -1.6985    0.2621 H       1  UNL1        0.0640
     38 H           5.0211   -2.4075   -3.8872 H       1  UNL1        0.0633
     39 H           3.0814   -1.0019   -4.4627 H       1  UNL1        0.0637
     40 H           1.1066    0.3009   -3.7812 H       1  UNL1        0.1552
     41 H          -4.4072    6.1565   -0.6366 H       1  UNL1        0.0686
     42 H          -5.7214    5.0523   -2.3761 H       1  UNL1        0.0620
     43 H          -4.8065    3.1267   -3.6613 H       1  UNL1        0.0624
@<TRIPOS>UNITY_ATOM_ATTR
23 1
charge 1
25 1
charge -1
@<TRIPOS>BOND
     1     1     2    2
     2     2     3    1
     3     3     4   ar
     4     4     5   ar
     5     5     6   ar
     6     6     7   ar
     7     7     8   ar
     8     3     8   ar
     9     2     9    1
    10     9    10   ar
    11    10    11   ar
    12    11    12    1
    13    11    13   ar
    14    13    14   ar
    15    14    15   ar
    16     9    15   ar
    17    15    16    1
    18    16    17   am
    19    17    18    2
    20    17    19    1
    21    19    20   ar
    22    20    21   ar
    23    21    22   ar
    24    22    23    1
    25    23    24    2
    26    23    25    1
    27    22    26   ar
    28    26    27   ar
    29    27    28   ar
    30    28    29   ar
    31    21    29   ar
    32    29    30   ar
    33    19    30   ar
    34    30    31    1
    35     4    32    1
    36     5    33    1
    37     6    34    1
    38     7    35    1
    39     8    36    1
    40    10    37    1
    41    13    38    1
    42    14    39    1
    43    16    40    1
    44    26    41    1
    45    27    42    1
    46    28    43    1
