@<TRIPOS>MOLECULE
*****
 58 61 0 0 0
SMALL
GASTEIGER

@<TRIPOS>ATOM
      1 C           0.8228   -0.1135    0.0580 C.3     1  UNL1       -0.0430
      2 N           2.3206   -0.1500    0.1301 N.4     1  UNL1        0.2353
      3 C           2.8247    0.2491    1.4874 C.3     1  UNL1       -0.0430
      4 C           2.9327   -1.3999   -0.4423 C.3     1  UNL1        0.0134
      5 C           4.4073   -1.4135   -0.3894 C.ar    1  UNL1        0.1234
      6 C           5.3092   -1.8985    0.5686 C.ar    1  UNL1        0.1773
      7 C           5.1664   -2.5307    1.9362 C.2     1  UNL1        0.2854
      8 O           6.1826   -2.7867    2.5919 O.2     1  UNL1       -0.2666
      9 N           3.8767   -2.7954    2.4601 N.am    1  UNL1       -0.2016
     10 N           3.7065   -3.3567    3.7367 N.2     1  UNL1       -0.1874
     11 C           2.4964   -3.6751    4.1123 C.2     1  UNL1        0.0529
     12 C           2.1490   -4.2610    5.4488 C.ar    1  UNL1       -0.0020
     13 C           1.0284   -5.0882    5.6239 C.ar    1  UNL1       -0.0529
     14 C           0.6138   -5.4584    6.9150 C.ar    1  UNL1       -0.0577
     15 C           1.3424   -5.0429    8.0298 C.ar    1  UNL1       -0.0199
     16 C           2.4716   -4.2401    7.8576 C.ar    1  UNL1        0.1216
     17 O           3.0929   -3.8432    9.0117 O.3     1  UNL1       -0.4872
     18 C           4.2068   -2.9589    8.8334 C.3     1  UNL1        0.1186
     19 C           4.6818   -2.4935   10.1749 C.ar    1  UNL1        0.0430
     20 C           5.0754   -3.4449   11.1214 C.ar    1  UNL1        0.1312
     21 F           5.1950   -4.7329   10.7663 F       1  UNL1       -0.2050
     22 C           5.3551   -3.0889   12.4357 C.ar    1  UNL1       -0.0260
     23 C           5.3433   -1.7464   12.8008 C.ar    1  UNL1       -0.0576
     24 C           5.0350   -0.7730   11.8514 C.ar    1  UNL1       -0.0428
     25 C           4.7073   -1.1425   10.5450 C.ar    1  UNL1        0.0501
     26 CL          4.3596    0.1335    9.4284 Cl      1  UNL1       -0.0831
     27 C           2.8738   -3.8618    6.5681 C.ar    1  UNL1       -0.0113
     28 N           6.5736   -1.6607    0.0611 N.ar    1  UNL1       -0.1239
     29 N           6.4898   -1.1667   -1.1664 N.ar    1  UNL1       -0.0581
     30 N           5.1950   -0.9639   -1.4771 N.ar    1  UNL1       -0.1868
     31 C           4.7843   -0.2309   -2.6374 C.ar    1  UNL1        0.2404
     32 N           5.2573   -0.5086   -3.8532 N.ar    1  UNL1       -0.0272
     33 O           4.5735    0.3843   -4.6981 O.2     1  UNL1       -0.2388
     34 N           3.7208    1.2168   -3.9661 N.ar    1  UNL1       -0.0319
     35 C           3.8964    0.8551   -2.7009 C.ar    1  UNL1        0.2064
     36 N           3.3681    1.5081   -1.6250 N.pl3   1  UNL1       -0.3375
     37 H           0.5011    0.8778    0.3918 H       1  UNL1        0.0778
     38 H           0.4281   -0.8962    0.7073 H       1  UNL1        0.0778
     39 H           0.5266   -0.2606   -0.9838 H       1  UNL1        0.0778
     40 H           2.5886    0.6006   -0.5341 H       1  UNL1        0.2032
     41 H           2.4932   -0.5064    2.1994 H       1  UNL1        0.0778
     42 H           2.4191    1.2309    1.7356 H       1  UNL1        0.0778
     43 H           3.9143    0.3191    1.4557 H       1  UNL1        0.0778
     44 H           2.5685   -1.4998   -1.4716 H       1  UNL1        0.0883
     45 H           2.5168   -2.2405    0.1137 H       1  UNL1        0.0883
     46 H           3.0369   -2.6609    1.9317 H       1  UNL1        0.1776
     47 H           1.6233   -3.4872    3.4637 H       1  UNL1        0.0851
     48 H           0.4706   -5.4733    4.7752 H       1  UNL1        0.0624
     49 H          -0.2832   -6.0598    7.0628 H       1  UNL1        0.0619
     50 H           1.0300   -5.3436    9.0308 H       1  UNL1        0.0654
     51 H           3.8697   -2.1049    8.2402 H       1  UNL1        0.0749
     52 H           5.0206   -3.4690    8.3052 H       1  UNL1        0.0749
     53 H           5.5668   -3.8631   13.1669 H       1  UNL1        0.0646
     54 H           5.5858   -1.4558   13.8192 H       1  UNL1        0.0619
     55 H           5.0324    0.2757   12.1383 H       1  UNL1        0.0632
     56 H           3.7341   -3.2231    6.4094 H       1  UNL1        0.0660
     57 H           2.9315    2.3930   -1.9171 H       1  UNL1        0.1439
     58 H           4.0911    1.7571   -0.9393 H       1  UNL1        0.1439
@<TRIPOS>UNITY_ATOM_ATTR
2 1
charge 1
@<TRIPOS>BOND
     1     1     2    1
     2     2     3    1
     3     2     4    1
     4     4     5    1
     5     5     6   ar
     6     6     7    1
     7     7     8    2
     8     7     9   am
     9     9    10    1
    10    10    11    2
    11    11    12    1
    12    12    13   ar
    13    13    14   ar
    14    14    15   ar
    15    15    16   ar
    16    16    17    1
    17    17    18    1
    18    18    19    1
    19    19    20   ar
    20    20    21    1
    21    20    22   ar
    22    22    23   ar
    23    23    24   ar
    24    24    25   ar
    25    19    25   ar
    26    25    26    1
    27    16    27   ar
    28    12    27   ar
    29     6    28   ar
    30    28    29   ar
    31    29    30   ar
    32     5    30   ar
    33    30    31    1
    34    31    32   ar
    35    32    33   ar
    36    33    34   ar
    37    34    35   ar
    38    31    35   ar
    39    35    36    1
    40     1    37    1
    41     1    38    1
    42     1    39    1
    43     2    40    1
    44     3    41    1
    45     3    42    1
    46     3    43    1
    47     4    44    1
    48     4    45    1
    49     9    46    1
    50    11    47    1
    51    13    48    1
    52    14    49    1
    53    15    50    1
    54    18    51    1
    55    18    52    1
    56    22    53    1
    57    23    54    1
    58    24    55    1
    59    27    56    1
    60    36    57    1
    61    36    58    1
