@<TRIPOS>MOLECULE
*****
 33 34 0 0 0
SMALL
GASTEIGER

@<TRIPOS>ATOM
      1 C           1.0374    0.0516    0.0927 C.3     1  UNL1        0.0789
      2 O           2.4626    0.1093    0.0094 O.3     1  UNL1       -0.4937
      3 C           3.0195   -0.8007   -0.8517 C.ar    1  UNL1        0.1384
      4 C           4.0386   -1.5900   -0.3162 C.ar    1  UNL1       -0.0178
      5 C           4.6761   -2.5458   -1.1186 C.ar    1  UNL1       -0.0461
      6 C           4.3210   -2.7348   -2.4754 C.ar    1  UNL1        0.0387
      7 C           5.0230   -3.8129   -3.2391 C.2     1  UNL1        0.2496
      8 O           5.7891   -4.4956   -2.5496 O.2     1  UNL1       -0.2698
      9 N           4.7655   -4.0699   -4.6051 N.am    1  UNL1       -0.2636
     10 C           5.5405   -4.9210   -5.4303 C.2     1  UNL1        0.1411
     11 S           7.0616   -5.5123   -4.9849 S.2     1  UNL1       -0.0182
     12 N           4.9550   -5.2111   -6.6902 N.am    1  UNL1       -0.2942
     13 C           5.4421   -6.2833   -7.5390 C.ar    1  UNL1        0.0699
     14 C           5.7829   -6.0599   -8.8829 C.ar    1  UNL1       -0.0361
     15 C           6.3021   -7.1150   -9.6580 C.ar    1  UNL1       -0.0417
     16 C           6.4519   -8.3653   -9.0789 C.ar    1  UNL1        0.0294
     17 N           6.0911   -8.6377   -7.8152 N.ar    1  UNL1       -0.2417
     18 C           5.5877   -7.6099   -7.0876 C.ar    1  UNL1        0.1502
     19 CL          4.8782   -8.1778   -5.6172 Cl      1  UNL1       -0.0601
     20 C           3.3483   -1.9039   -3.0161 C.ar    1  UNL1       -0.0277
     21 C           2.7209   -0.9288   -2.2184 C.ar    1  UNL1        0.0832
     22 CL          1.6549    0.1359   -3.0667 Cl      1  UNL1       -0.0797
     23 H           0.7160    0.7305    0.8888 H       1  UNL1        0.0660
     24 H           0.6848   -0.9565    0.3347 H       1  UNL1        0.0660
     25 H           0.5531    0.4133   -0.8131 H       1  UNL1        0.0660
     26 H           4.3430   -1.4753    0.7243 H       1  UNL1        0.0655
     27 H           5.4610   -3.1562   -0.6649 H       1  UNL1        0.0626
     28 H           4.0164   -3.5621   -5.0498 H       1  UNL1        0.1568
     29 H           4.4283   -4.4840   -7.1599 H       1  UNL1        0.1539
     30 H           5.7096   -5.0798   -9.3468 H       1  UNL1        0.0637
     31 H           6.5948   -6.9766  -10.6962 H       1  UNL1        0.0633
     32 H           6.8483   -9.2130   -9.6335 H       1  UNL1        0.0830
     33 H           3.0628   -1.9759   -4.0565 H       1  UNL1        0.0641
@<TRIPOS>BOND
     1     1     2    1
     2     2     3    1
     3     3     4   ar
     4     4     5   ar
     5     5     6   ar
     6     6     7    1
     7     7     8    2
     8     7     9   am
     9     9    10    1
    10    10    11    2
    11    10    12    1
    12    12    13    1
    13    13    14   ar
    14    14    15   ar
    15    15    16   ar
    16    16    17   ar
    17    17    18   ar
    18    13    18   ar
    19    18    19    1
    20     6    20   ar
    21    20    21   ar
    22     3    21   ar
    23    21    22    1
    24     1    23    1
    25     1    24    1
    26     1    25    1
    27     4    26    1
    28     5    27    1
    29     9    28    1
    30    12    29    1
    31    14    30    1
    32    15    31    1
    33    16    32    1
    34    20    33    1
