@<TRIPOS>MOLECULE
*****
 57 58 0 0 0
SMALL
GASTEIGER

@<TRIPOS>ATOM
      1 C           0.9546   -0.0889    0.0782 C.3     1  UNL1       -0.0652
      2 C           2.4547   -0.2051    0.2530 C.3     1  UNL1       -0.0528
      3 C           3.0294    1.1261    0.7038 C.3     1  UNL1       -0.0189
      4 C           4.5315    1.0338    0.9444 C.3     1  UNL1        0.0896
      5 O           4.9492    2.3898    1.1220 O.3     1  UNL1       -0.4912
      6 C           6.2881    2.6331    1.0447 C.ar    1  UNL1        0.1326
      7 C           6.8420    3.2915    2.1709 C.ar    1  UNL1       -0.0192
      8 C           8.1780    3.7057    2.1970 C.ar    1  UNL1       -0.0583
      9 C           8.9987    3.3949    1.1264 C.ar    1  UNL1       -0.0608
     10 C           8.4493    2.7573    0.0046 C.ar    1  UNL1       -0.0461
     11 C           7.0723    2.4081   -0.0889 C.ar    1  UNL1        0.0786
     12 C           6.6293    1.7878   -1.3996 C.2     1  UNL1        0.2531
     13 O           7.5494    1.4128   -2.1257 O.2     1  UNL1       -0.2697
     14 N           5.2584    1.6765   -1.7745 N.am    1  UNL1       -0.2626
     15 C           4.7152    0.7565   -2.7121 C.2     1  UNL1        0.1533
     16 S           5.6284   -0.1279   -3.8209 S.2     1  UNL1       -0.0170
     17 N           3.3109    0.5910   -2.6855 N.am    1  UNL1       -0.2453
     18 N           2.7091   -0.4593   -3.5022 N.am    1  UNL1       -0.2311
     19 C           1.3490   -0.7409   -3.5105 C.2     1  UNL1        0.2601
     20 O           0.5318   -0.3302   -2.6802 O.2     1  UNL1       -0.2687
     21 C           0.8374   -1.5816   -4.6276 C.ar    1  UNL1        0.0383
     22 C          -0.3935   -1.3177   -5.2601 C.ar    1  UNL1       -0.0478
     23 C          -0.8575   -2.1300   -6.3263 C.ar    1  UNL1       -0.0398
     24 C          -0.0681   -3.1870   -6.7983 C.ar    1  UNL1        0.0334
     25 N          -0.4288   -3.9226   -7.9731 N.am    1  UNL1       -0.2855
     26 C           0.3807   -4.9037   -8.5432 C.2     1  UNL1        0.2169
     27 O           1.4597   -5.2759   -8.0840 O.2     1  UNL1       -0.2755
     28 C          -0.1021   -5.5487   -9.8304 C.3     1  UNL1        0.0215
     29 C           0.9190   -6.6192  -10.2459 C.3     1  UNL1       -0.0570
     30 C           1.1078   -3.4669   -6.0897 C.ar    1  UNL1       -0.0398
     31 C           1.5629   -2.6889   -5.0274 C.ar    1  UNL1       -0.0478
     32 H           0.5566   -1.0200   -0.3340 H       1  UNL1        0.0230
     33 H           0.6823    0.7419   -0.5852 H       1  UNL1        0.0230
     34 H           0.4739    0.0929    1.0398 H       1  UNL1        0.0230
     35 H           2.9159   -0.5566   -0.6715 H       1  UNL1        0.0264
     36 H           2.6949   -0.9798    0.9817 H       1  UNL1        0.0264
     37 H           2.5456    1.4518    1.6303 H       1  UNL1        0.0298
     38 H           2.7952    1.9232   -0.0215 H       1  UNL1        0.0298
     39 H           5.0066    0.5259    0.1059 H       1  UNL1        0.0696
     40 H           4.7773    0.4233    1.8146 H       1  UNL1        0.0696
     41 H           6.2273    3.4923    3.0476 H       1  UNL1        0.0654
     42 H           8.5760    4.2672    3.0417 H       1  UNL1        0.0619
     43 H          10.0568    3.6543    1.1520 H       1  UNL1        0.0618
     44 H           9.1245    2.5466   -0.8254 H       1  UNL1        0.0626
     45 H           4.6128    2.1787   -1.1798 H       1  UNL1        0.1569
     46 H           2.6775    0.9779   -1.9897 H       1  UNL1        0.1718
     47 H           3.3103   -0.7788   -4.2631 H       1  UNL1        0.1731
     48 H          -0.9891   -0.4640   -4.9362 H       1  UNL1        0.0626
     49 H          -1.8301   -1.9097   -6.7634 H       1  UNL1        0.0636
     50 H          -1.2720   -3.6418   -8.4619 H       1  UNL1        0.1548
     51 H          -0.1790   -4.7951  -10.6200 H       1  UNL1        0.0356
     52 H          -1.0777   -6.0164   -9.6720 H       1  UNL1        0.0356
     53 H           1.9110   -6.1739  -10.4018 H       1  UNL1        0.0234
     54 H           0.6294   -7.1295  -11.1662 H       1  UNL1        0.0234
     55 H           1.0319   -7.3751   -9.4573 H       1  UNL1        0.0234
     56 H           1.7410   -4.3102   -6.3258 H       1  UNL1        0.0636
     57 H           2.4796   -2.9868   -4.5298 H       1  UNL1        0.0626
@<TRIPOS>BOND
     1     1     2    1
     2     2     3    1
     3     3     4    1
     4     4     5    1
     5     5     6    1
     6     6     7   ar
     7     7     8   ar
     8     8     9   ar
     9     9    10   ar
    10    10    11   ar
    11     6    11   ar
    12    11    12    1
    13    12    13    2
    14    12    14   am
    15    14    15    1
    16    15    16    2
    17    15    17    1
    18    17    18    1
    19    18    19   am
    20    19    20    2
    21    19    21    1
    22    21    22   ar
    23    22    23   ar
    24    23    24   ar
    25    24    25    1
    26    25    26   am
    27    26    27    2
    28    26    28    1
    29    28    29    1
    30    24    30   ar
    31    30    31   ar
    32    21    31   ar
    33     1    32    1
    34     1    33    1
    35     1    34    1
    36     2    35    1
    37     2    36    1
    38     3    37    1
    39     3    38    1
    40     4    39    1
    41     4    40    1
    42     7    41    1
    43     8    42    1
    44     9    43    1
    45    10    44    1
    46    14    45    1
    47    17    46    1
    48    18    47    1
    49    22    48    1
    50    23    49    1
    51    25    50    1
    52    28    51    1
    53    28    52    1
    54    29    53    1
    55    29    54    1
    56    29    55    1
    57    30    56    1
    58    31    57    1
