REMARK  17 active torsions:
REMARK  status: ('A' for Active; 'I' for Inactive)
REMARK    1  A    between atoms: C_2  and  C_3 
REMARK    2  A    between atoms: C_3  and  C_4 
REMARK    3  A    between atoms: C_4  and  C_5 
REMARK    4  A    between atoms: C_5  and  C_6 
REMARK    5  A    between atoms: C_6  and  C_7 
REMARK    6  A    between atoms: C_7  and  C_8 
REMARK    7  A    between atoms: C_8  and  O_9 
REMARK    8  A    between atoms: O_9  and  C_10 
REMARK    9  A    between atoms: C_10  and  C_12 
REMARK   10  A    between atoms: C_15  and  N_16 
REMARK       I    between atoms: N_16  and  C_17 
REMARK   11  A    between atoms: C_17  and  C_19 
REMARK   12  A    between atoms: C_19  and  C_20 
REMARK   13  A    between atoms: C_20  and  C_21 
REMARK   14  A    between atoms: C_21  and  O_23 
REMARK   15  A    between atoms: O_23  and  C_24 
REMARK   16  A    between atoms: C_24  and  C_25 
REMARK   17  A    between atoms: C_25  and  C_27 
ROOT
ATOM      1  N   UNL d   1      11.821   8.927  -7.194  0.00  0.00    -0.327 N 
ATOM      2  C   UNL d   1      11.109  10.131  -7.165  0.00  0.00     0.222 C 
ATOM      3  O   UNL d   1      10.199  10.391  -6.379  0.00  0.00    -0.273 OA
ATOM      4  H   UNL d   1      12.518   8.790  -7.918  0.00  0.00     0.169 HD
ENDROOT
BRANCH   1   5
ATOM      5  C   UNL d   1      11.543   7.810  -6.333  0.00  0.00     0.034 A 
ATOM      6  C   UNL d   1      12.213   6.583  -6.473  0.00  0.00     0.030 A 
ATOM      7  C   UNL d   1      11.822   5.453  -5.702  0.00  0.00     0.020 A 
ATOM      8  C   UNL d   1      10.793   5.555  -4.750  0.00  0.00     0.039 A 
ATOM      9  C   UNL d   1      10.185   6.785  -4.563  0.00  0.00     0.020 A 
ATOM     10  C   UNL d   1      10.565   7.882  -5.336  0.00  0.00     0.030 A 
BRANCH   8  11
ATOM     11  C   UNL d   1      10.407   4.439  -3.848  0.00  0.00     0.293 C 
ATOM     12  O   UNL d   1      11.225   3.706  -3.301  0.00  0.00    -0.259 OA
BRANCH  11  13
ATOM     13  O   UNL d   1       9.054   4.378  -3.708  0.00  0.00    -0.318 OA
BRANCH  13  14
ATOM     14  C   UNL d   1       8.580   3.352  -2.815  0.00  0.00     0.179 C 
BRANCH  14  15
ATOM     15  C   UNL d   1       7.050   3.340  -2.798  0.00  0.00     0.027 C 
BRANCH  15  16
ATOM     16  C   UNL d   1       6.512   2.252  -1.867  0.00  0.00     0.002 C 
BRANCH  16  17
ATOM     17  C   UNL d   1       4.986   2.237  -1.854  0.00  0.00     0.000 C 
BRANCH  17  18
ATOM     18  C   UNL d   1       4.464   1.146  -0.924  0.00  0.00     0.000 C 
BRANCH  18  19
ATOM     19  C   UNL d   1       2.941   1.134  -0.913  0.00  0.00    -0.000 C 
BRANCH  19  20
ATOM     20  C   UNL d   1       2.415   0.046   0.015  0.00  0.00    -0.005 C 
ATOM     21  C   UNL d   1       0.898   0.039   0.021  0.00  0.00     0.005 C 
ENDBRANCH  19  20
ENDBRANCH  18  19
ENDBRANCH  17  18
ENDBRANCH  16  17
ENDBRANCH  15  16
ENDBRANCH  14  15
ENDBRANCH  13  14
ENDBRANCH  11  13
ENDBRANCH   8  11
ENDBRANCH   1   5
BRANCH   2  22
ATOM     22  C   UNL d   1      11.476  11.193  -8.191  0.00  0.00     0.113 C 
BRANCH  22  23
ATOM     23  C   UNL d   1      10.602  12.457  -7.967  0.00  0.00     0.120 C 
BRANCH  23  24
ATOM     24  C   UNL d   1      10.924  13.560  -8.948  0.00  0.00     0.259 C 
ATOM     25  O   UNL d   1      11.765  13.466  -9.833  0.00  0.00    -0.265 OA
BRANCH  24  26
ATOM     26  O   UNL d   1      10.162  14.672  -8.732  0.00  0.00    -0.314 OA
BRANCH  26  27
ATOM     27  C   UNL d   1      10.413  15.763  -9.640  0.00  0.00     0.262 C 
BRANCH  27  28
ATOM     28  C   UNL d   1       9.544  16.992  -9.334  0.00  0.00     0.183 C 
ATOM     29  O   UNL d   1       8.751  17.043  -8.396  0.00  0.00    -0.290 OA
BRANCH  28  30
ATOM     30  C   UNL d   1       9.660  18.192 -10.220  0.00  0.00     0.012 A 
ATOM     31  C   UNL d   1       9.608  19.482  -9.665  0.00  0.00     0.016 A 
ATOM     32  C   UNL d   1       9.569  20.610 -10.498  0.00  0.00     0.020 A 
ATOM     33  C   UNL d   1       9.648  20.452 -11.880  0.00  0.00     0.011 A 
ATOM     34 BR   UNL d   1       9.734  21.970 -13.004  0.00  0.00    -0.051 Br
ATOM     35  C   UNL d   1       9.702  19.176 -12.438  0.00  0.00     0.020 A 
ATOM     36  C   UNL d   1       9.703  18.047 -11.610  0.00  0.00     0.016 A 
ENDBRANCH  28  30
ENDBRANCH  27  28
ENDBRANCH  26  27
ENDBRANCH  24  26
ENDBRANCH  23  24
ENDBRANCH  22  23
ENDBRANCH   2  22
TORSDOF 17
