@<TRIPOS>MOLECULE
*****
 48 50 0 0 0
SMALL
GASTEIGER

@<TRIPOS>ATOM
      1 C           2.4896   -0.0002   -0.0140 C.3     1  UNL1       -0.0397
      2 C           0.9904   -0.0106   -0.0052 C.ar    1  UNL1       -0.0499
      3 C           0.2776   -1.2131    0.0019 C.ar    1  UNL1       -0.0588
      4 C          -1.1160   -1.2059   -0.0006 C.ar    1  UNL1       -0.0609
      5 C          -1.8078    0.0049   -0.0105 C.ar    1  UNL1       -0.0539
      6 C          -1.1165    1.2263   -0.0173 C.ar    1  UNL1       -0.0147
      7 C          -1.8377    2.4937    0.0013 C.ar    1  UNL1        0.0185
      8 C          -1.7121    3.4718   -0.9678 C.ar    1  UNL1        0.0403
      9 N          -2.3632    4.6616   -0.9517 N.ar    1  UNL1       -0.2221
     10 C          -3.1745    4.8867    0.0937 C.ar    1  UNL1        0.2195
     11 N          -3.8783    6.0877    0.1423 N.pl3   1  UNL1       -0.2836
     12 C          -4.7146    6.5151    1.1806 C.ar    1  UNL1        0.0343
     13 C          -4.2392    6.5415    2.4976 C.ar    1  UNL1       -0.0404
     14 C          -5.0705    6.8936    3.5559 C.ar    1  UNL1       -0.0593
     15 C          -6.4076    7.2039    3.3183 C.ar    1  UNL1       -0.0495
     16 C          -6.9209    7.1746    2.0159 C.ar    1  UNL1        0.0385
     17 C          -8.3576    7.4760    1.7135 C.2     1  UNL1        0.2443
     18 O          -8.7425    7.4356    0.5446 O.2     1  UNL1       -0.2702
     19 N          -9.2064    7.7857    2.7669 N.am    1  UNL1       -0.3090
     20 C         -10.6273    8.0687    2.5710 C.3     1  UNL1        0.0178
     21 C         -11.3578    6.8555    1.9977 C.3     1  UNL1       -0.0469
     22 C         -11.2980    8.4717    3.8883 C.3     1  UNL1       -0.0469
     23 C          -6.0598    6.8337    0.9496 C.ar    1  UNL1       -0.0284
     24 N          -3.3652    3.9955    1.0810 N.ar    1  UNL1       -0.2221
     25 C          -2.7052    2.8290    1.0143 C.ar    1  UNL1        0.0403
     26 C           0.2869    1.2013   -0.0118 C.ar    1  UNL1       -0.0510
     27 H           2.8966   -1.0162    0.0003 H       1  UNL1        0.0278
     28 H           2.8705    0.5287    0.8655 H       1  UNL1        0.0278
     29 H           2.8533    0.4961   -0.9194 H       1  UNL1        0.0278
     30 H           0.8029   -2.1653    0.0066 H       1  UNL1        0.0620
     31 H          -1.6646   -2.1443    0.0010 H       1  UNL1        0.0618
     32 H          -2.8966   -0.0122   -0.0220 H       1  UNL1        0.0624
     33 H          -1.0636    3.3181   -1.8277 H       1  UNL1        0.0837
     34 H          -3.7904    6.6462   -0.6905 H       1  UNL1        0.1550
     35 H          -3.2035    6.2769    2.7022 H       1  UNL1        0.0636
     36 H          -4.6755    6.9124    4.5675 H       1  UNL1        0.0618
     37 H          -7.0178    7.4536    4.1758 H       1  UNL1        0.0625
     38 H          -8.8546    7.8539    3.7083 H       1  UNL1        0.1493
     39 H         -10.6979    8.9057    1.8660 H       1  UNL1        0.0493
     40 H         -11.2816    6.0005    2.6782 H       1  UNL1        0.0247
     41 H         -10.9401    6.5455    1.0365 H       1  UNL1        0.0247
     42 H         -12.4167    7.0786    1.8357 H       1  UNL1        0.0247
     43 H         -11.2383    7.6635    4.6270 H       1  UNL1        0.0247
     44 H         -12.3586    8.7003    3.7305 H       1  UNL1        0.0247
     45 H         -10.8252    9.3562    4.3274 H       1  UNL1        0.0247
     46 H          -6.4567    6.7635   -0.0623 H       1  UNL1        0.0644
     47 H          -2.9013    2.1574    1.8452 H       1  UNL1        0.0837
     48 H           0.8439    2.1377    0.0029 H       1  UNL1        0.0626
@<TRIPOS>BOND
     1     1     2    1
     2     2     3   ar
     3     3     4   ar
     4     4     5   ar
     5     5     6   ar
     6     6     7    1
     7     7     8   ar
     8     8     9   ar
     9     9    10   ar
    10    10    11    1
    11    11    12    1
    12    12    13   ar
    13    13    14   ar
    14    14    15   ar
    15    15    16   ar
    16    16    17    1
    17    17    18    2
    18    17    19   am
    19    19    20    1
    20    20    21    1
    21    20    22    1
    22    16    23   ar
    23    12    23   ar
    24    10    24   ar
    25    24    25   ar
    26     7    25   ar
    27     6    26   ar
    28     2    26   ar
    29     1    27    1
    30     1    28    1
    31     1    29    1
    32     3    30    1
    33     4    31    1
    34     5    32    1
    35     8    33    1
    36    11    34    1
    37    13    35    1
    38    14    36    1
    39    15    37    1
    40    19    38    1
    41    20    39    1
    42    21    40    1
    43    21    41    1
    44    21    42    1
    45    22    43    1
    46    22    44    1
    47    22    45    1
    48    23    46    1
    49    25    47    1
    50    26    48    1
