REMARK  8 active torsions:
REMARK  status: ('A' for Active; 'I' for Inactive)
REMARK    1  A    between atoms: C_2  and  C_4 
REMARK    2  A    between atoms: C_4  and  C_5 
REMARK    3  A    between atoms: C_5  and  C_6 
REMARK       I    between atoms: C_6  and  N_8 
REMARK    4  A    between atoms: N_8  and  N_9 
REMARK       I    between atoms: N_9  and  C_10 
REMARK    5  A    between atoms: C_10  and  C_12 
REMARK    6  A    between atoms: C_12  and  C_13 
REMARK    7  A    between atoms: C_13  and  C_14 
REMARK    8  A    between atoms: C_19  and  O_20 
ROOT
ATOM      1  N   UNL d   1       6.994   4.254  -0.728  0.00  0.00    -0.268 N 
ATOM      2  C   UNL d   1       8.374   4.381  -0.758  0.00  0.00     0.236 C 
ATOM      3  O   UNL d   1       9.135   3.425  -0.605  0.00  0.00    -0.272 OA
ATOM      4  H   UNL d   1       6.344   5.038  -0.806  0.00  0.00     0.190 HD
ENDROOT
BRANCH   2   5
ATOM      5  C   UNL d   1       8.837   5.802  -0.944  0.00  0.00     0.109 C 
BRANCH   5   6
ATOM      6  C   UNL d   1      10.360   5.994  -0.958  0.00  0.00     0.051 C 
BRANCH   6   7
ATOM      7  C   UNL d   1      10.838   7.426  -1.172  0.00  0.00    -0.025 A 
ATOM      8  C   UNL d   1      12.149   7.648  -1.639  0.00  0.00     0.010 A 
ATOM      9  C   UNL d   1      12.634   8.948  -1.833  0.00  0.00     0.001 A 
ATOM     10  C   UNL d   1      11.824  10.045  -1.550  0.00  0.00     0.003 A 
ATOM     11  C   UNL d   1      10.534   9.848  -1.071  0.00  0.00     0.037 A 
ATOM     12  C   UNL d   1      10.054   8.555  -0.883  0.00  0.00     0.071 A 
BRANCH  12  13
ATOM     13  O   UNL d   1       8.785   8.404  -0.403  0.00  0.00    -0.360 OA
ATOM     14  H   UNL d   1       8.346   9.262  -0.313  0.00  0.00     0.217 HD
ENDBRANCH  12  13
ENDBRANCH   6   7
ENDBRANCH   5   6
ENDBRANCH   2   5
BRANCH   1  15
ATOM     15  N   UNL d   1       6.437   2.991  -0.475  0.00  0.00    -0.268 N 
ATOM     16  C   UNL d   1       5.062   2.855  -0.444  0.00  0.00     0.236 C 
ATOM     17  O   UNL d   1       4.303   3.811  -0.598  0.00  0.00    -0.272 OA
ATOM     18  H   UNL d   1       7.098   2.224  -0.362  0.00  0.00     0.190 HD
BRANCH  16  19
ATOM     19  C   UNL d   1       4.581   1.427  -0.223  0.00  0.00     0.105 C 
BRANCH  19  20
ATOM     20  C   UNL d   1       3.048   1.330  -0.221  0.00  0.00     0.013 C 
BRANCH  20  21
ATOM     21  C   UNL d   1       2.511  -0.099  -0.016  0.00  0.00    -0.022 C 
ATOM     22  C   UNL d   1       0.978  -0.092   0.009  0.00  0.00     0.009 C 
ATOM     23  C   UNL d   1       2.989  -1.043  -1.119  0.00  0.00     0.009 C 
ENDBRANCH  20  21
ENDBRANCH  19  20
ENDBRANCH  16  19
ENDBRANCH   1  15
TORSDOF 8
