@<TRIPOS>MOLECULE
*****
 52 56 0 0 0
SMALL
GASTEIGER

@<TRIPOS>ATOM
      1 C           1.1039   -0.2403   -0.0266 C.3     1  UNL1        0.0172
      2 N           2.5196   -0.0026   -0.0266 N.ar    1  UNL1       -0.2892
      3 C           3.2047    1.2220   -0.0224 C.ar    1  UNL1        0.1724
      4 S           2.3707    2.8067   -0.0402 S.3     1  UNL1       -0.0783
      5 C           0.5582    2.6757   -0.0344 C.3     1  UNL1        0.0779
      6 C          -0.1950    3.9872    0.0296 C.2     1  UNL1        0.2275
      7 O           0.3880    5.0370    0.0029 O.2     1  UNL1       -0.2746
      8 N          -1.6296    3.8296    0.1397 N.am    1  UNL1       -0.2847
      9 C          -2.4414    4.9695   -0.1065 C.ar    1  UNL1        0.0371
     10 C          -3.5783    5.4581    0.5577 C.ar    1  UNL1       -0.0368
     11 C          -4.0949    6.8384    0.2414 C.ar    1  UNL1       -0.0145
     12 C          -3.4453    7.6522   -0.7559 C.ar    1  UNL1        0.1622
     13 C          -2.3628    7.0162   -1.2400 C.ar    1  UNL1        0.1638
     14 C          -1.9606    5.7323   -1.1047 C.ar    1  UNL1        0.0049
     15 O          -1.2387    7.7728   -1.3375 O.3     1  UNL1       -0.4849
     16 C          -1.2407    8.2104   -2.6471 C.3     1  UNL1        0.1237
     17 C          -2.3142    9.2870   -2.5080 C.3     1  UNL1        0.1237
     18 O          -3.4820    8.9477   -1.3469 O.3     1  UNL1       -0.4849
     19 N           4.5152    1.3308   -0.0074 N.ar    1  UNL1       -0.2209
     20 C           5.2423    0.1279   -0.0006 C.ar    1  UNL1        0.1043
     21 C           6.6458   -0.1209   -0.0091 C.ar    1  UNL1        0.0257
     22 C           7.7993    0.7603   -0.0043 C.ar    1  UNL1       -0.0144
     23 C           8.7508    0.6977   -1.0344 C.ar    1  UNL1       -0.0539
     24 C           9.8428    1.5700   -1.0440 C.ar    1  UNL1       -0.0612
     25 C          10.0020    2.4955   -0.0146 C.ar    1  UNL1       -0.0617
     26 C           9.0823    2.5354    1.0334 C.ar    1  UNL1       -0.0612
     27 C           7.9862    1.6680    1.0412 C.ar    1  UNL1       -0.0539
     28 C           6.7968   -1.5038   -0.0061 C.ar    1  UNL1        0.0121
     29 N           5.5490   -2.0725   -0.0088 N.ar    1  UNL1       -0.3546
     30 C           4.6129   -1.0783   -0.0113 C.ar    1  UNL1        0.1310
     31 C           3.2093   -1.2218   -0.0248 C.ar    1  UNL1        0.2785
     32 O           2.6582   -2.3207   -0.0345 O.2     1  UNL1       -0.2653
     33 H           0.5118    0.6270   -0.0213 H       1  UNL1        0.0457
     34 H           0.8133   -0.7769    0.8792 H       1  UNL1        0.0457
     35 H           0.8101   -0.7692   -0.9355 H       1  UNL1        0.0457
     36 H           0.2379    2.1779    0.8837 H       1  UNL1        0.0475
     37 H           0.2295    2.2044   -0.9696 H       1  UNL1        0.0475
     38 H          -2.0846    2.9313    0.2009 H       1  UNL1        0.1548
     39 H          -4.0162    4.8413    1.3507 H       1  UNL1        0.0637
     40 H          -4.9276    7.1421    0.8963 H       1  UNL1        0.0656
     41 H          -1.0411    5.5324   -1.6355 H       1  UNL1        0.0674
     42 H          -1.4166    7.4603   -3.4498 H       1  UNL1        0.0731
     43 H          -0.1698    8.4300   -2.6876 H       1  UNL1        0.0731
     44 H          -2.7845    9.4944   -3.4837 H       1  UNL1        0.0731
     45 H          -1.7688   10.2066   -2.2215 H       1  UNL1        0.0731
     46 H           8.6393   -0.0167   -1.8465 H       1  UNL1        0.0624
     47 H          10.5599    1.5368   -1.8601 H       1  UNL1        0.0618
     48 H          10.8393    3.1883   -0.0310 H       1  UNL1        0.0618
     49 H           9.2097    3.2517    1.8404 H       1  UNL1        0.0618
     50 H           7.2792    1.7032    1.8660 H       1  UNL1        0.0624
     51 H           7.6819   -2.1288    0.0052 H       1  UNL1        0.0814
     52 H           5.3419   -3.0649   -0.0093 H       1  UNL1        0.1656
@<TRIPOS>BOND
     1     1     2    1
     2     2     3   ar
     3     3     4    1
     4     4     5    1
     5     5     6    1
     6     6     7    2
     7     6     8   am
     8     8     9    1
     9     9    10   ar
    10    10    11   ar
    11    11    12   ar
    12    12    13   ar
    13    13    14   ar
    14     9    14   ar
    15    13    15    1
    16    15    16    1
    17    16    17    1
    18    17    18    1
    19    12    18    1
    20     3    19   ar
    21    19    20   ar
    22    20    21   ar
    23    21    22    1
    24    22    23   ar
    25    23    24   ar
    26    24    25   ar
    27    25    26   ar
    28    26    27   ar
    29    22    27   ar
    30    21    28   ar
    31    28    29   ar
    32    29    30   ar
    33    20    30   ar
    34    30    31   ar
    35     2    31   ar
    36    31    32    2
    37     1    33    1
    38     1    34    1
    39     1    35    1
    40     5    36    1
    41     5    37    1
    42     8    38    1
    43    10    39    1
    44    11    40    1
    45    14    41    1
    46    16    42    1
    47    16    43    1
    48    17    44    1
    49    17    45    1
    50    23    46    1
    51    24    47    1
    52    25    48    1
    53    26    49    1
    54    27    50    1
    55    28    51    1
    56    29    52    1
