REMARK  6 active torsions:
REMARK  status: ('A' for Active; 'I' for Inactive)
REMARK    1  A    between atoms: C_12  and  N_13 
REMARK       I    between atoms: N_13  and  C_14 
REMARK    2  A    between atoms: C_14  and  C_16 
REMARK    3  A    between atoms: C_16  and  O_17 
REMARK    4  A    between atoms: O_17  and  C_18 
REMARK    5  A    between atoms: C_18  and  C_20 
REMARK    6  A    between atoms: C_25  and  C_26 
ROOT
ATOM      1  C   UNL d   1       3.734  -4.013  -5.630  0.00  0.00     0.281 C 
ENDROOT
BRANCH   1   2
ATOM      2  C   UNL d   1       4.230  -3.771  -4.201  0.00  0.00     0.244 C 
ATOM      3  N   UNL d   1       3.510  -2.872  -3.440  0.00  0.00    -0.329 N 
ATOM      4  H   UNL d   1       2.677  -2.418  -3.784  0.00  0.00     0.165 HD
ATOM      5  O   UNL d   1       5.232  -4.332  -3.759  0.00  0.00    -0.271 OA
BRANCH   3   6
ATOM      6  C   UNL d   1       3.965  -2.572  -2.112  0.00  0.00     0.264 A 
ATOM      7  O   UNL d   1       3.234  -3.425  -1.203  0.00  0.00    -0.353 OA
ATOM      8  C   UNL d   1       2.582  -2.608  -0.205  0.00  0.00     0.152 A 
ATOM      9  C   UNL d   1       2.866  -1.211  -0.606  0.00  0.00    -0.017 A 
ATOM     10  C   UNL d   1       1.095  -2.909  -0.224  0.00  0.00     0.044 C 
ATOM     11  C   UNL d   1       3.616  -1.209  -1.702  0.00  0.00     0.066 A 
ATOM     12  C   UNL d   1       2.447   0.001   0.133  0.00  0.00     0.105 C 
ATOM     13  C   UNL d   1       4.094   0.033  -2.280  0.00  0.00     0.266 C 
ATOM     14  N   UNL d   1       3.677   1.185  -1.656  0.00  0.00    -0.287 N 
ATOM     15  O   UNL d   1       4.821   0.053  -3.272  0.00  0.00    -0.266 OA
ATOM     16  N   UNL d   1       2.822   1.268  -0.528  0.00  0.00    -0.229 NA
ATOM     17  H   UNL d   1       3.968   2.050  -2.107  0.00  0.00     0.184 HD
ATOM     18  H   UNL d   1       3.300   1.858   0.159  0.00  0.00     0.147 HD
ATOM     19  C   UNL d   1       3.095  -0.022   1.516  0.00  0.00     0.033 C 
ENDBRANCH   3   6
ENDBRANCH   1   2
BRANCH   1  20
ATOM     20  O   UNL d   1       4.590  -4.987  -6.274  0.00  0.00    -0.307 OA
BRANCH  20  21
ATOM     21  C   UNL d   1       4.211  -5.321  -7.530  0.00  0.00     0.315 C 
ATOM     22  O   UNL d   1       3.223  -4.865  -8.089  0.00  0.00    -0.257 OA
BRANCH  21  23
ATOM     23  C   UNL d   1       5.184  -6.229  -8.217  0.00  0.00     0.163 A 
ATOM     24  N   UNL d   1       5.600  -7.362  -7.571  0.00  0.00    -0.251 NA
ATOM     25  C   UNL d   1       6.325  -8.231  -8.328  0.00  0.00     0.137 A 
ATOM     26  C   UNL d   1       6.640  -7.995  -9.658  0.00  0.00     0.136 A 
ATOM     27  N   UNL d   1       6.262  -6.865 -10.290  0.00  0.00    -0.254 NA
ATOM     28  C   UNL d   1       5.522  -5.982  -9.549  0.00  0.00     0.127 A 
BRANCH  28  29
ATOM     29  C   UNL d   1       5.074  -4.797 -10.274  0.00  0.00     0.130 A 
ATOM     30  N   UNL d   1       4.272  -4.824 -11.316  0.00  0.00    -0.238 NA
ATOM     31  C   UNL d   1       3.929  -3.537 -11.673  0.00  0.00     0.075 A 
ATOM     32  C   UNL d   1       3.056  -3.190 -12.720  0.00  0.00     0.033 A 
ATOM     33  C   UNL d   1       4.513  -2.522 -10.914  0.00  0.00     0.035 A 
ATOM     34  C   UNL d   1       2.793  -1.844 -12.983  0.00  0.00     0.002 A 
ATOM     35  C   UNL d   1       3.374  -0.847 -12.205  0.00  0.00     0.002 A 
ATOM     36  C   UNL d   1       4.238  -1.167 -11.153  0.00  0.00     0.021 A 
ATOM     37  S   UNL d   1       5.563  -3.230  -9.750  0.00  0.00    -0.066 SA
ENDBRANCH  28  29
ENDBRANCH  21  23
ENDBRANCH  20  21
ENDBRANCH   1  20
TORSDOF 6
