REMARK  4 active torsions:
REMARK  status: ('A' for Active; 'I' for Inactive)
REMARK    1  A    between atoms: C_2  and  C_11 
REMARK    2  A    between atoms: C_2  and  N_3 
REMARK    3  A    between atoms: N_3  and  C_4 
REMARK       I    between atoms: C_11  and  N_13 
REMARK    4  A    between atoms: N_13  and  C_14 
ROOT
ATOM      1  C   UNL d   1       3.409   0.899  -0.950  0.00  0.00     0.042 C 
ATOM      2  C   UNL d   1       2.642   0.070   0.065  0.00  0.00     0.170 C 
ENDROOT
BRANCH   2   3
ATOM      3  C   UNL d   1       3.032   0.617   1.463  0.00  0.00     0.244 C 
ATOM      4  O   UNL d   1       2.187   1.039   2.242  0.00  0.00    -0.271 OA
ATOM      5  N   UNL d   1       4.415   0.636   1.726  0.00  0.00    -0.323 N 
ATOM      6  H   UNL d   1       5.066   0.598   0.954  0.00  0.00     0.169 HD
BRANCH   5   7
ATOM      7  C   UNL d   1       4.903   1.181   2.937  0.00  0.00     0.075 A 
ATOM      8  C   UNL d   1       5.915   2.149   2.902  0.00  0.00     0.034 A 
ATOM      9  C   UNL d   1       6.329   2.742   4.098  0.00  0.00     0.022 A 
ATOM     10  C   UNL d   1       5.760   2.308   5.286  0.00  0.00     0.118 A 
ATOM     11  N   UNL d   1       4.838   1.331   5.363  0.00  0.00    -0.246 NA
ATOM     12  C   UNL d   1       4.421   0.798   4.194  0.00  0.00     0.152 A 
ATOM     13 CL   UNL d   1       3.412  -0.584   4.431  0.00  0.00    -0.060 Cl
ENDBRANCH   5   7
ENDBRANCH   2   3
BRANCH   2  14
ATOM     14  N   UNL d   1       1.158   0.072  -0.120  0.00  0.00    -0.377 N 
ATOM     15  H   UNL d   1       0.652  -0.045   0.762  0.00  0.00     0.160 HD
BRANCH  14  16
ATOM     16  C   UNL d   1       0.396   0.423  -1.223  0.00  0.00     0.028 A 
ATOM     17  C   UNL d   1       0.934   0.799  -2.458  0.00  0.00     0.032 A 
ATOM     18  C   UNL d   1       0.195   1.182  -3.568  0.00  0.00     0.044 A 
ATOM     19  C   UNL d   1      -1.169   1.155  -3.487  0.00  0.00     0.116 A 
ATOM     20  F   UNL d   1      -1.886   1.521  -4.554  0.00  0.00    -0.206 F 
ATOM     21  C   UNL d   1      -1.782   0.751  -2.308  0.00  0.00     0.044 A 
ATOM     22  C   UNL d   1      -1.007   0.386  -1.183  0.00  0.00     0.032 A 
ENDBRANCH  14  16
ENDBRANCH   2  14
TORSDOF 4
