@<TRIPOS>MOLECULE
*****
 49 52 0 0 0
SMALL
GASTEIGER

@<TRIPOS>ATOM
      1 C           2.5142   -0.0420   -0.0132 C.3     1  UNL1       -0.0397
      2 C           1.0205   -0.0671    0.0028 C.ar    1  UNL1       -0.0503
      3 C           0.2644   -1.2485    0.0039 C.ar    1  UNL1       -0.0571
      4 C          -1.1479   -1.2250   -0.0038 C.ar    1  UNL1       -0.0402
      5 C          -1.8281   -0.0112   -0.0141 C.ar    1  UNL1        0.0335
      6 N          -3.2751    0.0097   -0.0483 N.am    1  UNL1       -0.2837
      7 C          -3.9665    1.2045   -0.0549 C.2     1  UNL1        0.2420
      8 O          -3.3060    2.2358   -0.0169 O.2     1  UNL1       -0.2731
      9 C          -5.5368    1.3128   -0.0927 C.3     1  UNL1        0.1233
     10 N          -6.0445    0.6868   -1.3610 N.pl3   1  UNL1       -0.3294
     11 C          -7.3724    0.4815   -1.7049 C.ar    1  UNL1        0.0286
     12 C          -8.2976    1.5430   -1.7585 C.ar    1  UNL1       -0.0405
     13 C          -9.6864    1.4026   -1.8334 C.ar    1  UNL1       -0.0546
     14 C         -10.1477    0.1552   -2.1318 C.ar    1  UNL1       -0.0181
     15 C          -9.2333   -0.8897   -2.2665 C.ar    1  UNL1        0.0431
     16 C          -7.8671   -0.7742   -2.0305 C.ar    1  UNL1       -0.0284
     17 C          -9.9783   -2.0542   -2.7167 C.2     1  UNL1        0.2447
     18 O          -9.4899   -3.1492   -2.9537 O.2     1  UNL1       -0.2702
     19 N         -11.2957   -1.6758   -2.8328 N.am    1  UNL1       -0.3072
     20 C         -11.5273   -0.2997   -2.4465 C.3     1  UNL1        0.0379
     21 C          -6.0021    2.8054    0.0900 C.ar    1  UNL1       -0.0185
     22 C          -7.3390    3.1060    0.3709 C.ar    1  UNL1       -0.0563
     23 C          -7.8472    4.4006    0.1568 C.ar    1  UNL1       -0.0614
     24 C          -6.9937    5.4763   -0.0471 C.ar    1  UNL1       -0.0617
     25 C          -5.6401    5.2493   -0.0676 C.ar    1  UNL1       -0.0614
     26 C          -5.1754    3.9410   -0.0595 C.ar    1  UNL1       -0.0563
     27 C          -1.0278    1.1547    0.0028 C.ar    1  UNL1       -0.0402
     28 C           0.3578    1.1414    0.0073 C.ar    1  UNL1       -0.0571
     29 H           2.9278   -1.0512   -0.0002 H       1  UNL1        0.0278
     30 H           2.8878    0.5008    0.8626 H       1  UNL1        0.0278
     31 H           2.8653    0.4688   -0.9172 H       1  UNL1        0.0278
     32 H           0.7777   -2.2061    0.0057 H       1  UNL1        0.0621
     33 H          -1.6846   -2.1681   -0.0049 H       1  UNL1        0.0636
     34 H          -3.7754   -0.8700   -0.0584 H       1  UNL1        0.1549
     35 H          -5.8981    0.7389    0.7729 H       1  UNL1        0.0645
     36 H          -5.3545    0.2276   -1.9450 H       1  UNL1        0.1471
     37 H          -7.9170    2.5561   -1.7732 H       1  UNL1        0.0636
     38 H         -10.3363    2.2625   -1.7122 H       1  UNL1        0.0622
     39 H          -7.2325   -1.6467   -2.1275 H       1  UNL1        0.0644
     40 H         -11.9892   -2.3398   -3.1496 H       1  UNL1        0.1493
     41 H         -12.1827   -0.2569   -1.5714 H       1  UNL1        0.0512
     42 H         -11.9609    0.2653   -3.2783 H       1  UNL1        0.0512
     43 H          -8.0447    2.3037    0.5758 H       1  UNL1        0.0621
     44 H          -8.9204    4.5548    0.0973 H       1  UNL1        0.0618
     45 H          -7.3673    6.4839   -0.1777 H       1  UNL1        0.0618
     46 H          -4.9145    6.0535   -0.1436 H       1  UNL1        0.0618
     47 H          -4.1039    3.9261   -0.1838 H       1  UNL1        0.0621
     48 H          -1.4009    2.1691    0.0096 H       1  UNL1        0.0636
     49 H           0.8867    2.0928    0.0084 H       1  UNL1        0.0621
@<TRIPOS>BOND
     1     1     2    1
     2     2     3   ar
     3     3     4   ar
     4     4     5   ar
     5     5     6    1
     6     6     7   am
     7     7     8    2
     8     7     9    1
     9     9    10    1
    10    10    11    1
    11    11    12   ar
    12    12    13   ar
    13    13    14   ar
    14    14    15   ar
    15    15    16   ar
    16    11    16   ar
    17    15    17    1
    18    17    18    2
    19    17    19   am
    20    19    20    1
    21    14    20    1
    22     9    21    1
    23    21    22   ar
    24    22    23   ar
    25    23    24   ar
    26    24    25   ar
    27    25    26   ar
    28    21    26   ar
    29     5    27   ar
    30    27    28   ar
    31     2    28   ar
    32     1    29    1
    33     1    30    1
    34     1    31    1
    35     3    32    1
    36     4    33    1
    37     6    34    1
    38     9    35    1
    39    10    36    1
    40    12    37    1
    41    13    38    1
    42    16    39    1
    43    19    40    1
    44    20    41    1
    45    20    42    1
    46    22    43    1
    47    23    44    1
    48    24    45    1
    49    25    46    1
    50    26    47    1
    51    27    48    1
    52    28    49    1
