REMARK  7 active torsions:
REMARK  status: ('A' for Active; 'I' for Inactive)
REMARK    1  A    between atoms: C_4  and  S_5 
REMARK    2  A    between atoms: S_5  and  N_6 
REMARK    3  A    between atoms: C_10  and  N_11 
REMARK       I    between atoms: N_11  and  C_12 
REMARK    4  A    between atoms: C_12  and  C_14 
REMARK    5  A    between atoms: C_14  and  O_15 
REMARK    6  A    between atoms: O_15  and  C_16 
REMARK    7  A    between atoms: C_19  and  N_20 
ROOT
ATOM      1  N   UNL d   1      -0.783  -2.865  -0.029  0.00  0.00    -0.325 N 
ATOM      2  C   UNL d   1      -1.974  -3.598  -0.051  0.00  0.00     0.246 C 
ATOM      3  O   UNL d   1      -3.100  -3.100  -0.083  0.00  0.00    -0.271 OA
ATOM      4  H   UNL d   1       0.084  -3.384  -0.017  0.00  0.00     0.169 HD
ENDROOT
BRANCH   1   5
ATOM      5  C   UNL d   1      -0.694  -1.432  -0.022  0.00  0.00     0.042 A 
ATOM      6  C   UNL d   1      -1.865  -0.655  -0.014  0.00  0.00     0.055 A 
ATOM      7  C   UNL d   1      -1.845   0.736   0.016  0.00  0.00     0.082 A 
ATOM      8  C   UNL d   1      -0.638   1.412   0.013  0.00  0.00     0.032 A 
ATOM      9  C   UNL d   1       0.565   0.685  -0.007  0.00  0.00    -0.052 A 
ATOM     10  C   UNL d   1       1.850   1.478  -0.017  0.00  0.00     0.049 C 
ATOM     11  C   UNL d   1       0.552  -0.749  -0.009  0.00  0.00    -0.029 A 
ATOM     12  C   UNL d   1       1.886  -1.463   0.020  0.00  0.00     0.051 C 
BRANCH   7  13
ATOM     13  S   UNL d   1      -3.390   1.604   0.124  0.00  0.00     0.256 S 
ATOM     14  O   UNL d   1      -4.130   1.050   1.236  0.00  0.00    -0.201 OA
ATOM     15  O   UNL d   1      -3.125   3.015  -0.011  0.00  0.00    -0.201 OA
BRANCH  13  16
ATOM     16  N   UNL d   1      -4.162   1.129  -1.277  0.00  0.00    -0.324 N 
ATOM     17  H   UNL d   1      -4.559   0.192  -1.274  0.00  0.00     0.169 HD
ATOM     18  H   UNL d   1      -3.813   1.532  -2.140  0.00  0.00     0.169 HD
ENDBRANCH  13  16
ENDBRANCH   7  13
ENDBRANCH   1   5
BRANCH   2  19
ATOM     19  C   UNL d   1      -1.840  -5.126  -0.042  0.00  0.00     0.278 C 
BRANCH  19  20
ATOM     20  O   UNL d   1      -3.188  -5.627  -0.112  0.00  0.00    -0.342 OA
BRANCH  20  21
ATOM     21  C   UNL d   1      -3.374  -6.973  -0.090  0.00  0.00     0.072 A 
ATOM     22  C   UNL d   1      -2.705  -7.832   0.775  0.00  0.00     0.039 A 
ATOM     23  C   UNL d   1      -2.985  -9.204   0.753  0.00  0.00     0.042 A 
ATOM     24  C   UNL d   1      -3.948  -9.711  -0.136  0.00  0.00     0.141 A 
ATOM     25  C   UNL d   1      -4.645  -8.840  -0.969  0.00  0.00     0.151 A 
ATOM     26  F   UNL d   1      -5.582  -9.265  -1.827  0.00  0.00    -0.203 F 
ATOM     27  C   UNL d   1      -4.371  -7.473  -0.933  0.00  0.00     0.081 A 
BRANCH  24  28
ATOM     28  N   UNL d   1      -4.203 -11.151  -0.182  0.00  0.00    -0.113 N 
ATOM     29  O   UNL d   1      -3.541 -11.866   0.585  0.00  0.00    -0.532 OA
ATOM     30  O   UNL d   1      -5.043 -11.585  -0.978  0.00  0.00    -0.532 OA
ENDBRANCH  24  28
ENDBRANCH  20  21
ENDBRANCH  19  20
ENDBRANCH   2  19
TORSDOF 7
