@<TRIPOS>MOLECULE
*****
 30 31 0 0 0
SMALL
GASTEIGER

@<TRIPOS>ATOM
      1 O           0.9854   -0.1114    0.1228 O.2     1  UNL1       -0.2687
      2 C           2.2152   -0.1364    0.0534 C.2     1  UNL1        0.2602
      3 N           2.9406   -1.3125   -0.0867 N.am    1  UNL1       -0.2301
      4 N           2.2528   -2.5579   -0.1464 N.am    1  UNL1       -0.2300
      5 C           2.9764   -3.7430   -0.1880 C.2     1  UNL1        0.2629
      6 O           4.2067   -3.7748   -0.1259 O.2     1  UNL1       -0.2686
      7 C           2.2122   -5.0222   -0.2746 C.ar    1  UNL1        0.0733
      8 C           2.6162   -6.1381    0.4800 C.ar    1  UNL1       -0.0468
      9 C           1.9114   -7.3502    0.3975 C.ar    1  UNL1       -0.0609
     10 C           0.8189   -7.4685   -0.4613 C.ar    1  UNL1       -0.0590
     11 C           0.4374   -6.3771   -1.2413 C.ar    1  UNL1       -0.0257
     12 C           1.1297   -5.1651   -1.1416 C.ar    1  UNL1        0.1355
     13 F           0.7423   -4.1478   -1.9228 F       1  UNL1       -0.2047
     14 C           2.9853    1.1459    0.1444 C.ar    1  UNL1        0.0395
     15 C           2.5687    2.1399    1.0490 C.ar    1  UNL1       -0.0495
     16 C           3.2558    3.3590    1.1436 C.ar    1  UNL1       -0.0597
     17 C           4.3435    3.6098    0.3097 C.ar    1  UNL1       -0.0433
     18 C           4.7350    2.6408   -0.6144 C.ar    1  UNL1        0.0417
     19 CL          6.0507    2.9766   -1.6744 Cl      1  UNL1       -0.0835
     20 C           4.0707    1.4099   -0.6991 C.ar    1  UNL1       -0.0312
     21 H           3.9566   -1.3647   -0.0339 H       1  UNL1        0.1731
     22 H           1.2340   -2.5143   -0.1620 H       1  UNL1        0.1731
     23 H           3.4787   -6.0727    1.1408 H       1  UNL1        0.0626
     24 H           2.2166   -8.2059    0.9987 H       1  UNL1        0.0618
     25 H           0.2732   -8.4086   -0.5293 H       1  UNL1        0.0618
     26 H          -0.3952   -6.4656   -1.9339 H       1  UNL1        0.0646
     27 H           1.7047    1.9709    1.6897 H       1  UNL1        0.0625
     28 H           2.9407    4.1158    1.8604 H       1  UNL1        0.0618
     29 H           4.8720    4.5595    0.3766 H       1  UNL1        0.0632
     30 H           4.3802    0.6862   -1.4466 H       1  UNL1        0.0640
@<TRIPOS>BOND
     1     1     2    2
     2     2     3   am
     3     3     4    1
     4     4     5   am
     5     5     6    2
     6     5     7    1
     7     7     8   ar
     8     8     9   ar
     9     9    10   ar
    10    10    11   ar
    11    11    12   ar
    12     7    12   ar
    13    12    13    1
    14     2    14    1
    15    14    15   ar
    16    15    16   ar
    17    16    17   ar
    18    17    18   ar
    19    18    19    1
    20    18    20   ar
    21    14    20   ar
    22     3    21    1
    23     4    22    1
    24     8    23    1
    25     9    24    1
    26    10    25    1
    27    11    26    1
    28    15    27    1
    29    16    28    1
    30    17    29    1
    31    20    30    1
