REMARK  6 active torsions:
REMARK  status: ('A' for Active; 'I' for Inactive)
REMARK    1  A    between atoms: C_2  and  C_14 
REMARK    2  A    between atoms: C_2  and  N_3 
REMARK    3  A    between atoms: N_3  and  C_4 
REMARK    4  A    between atoms: C_7  and  C_8 
REMARK       I    between atoms: C_8  and  N_9 
REMARK    5  A    between atoms: C_14  and  O_15 
REMARK    6  A    between atoms: C_14  and  C_16 
ROOT
ATOM      1  N   UNL d   1       1.064  -0.099  -0.130  0.00  0.00    -0.366 N 
ATOM      2  H   UNL d   1       0.607   0.758   0.166  0.00  0.00     0.161 HD
ENDROOT
BRANCH   1   3
ATOM      3  C   UNL d   1       0.314  -1.263  -0.203  0.00  0.00     0.145 A 
ATOM      4  N   UNL d   1       0.972  -2.433  -0.361  0.00  0.00    -0.241 NA
ATOM      5  C   UNL d   1       0.294  -3.561  -0.662  0.00  0.00     0.136 A 
ATOM      6  C   UNL d   1      -1.078  -3.631  -0.701  0.00  0.00     0.051 A 
ATOM      7  C   UNL d   1      -1.779  -2.439  -0.481  0.00  0.00     0.046 A 
ATOM      8  C   UNL d   1      -1.079  -1.245  -0.258  0.00  0.00     0.080 A 
ATOM      9 CL   UNL d   1      -1.958   0.227  -0.050  0.00  0.00    -0.080 Cl
BRANCH   6  10
ATOM     10  C   UNL d   1      -1.799  -4.908  -0.922  0.00  0.00     0.250 C 
ATOM     11  N   UNL d   1      -1.069  -6.052  -1.137  0.00  0.00    -0.366 N 
ATOM     12  H   UNL d   1      -0.065  -6.132  -1.166  0.00  0.00     0.159 HD
ATOM     13  H   UNL d   1      -1.594  -6.910  -1.254  0.00  0.00     0.159 HD
ATOM     14  O   UNL d   1      -3.016  -4.951  -0.895  0.00  0.00    -0.268 OA
ENDBRANCH   6  10
ENDBRANCH   1   3
BRANCH   1  15
ATOM     15  C   UNL d   1       2.534  -0.128  -0.192  0.00  0.00     0.112 C 
ATOM     16  C   UNL d   1       2.938  -0.872  -1.491  0.00  0.00     0.035 C 
BRANCH  15  17
ATOM     17  C   UNL d   1       3.128   1.329  -0.177  0.00  0.00     0.173 C 
BRANCH  17  18
ATOM     18  O   UNL d   1       2.567   2.083   0.913  0.00  0.00    -0.389 OA
ATOM     19  H   UNL d   1       2.946   1.726   1.733  0.00  0.00     0.210 HD
ENDBRANCH  17  18
BRANCH  17  20
ATOM     20  C   UNL d   1       4.657   1.386  -0.096  0.00  0.00    -0.028 C 
ATOM     21  C   UNL d   1       5.455   0.249  -0.310  0.00  0.00     0.011 C 
ATOM     22  C   UNL d   1       6.827   0.304  -0.492  0.00  0.00     0.019 C 
ATOM     23  C   UNL d   1       7.475   1.494  -0.247  0.00  0.00     0.011 C 
ATOM     24 BR   UNL d   1       9.359   1.518  -0.317  0.00  0.00    -0.051 Br
ATOM     25  C   UNL d   1       6.742   2.624   0.116  0.00  0.00     0.019 C 
ATOM     26  C   UNL d   1       5.337   2.584   0.151  0.00  0.00     0.011 C 
ENDBRANCH  17  20
ENDBRANCH  15  17
ENDBRANCH   1  15
TORSDOF 6
