REMARK  7 active torsions:
REMARK  status: ('A' for Active; 'I' for Inactive)
REMARK    1  A    between atoms: C_2  and  C_3 
REMARK       I    between atoms: C_2  and  N_12 
REMARK    2  A    between atoms: C_3  and  O_4 
REMARK    3  A    between atoms: O_4  and  C_5 
REMARK    4  A    between atoms: N_12  and  N_13 
REMARK    5  A    between atoms: N_13  and  C_14 
REMARK    6  A    between atoms: C_14  and  N_16 
REMARK    7  A    between atoms: N_16  and  C_17 
ROOT
ATOM      1  O   UNL d   1       1.105  -0.086  -0.013  0.00  0.00    -0.269 OA
ATOM      2  C   UNL d   1       2.336  -0.070   0.097  0.00  0.00     0.260 C 
ATOM      3  N   UNL d   1       3.094  -0.215  -1.027  0.00  0.00    -0.266 N 
ATOM      4  H   UNL d   1       2.575  -0.341  -1.901  0.00  0.00     0.190 HD
ENDROOT
BRANCH   2   5
ATOM      5  C   UNL d   1       3.060   0.116   1.414  0.00  0.00     0.280 C 
BRANCH   5   6
ATOM      6  O   UNL d   1       2.113   0.216   2.473  0.00  0.00    -0.342 OA
BRANCH   6   7
ATOM      7  C   UNL d   1       2.638   0.425   3.715  0.00  0.00     0.072 A 
ATOM      8  C   UNL d   1       3.668   1.328   3.985  0.00  0.00     0.037 A 
ATOM      9  C   UNL d   1       4.109   1.517   5.298  0.00  0.00     0.006 A 
ATOM     10  C   UNL d   1       3.516   0.809   6.341  0.00  0.00     0.042 A 
ATOM     11  C   UNL d   1       2.475  -0.070   6.065  0.00  0.00     0.119 A 
ATOM     12  F   UNL d   1       1.898  -0.741   7.070  0.00  0.00    -0.206 F 
ATOM     13  C   UNL d   1       2.023  -0.259   4.764  0.00  0.00     0.079 A 
ENDBRANCH   6   7
ENDBRANCH   5   6
ENDBRANCH   2   5
BRANCH   3  14
ATOM     14  N   UNL d   1       4.497  -0.228  -1.161  0.00  0.00    -0.274 N 
ATOM     15  H   UNL d   1       5.088  -0.126  -0.346  0.00  0.00     0.189 HD
BRANCH  14  16
ATOM     16  C   UNL d   1       4.996  -0.445  -2.450  0.00  0.00     0.186 C 
ATOM     17  S   UNL d   1       3.904  -0.683  -3.722  0.00  0.00    -0.040 SA
BRANCH  16  18
ATOM     18  N   UNL d   1       6.391  -0.423  -2.516  0.00  0.00    -0.361 N 
ATOM     19  H   UNL d   1       6.900  -0.300  -1.646  0.00  0.00     0.162 HD
BRANCH  18  20
ATOM     20  C   UNL d   1       7.244  -0.589  -3.683  0.00  0.00     0.084 A 
ATOM     21  C   UNL d   1       6.939  -1.611  -4.745  0.00  0.00     0.027 A 
ATOM     22  C   UNL d   1       6.838  -0.138  -5.059  0.00  0.00     0.027 A 
ENDBRANCH  18  20
ENDBRANCH  16  18
ENDBRANCH  14  16
ENDBRANCH   3  14
TORSDOF 7
