@<TRIPOS>MOLECULE
*****
 42 43 0 0 0
SMALL
GASTEIGER

@<TRIPOS>ATOM
      1 C           1.1312    0.0121    0.1635 C.3     1  UNL1        0.0833
      2 O           2.5766    0.0153    0.1890 O.3     1  UNL1       -0.4527
      3 C           3.1497    0.1898    1.4194 C.2     1  UNL1        0.4165
      4 O           2.5081    0.3404    2.4586 O.2     1  UNL1       -0.2249
      5 N           4.5343    0.1780    1.3705 N.am    1  UNL1       -0.1984
      6 N           5.3266    0.3564    2.5627 N.am    1  UNL1       -0.2156
      7 C           6.7126    0.3082    2.4815 C.2     1  UNL1        0.3165
      8 O           7.2849    0.1017    1.4135 O.2     1  UNL1       -0.2513
      9 N           7.3859    0.5466    3.6719 N.am    1  UNL1       -0.2917
     10 C           8.8654    0.5699    3.7609 C.3     1  UNL1        0.0470
     11 C           9.4611    1.6627    2.8595 C.3     1  UNL1       -0.0424
     12 C           9.3762    0.7404    5.2030 C.ar    1  UNL1       -0.0272
     13 C           9.5419    2.0054    5.7945 C.ar    1  UNL1       -0.0565
     14 C          10.0112    2.1517    7.1071 C.ar    1  UNL1       -0.0580
     15 C          10.3059    1.0311    7.8892 C.ar    1  UNL1       -0.0442
     16 C          10.1928   -0.2431    7.3087 C.ar    1  UNL1       -0.0439
     17 C           9.7321   -0.3762    5.9786 C.ar    1  UNL1       -0.0534
     18 C          10.4465   -1.4932    8.1179 C.3     1  UNL1       -0.0274
     19 C          11.2133   -1.2543    9.4165 C.3     1  UNL1       -0.0488
     20 C          10.6126   -0.0651   10.1539 C.3     1  UNL1       -0.0488
     21 C          10.7544    1.2118    9.3221 C.3     1  UNL1       -0.0274
     22 H           0.7884   -0.1354   -0.8692 H       1  UNL1        0.0661
     23 H           0.7269    0.9700    0.5096 H       1  UNL1        0.0661
     24 H           0.7267   -0.8104    0.7640 H       1  UNL1        0.0661
     25 H           5.0382    0.0560    0.4942 H       1  UNL1        0.1762
     26 H           4.8099    0.4786    3.4268 H       1  UNL1        0.1745
     27 H           6.8734    0.6300    4.5368 H       1  UNL1        0.1509
     28 H           9.2262   -0.3975    3.3829 H       1  UNL1        0.0546
     29 H           9.1013    2.6561    3.1459 H       1  UNL1        0.0251
     30 H           9.1841    1.5280    1.8124 H       1  UNL1        0.0251
     31 H          10.5560    1.6657    2.9119 H       1  UNL1        0.0251
     32 H           9.3184    2.9139    5.2421 H       1  UNL1        0.0621
     33 H          10.1238    3.1544    7.5164 H       1  UNL1        0.0620
     34 H           9.6530   -1.3766    5.5558 H       1  UNL1        0.0624
     35 H          10.9865   -2.2309    7.5149 H       1  UNL1        0.0313
     36 H           9.4654   -1.9140    8.3705 H       1  UNL1        0.0313
     37 H          12.2766   -1.0756    9.2114 H       1  UNL1        0.0268
     38 H          11.1547   -2.1550   10.0392 H       1  UNL1        0.0268
     39 H          11.0930    0.0610   11.1304 H       1  UNL1        0.0268
     40 H           9.5496   -0.2633   10.3435 H       1  UNL1        0.0268
     41 H          11.8009    1.5415    9.3269 H       1  UNL1        0.0313
     42 H          10.1584    2.0011    9.7976 H       1  UNL1        0.0313
@<TRIPOS>BOND
     1     1     2    1
     2     2     3    1
     3     3     4    2
     4     3     5   am
     5     5     6    1
     6     6     7   am
     7     7     8    2
     8     7     9   am
     9     9    10    1
    10    10    11    1
    11    10    12    1
    12    12    13   ar
    13    13    14   ar
    14    14    15   ar
    15    15    16   ar
    16    16    17   ar
    17    12    17   ar
    18    16    18    1
    19    18    19    1
    20    19    20    1
    21    20    21    1
    22    15    21    1
    23     1    22    1
    24     1    23    1
    25     1    24    1
    26     5    25    1
    27     6    26    1
    28     9    27    1
    29    10    28    1
    30    11    29    1
    31    11    30    1
    32    11    31    1
    33    13    32    1
    34    14    33    1
    35    17    34    1
    36    18    35    1
    37    18    36    1
    38    19    37    1
    39    19    38    1
    40    20    39    1
    41    20    40    1
    42    21    41    1
    43    21    42    1
