REMARK  8 active torsions:
REMARK  status: ('A' for Active; 'I' for Inactive)
REMARK    1  A    between atoms: C_2  and  C_3 
REMARK       I    between atoms: C_2  and  N_13 
REMARK    2  A    between atoms: C_3  and  O_4 
REMARK    3  A    between atoms: O_4  and  C_5 
REMARK    4  A    between atoms: N_13  and  N_14 
REMARK       I    between atoms: N_14  and  C_15 
REMARK       I    between atoms: C_15  and  N_17 
REMARK    5  A    between atoms: N_17  and  C_18 
REMARK    6  A    between atoms: C_18  and  C_19 
REMARK    7  A    between atoms: C_19  and  C_20 
REMARK    8  A    between atoms: C_20  and  N_21 
ROOT
ATOM      1  N   UNL d   1       4.507   0.806  -0.882  0.00  0.00    -0.249 N 
ATOM      2  C   UNL d   1       5.102   1.675  -1.791  0.00  0.00     0.334 C 
ATOM      3  O   UNL d   1       4.466   2.401  -2.552  0.00  0.00    -0.246 OA
ATOM      4  N   UNL d   1       6.486   1.657  -1.767  0.00  0.00    -0.342 N 
ATOM      5  H   UNL d   1       5.049   0.213  -0.273  0.00  0.00     0.192 HD
ATOM      6  H   UNL d   1       6.955   1.039  -1.123  0.00  0.00     0.164 HD
ENDROOT
BRANCH   1   7
ATOM      7  N   UNL d   1       3.094   0.744  -0.828  0.00  0.00    -0.264 N 
ATOM      8  C   UNL d   1       2.317  -0.050  -0.002  0.00  0.00     0.260 C 
ATOM      9  O   UNL d   1       1.090   0.033  -0.078  0.00  0.00    -0.269 OA
ATOM     10  H   UNL d   1       2.588   1.361  -1.468  0.00  0.00     0.190 HD
BRANCH   8  11
ATOM     11  C   UNL d   1       3.014  -0.992   0.991  0.00  0.00     0.280 C 
BRANCH  11  12
ATOM     12  O   UNL d   1       2.083  -1.755   1.771  0.00  0.00    -0.340 OA
BRANCH  12  13
ATOM     13  C   UNL d   1       2.652  -2.635   2.661  0.00  0.00     0.092 A 
ATOM     14  C   UNL d   1       3.644  -2.226   3.559  0.00  0.00     0.062 A 
ATOM     15  C   UNL d   1       4.206  -3.143   4.450  0.00  0.00     0.036 A 
ATOM     16 CL   UNL d   1       5.449  -2.626   5.523  0.00  0.00    -0.084 Cl
ATOM     17  C   UNL d   1       3.781  -4.468   4.473  0.00  0.00     0.026 A 
ATOM     18  C   UNL d   1       2.755  -4.874   3.618  0.00  0.00     0.028 A 
ATOM     19  C   UNL d   1       2.178  -3.956   2.729  0.00  0.00     0.067 A 
ATOM     20 CL   UNL d   1       0.893  -4.509   1.718  0.00  0.00    -0.081 Cl
ENDBRANCH  12  13
ENDBRANCH  11  12
ENDBRANCH   8  11
ENDBRANCH   1   7
BRANCH   4  21
ATOM     21  C   UNL d   1       7.269   2.515  -2.659  0.00  0.00     0.126 C 
BRANCH  21  22
ATOM     22  C   UNL d   1       8.781   2.350  -2.484  0.00  0.00     0.040 C 
BRANCH  22  23
ATOM     23  C   UNL d   1       9.595   3.240  -3.433  0.00  0.00     0.130 C 
BRANCH  23  24
ATOM     24  N   UNL d   1      11.052   3.056  -3.250  0.00  0.00    -0.352 N 
ATOM     25  C   UNL d   1      11.727   1.837  -3.196  0.00  0.00     0.108 A 
ATOM     26  C   UNL d   1      13.050   2.117  -3.014  0.00  0.00     0.106 A 
ATOM     27  N   UNL d   1      13.153   3.486  -2.997  0.00  0.00    -0.361 N 
ATOM     28  C   UNL d   1      11.951   4.053  -3.151  0.00  0.00     0.182 A 
ATOM     29  H   UNL d   1      14.022   4.006  -2.889  0.00  0.00     0.166 HD
ENDBRANCH  23  24
ENDBRANCH  22  23
ENDBRANCH  21  22
ENDBRANCH   4  21
TORSDOF 8
