@<TRIPOS>MOLECULE
*****
 59 64 0 0 0
SMALL
GASTEIGER

@<TRIPOS>ATOM
      1 C           1.1781    0.0111    0.0674 C.3     1  UNL1        0.0788
      2 O           2.6129    0.0132    0.1681 O.3     1  UNL1       -0.4951
      3 C           3.3521   -0.2920   -0.9461 C.ar    1  UNL1        0.1207
      4 C           2.9919    0.0280   -2.2654 C.ar    1  UNL1       -0.0182
      5 C           3.7263   -0.4510   -3.3674 C.ar    1  UNL1       -0.0365
      6 C           4.8094   -1.2582   -3.1187 C.ar    1  UNL1        0.0432
      7 C           5.1875   -1.5901   -1.8168 C.ar    1  UNL1        0.0377
      8 C           4.4981   -1.0727   -0.7167 C.ar    1  UNL1       -0.0089
      9 C           6.2664   -2.6427   -1.8881 C.3     1  UNL1        0.1069
     10 C           6.4037   -2.8553   -3.4358 C.2     1  UNL1        0.2741
     11 O           7.1895   -3.6128   -4.0034 O.2     1  UNL1       -0.2685
     12 N           5.5250   -2.0007   -4.0533 N.am    1  UNL1       -0.2798
     13 C           6.0413   -4.0129   -1.2052 C.3     1  UNL1        0.0927
     14 C           4.5756   -4.4388   -0.9021 C.2     1  UNL1        0.1750
     15 O           4.3303   -5.2091    0.0230 O.2     1  UNL1       -0.2914
     16 C           3.4124   -3.9742   -1.7144 C.ar    1  UNL1        0.0360
     17 C           3.3701   -4.0418   -3.1071 C.ar    1  UNL1       -0.0484
     18 C           2.4089   -3.2979   -3.8075 C.ar    1  UNL1       -0.0429
     19 C           1.5105   -2.5311   -3.0857 C.ar    1  UNL1        0.0276
     20 N           1.4520   -2.5491   -1.7391 N.ar    1  UNL1       -0.2626
     21 C           2.3937   -3.2735   -1.0771 C.ar    1  UNL1        0.0380
     22 C           6.9448   -3.9925    0.0857 C.3     1  UNL1        0.0443
     23 C           7.9557   -5.1387    0.1409 C.ar    1  UNL1       -0.0316
     24 C           8.9869   -5.2608   -0.8030 C.ar    1  UNL1       -0.0577
     25 C          10.0222   -6.1765   -0.7208 C.ar    1  UNL1       -0.0551
     26 C           9.9234   -7.1826    0.2061 C.ar    1  UNL1        0.0156
     27 C           8.8839   -7.1349    1.1441 C.ar    1  UNL1        0.2734
     28 N           8.7212   -8.2649    2.0563 N.pl3   1  UNL1        0.0796
     29 O           9.4764   -9.2339    1.9038 O.2     1  UNL1        0.0414
     30 O           7.8204   -8.1892    2.9008 O.co2   1  UNL1       -0.5760
     31 C           7.9631   -6.0647    1.1839 C.ar    1  UNL1        0.0192
     32 C           7.6206   -2.5911    0.1312 C.3     1  UNL1       -0.0015
     33 C           9.0780   -2.4800    0.5907 C.3     1  UNL1        0.0422
     34 S          10.0434   -1.8934   -0.8317 S.3     1  UNL1       -0.1061
     35 C           8.7765   -2.1808   -2.0511 C.3     1  UNL1        0.0175
     36 N           7.5210   -2.0437   -1.2754 N.4     1  UNL1        0.2605
     37 H           0.7818    0.5379    0.9429 H       1  UNL1        0.0660
     38 H           0.7768   -1.0065    0.1239 H       1  UNL1        0.0660
     39 H           0.7857    0.5231   -0.8148 H       1  UNL1        0.0660
     40 H           2.0464    0.5211   -2.4699 H       1  UNL1        0.0655
     41 H           3.3267   -0.3522   -4.3729 H       1  UNL1        0.0637
     42 H           4.7090   -1.3946    0.3009 H       1  UNL1        0.0660
     43 H           5.3561   -2.0327   -5.0539 H       1  UNL1        0.1550
     44 H           6.4093   -4.8211   -1.8542 H       1  UNL1        0.0457
     45 H           4.1346   -4.5668   -3.6689 H       1  UNL1        0.0625
     46 H           2.4417   -3.2055   -4.8893 H       1  UNL1        0.0633
     47 H           0.9163   -1.7537   -3.5706 H       1  UNL1        0.0829
     48 H           2.3865   -3.1228    0.0023 H       1  UNL1        0.0836
     49 H           6.3087   -4.0659    0.9806 H       1  UNL1        0.0414
     50 H           9.0750   -4.6257   -1.6505 H       1  UNL1        0.0620
     51 H          10.8566   -6.1128   -1.4166 H       1  UNL1        0.0620
     52 H          10.6417   -7.9968    0.1641 H       1  UNL1        0.0685
     53 H           7.2555   -5.9818    2.0094 H       1  UNL1        0.0688
     54 H           6.9999   -1.9204    0.7426 H       1  UNL1        0.0866
     55 H           9.4939   -3.4134    0.9731 H       1  UNL1        0.0434
     56 H           9.1847   -1.7631    1.4083 H       1  UNL1        0.0434
     57 H           8.8270   -3.1586   -2.5057 H       1  UNL1        0.0938
     58 H           8.7894   -1.4596   -2.8699 H       1  UNL1        0.0938
     59 H           7.4017   -1.0233   -1.2199 H       1  UNL1        0.2060
@<TRIPOS>UNITY_ATOM_ATTR
28 1
charge 1
30 1
charge -1
36 1
charge 1
@<TRIPOS>BOND
     1     1     2    1
     2     2     3    1
     3     3     4   ar
     4     4     5   ar
     5     5     6   ar
     6     6     7   ar
     7     7     8   ar
     8     3     8   ar
     9     7     9    1
    10     9    10    1
    11    10    11    2
    12    10    12   am
    13     6    12    1
    14     9    13    1
    15    14    15    2
    16    14    16    1
    17    16    17   ar
    18    17    18   ar
    19    18    19   ar
    20    19    20   ar
    21    20    21   ar
    22    16    21   ar
    23    13    22    1
    24    22    23    1
    25    23    24   ar
    26    24    25   ar
    27    25    26   ar
    28    26    27   ar
    29    27    28    1
    30    28    29    2
    31    28    30    1
    32    27    31   ar
    33    23    31   ar
    34    22    32    1
    35    32    33    1
    36    33    34    1
    37    34    35    1
    38    35    36    1
    39    32    36    1
    40     9    36    1
    41    13    14    1
    42     1    37    1
    43     1    38    1
    44     1    39    1
    45     4    40    1
    46     5    41    1
    47     8    42    1
    48    12    43    1
    49    13    44    1
    50    17    45    1
    51    18    46    1
    52    19    47    1
    53    21    48    1
    54    22    49    1
    55    24    50    1
    56    25    51    1
    57    26    52    1
    58    31    53    1
    59    32    54    1
    60    33    55    1
    61    33    56    1
    62    35    57    1
    63    35    58    1
    64    36    59    1
