REMARK  9 active torsions:
REMARK  status: ('A' for Active; 'I' for Inactive)
REMARK    1  A    between atoms: O_2  and  C_3 
REMARK    2  A    between atoms: C_5  and  C_6 
REMARK       I    between atoms: C_6  and  N_8 
REMARK    3  A    between atoms: N_8  and  C_9 
REMARK    4  A    between atoms: C_9  and  N_11 
REMARK    5  A    between atoms: N_11  and  C_12 
REMARK    6  A    between atoms: C_15  and  C_16 
REMARK       I    between atoms: C_16  and  N_18 
REMARK    7  A    between atoms: N_18  and  C_19 
REMARK    8  A    between atoms: C_28  and  O_29 
REMARK    9  A    between atoms: C_31  and  O_32 
ROOT
ATOM      1  C   UNL d   1       8.927   0.053   3.533  0.00  0.00     0.179 C 
ATOM      2  S   UNL d   1       9.563   1.235   2.496  0.00  0.00    -0.040 SA
ENDROOT
BRANCH   1   3
ATOM      3  N   UNL d   1       7.571  -0.364   3.475  0.00  0.00    -0.299 N 
ATOM      4  C   UNL d   1       6.579   0.212   2.635  0.00  0.00     0.258 C 
ATOM      5  O   UNL d   1       6.768   1.216   1.942  0.00  0.00    -0.267 OA
ATOM      6  H   UNL d   1       7.318  -1.174   4.021  0.00  0.00     0.171 HD
BRANCH   4   7
ATOM      7  C   UNL d   1       5.202  -0.357   2.480  0.00  0.00     0.037 A 
ATOM      8  C   UNL d   1       4.341   0.223   1.495  0.00  0.00     0.057 A 
ATOM      9  C   UNL d   1       3.116  -0.355   1.091  0.00  0.00     0.105 A 
ATOM     10  C   UNL d   1       2.729  -1.530   1.752  0.00  0.00     0.135 A 
ATOM     11  C   UNL d   1       3.550  -2.076   2.790  0.00  0.00     0.105 A 
ATOM     12  C   UNL d   1       4.764  -1.478   3.162  0.00  0.00     0.057 A 
BRANCH   9  13
ATOM     13  O   UNL d   1       2.626   0.158  -0.094  0.00  0.00    -0.353 OA
ATOM     14  C   UNL d   1       1.274   0.587  -0.263  0.00  0.00     0.210 C 
ENDBRANCH   9  13
BRANCH  10  15
ATOM     15  O   UNL d   1       1.664  -2.329   1.502  0.00  0.00    -0.351 OA
ATOM     16  C   UNL d   1       0.653  -1.978   0.627  0.00  0.00     0.210 C 
ENDBRANCH  10  15
BRANCH  11  17
ATOM     17  O   UNL d   1       3.309  -3.251   3.487  0.00  0.00    -0.353 OA
ATOM     18  C   UNL d   1       2.159  -4.021   3.133  0.00  0.00     0.210 C 
ENDBRANCH  11  17
ENDBRANCH   4   7
ENDBRANCH   1   3
BRANCH   1  19
ATOM     19  N   UNL d   1       9.720  -0.619   4.504  0.00  0.00    -0.333 N 
ATOM     20  H   UNL d   1       9.451  -1.538   4.836  0.00  0.00     0.168 HD
BRANCH  19  21
ATOM     21  C   UNL d   1      11.066  -0.218   4.832  0.00  0.00     0.034 A 
ATOM     22  C   UNL d   1      12.121  -1.128   4.959  0.00  0.00     0.030 A 
ATOM     23  C   UNL d   1      13.424  -0.654   5.237  0.00  0.00     0.019 A 
ATOM     24  C   UNL d   1      13.704   0.727   5.328  0.00  0.00     0.032 A 
ATOM     25  C   UNL d   1      12.644   1.618   5.256  0.00  0.00     0.019 A 
ATOM     26  C   UNL d   1      11.351   1.138   5.046  0.00  0.00     0.030 A 
BRANCH  24  27
ATOM     27  C   UNL d   1      15.114   1.185   5.463  0.00  0.00     0.252 C 
ATOM     28  O   UNL d   1      15.986   0.303   5.438  0.00  0.00    -0.268 OA
ATOM     29  N   UNL d   1      15.395   2.539   5.604  0.00  0.00    -0.352 N 
ATOM     30  H   UNL d   1      14.668   3.219   5.429  0.00  0.00     0.163 HD
BRANCH  29  31
ATOM     31  C   UNL d   1      16.763   3.069   5.728  0.00  0.00     0.084 C 
ATOM     32  C   UNL d   1      16.759   4.551   6.175  0.00  0.00     0.025 C 
ATOM     33  C   UNL d   1      18.171   5.083   6.458  0.00  0.00     0.002 C 
ATOM     34  C   UNL d   1      18.920   4.206   7.456  0.00  0.00     0.000 C 
ATOM     35  C   UNL d   1      18.969   2.772   6.968  0.00  0.00     0.002 C 
ATOM     36  C   UNL d   1      17.575   2.236   6.726  0.00  0.00     0.025 C 
ENDBRANCH  29  31
ENDBRANCH  24  27
ENDBRANCH  19  21
ENDBRANCH   1  19
TORSDOF 9
