REMARK  14 active torsions:
REMARK  status: ('A' for Active; 'I' for Inactive)
REMARK    1  A    between atoms: C_2  and  C_3 
REMARK       I    between atoms: C_2  and  N_18 
REMARK    2  A    between atoms: C_3  and  C_4 
REMARK    3  A    between atoms: C_4  and  C_5 
REMARK    4  A    between atoms: C_5  and  C_6 
REMARK    5  A    between atoms: C_6  and  O_8 
REMARK    6  A    between atoms: O_8  and  C_9 
REMARK    7  A    between atoms: C_9  and  C_10 
REMARK    8  A    between atoms: C_10  and  C_11 
REMARK    9  A    between atoms: C_11  and  C_12 
REMARK   10  A    between atoms: N_18  and  C_19 
REMARK   11  A    between atoms: C_19  and  N_21 
REMARK   12  A    between atoms: N_21  and  C_22 
REMARK   13  A    between atoms: C_24  and  N_25 
REMARK   14  A    between atoms: C_30  and  O_31 
ROOT
ATOM      1  O   UNL d   1       1.127  -0.316  -0.198  0.00  0.00    -0.273 OA
ATOM      2  C   UNL d   1       2.337  -0.128  -0.083  0.00  0.00     0.223 C 
ATOM      3  N   UNL d   1       3.258  -1.033  -0.643  0.00  0.00    -0.304 N 
ATOM      4  H   UNL d   1       2.765  -1.816  -1.057  0.00  0.00     0.171 HD
ENDROOT
BRANCH   2   5
ATOM      5  C   UNL d   1       2.918   1.065   0.656  0.00  0.00     0.103 C 
BRANCH   5   6
ATOM      6  C   UNL d   1       1.966   2.058   1.273  0.00  0.00     0.019 C 
BRANCH   6   7
ATOM      7  C   UNL d   1       2.737   3.206   1.953  0.00  0.00     0.111 C 
BRANCH   7   8
ATOM      8  C   UNL d   1       1.748   4.180   2.538  0.00  0.00     0.258 C 
ATOM      9  O   UNL d   1       0.524   4.049   2.457  0.00  0.00    -0.265 OA
BRANCH   8  10
ATOM     10  O   UNL d   1       2.361   5.218   3.167  0.00  0.00    -0.321 OA
BRANCH  10  11
ATOM     11  C   UNL d   1       1.425   6.151   3.733  0.00  0.00     0.179 C 
BRANCH  11  12
ATOM     12  C   UNL d   1       2.181   7.278   4.422  0.00  0.00     0.031 C 
BRANCH  12  13
ATOM     13  C   UNL d   1       1.211   8.279   5.040  0.00  0.00     0.041 C 
BRANCH  13  14
ATOM     14  C   UNL d   1       1.890   9.435   5.730  0.00  0.00    -0.058 A 
ATOM     15  C   UNL d   1       2.767   9.233   6.805  0.00  0.00     0.007 A 
ATOM     16  C   UNL d   1       3.227  10.319   7.551  0.00  0.00     0.001 A 
ATOM     17  C   UNL d   1       2.881  11.617   7.180  0.00  0.00     0.000 A 
ATOM     18  C   UNL d   1       2.054  11.830   6.080  0.00  0.00     0.001 A 
ATOM     19  C   UNL d   1       1.556  10.745   5.363  0.00  0.00     0.007 A 
ENDBRANCH  13  14
ENDBRANCH  12  13
ENDBRANCH  11  12
ENDBRANCH  10  11
ENDBRANCH   8  10
ENDBRANCH   7   8
ENDBRANCH   6   7
ENDBRANCH   5   6
ENDBRANCH   2   5
BRANCH   3  20
ATOM     20  C   UNL d   1       4.661  -0.965  -0.824  0.00  0.00     0.178 C 
ATOM     21  S   UNL d   1       5.611   0.415  -0.540  0.00  0.00    -0.040 SA
BRANCH  20  22
ATOM     22  N   UNL d   1       5.227  -2.159  -1.314  0.00  0.00    -0.331 N 
ATOM     23  H   UNL d   1       4.680  -2.754  -1.925  0.00  0.00     0.168 HD
BRANCH  22  24
ATOM     24  C   UNL d   1       6.650  -2.356  -1.315  0.00  0.00     0.070 A 
ATOM     25  C   UNL d   1       7.342  -2.692  -2.483  0.00  0.00     0.068 A 
ATOM     26  C   UNL d   1       8.748  -2.824  -2.421  0.00  0.00     0.105 A 
ATOM     27  C   UNL d   1       9.467  -2.487  -1.263  0.00  0.00     0.039 A 
ATOM     28  C   UNL d   1       8.777  -2.147  -0.108  0.00  0.00     0.041 A 
ATOM     29  C   UNL d   1       7.387  -2.158  -0.126  0.00  0.00     0.092 A 
BRANCH  26  30
ATOM     30  N   UNL d   1       9.482  -3.442  -3.535  0.00  0.00    -0.116 N 
ATOM     31  O   UNL d   1       8.839  -3.760  -4.543  0.00  0.00    -0.532 OA
ATOM     32  O   UNL d   1      10.693  -3.661  -3.374  0.00  0.00    -0.532 OA
ENDBRANCH  26  30
BRANCH  29  33
ATOM     33  O   UNL d   1       6.725  -2.007   1.066  0.00  0.00    -0.358 OA
ATOM     34  H   UNL d   1       7.218  -1.358   1.596  0.00  0.00     0.217 HD
ENDBRANCH  29  33
ENDBRANCH  22  24
ENDBRANCH  20  22
ENDBRANCH   3  20
TORSDOF 14
