@<TRIPOS>MOLECULE
*****
 32 33 0 0 0
SMALL
GASTEIGER

@<TRIPOS>ATOM
      1 C           2.4550   -0.3585   -0.0077 C.3     1  UNL1       -0.0380
      2 C           0.9880   -0.1023   -0.0022 C.ar    1  UNL1       -0.0292
      3 C           0.2185   -1.2713    0.0066 C.ar    1  UNL1       -0.0564
      4 C          -1.1595   -1.2256    0.0017 C.ar    1  UNL1       -0.0493
      5 C          -1.8118    0.0041   -0.0095 C.ar    1  UNL1        0.0383
      6 C          -3.3100    0.0458   -0.0381 C.2     1  UNL1        0.2416
      7 N          -3.9997   -1.1447   -0.0555 N.am    1  UNL1       -0.3253
      8 O          -3.9209    1.1071   -0.0537 O.2     1  UNL1       -0.2704
      9 C          -1.0400    1.2010   -0.0058 C.ar    1  UNL1       -0.0281
     10 C           0.3822    1.1708   -0.0068 C.ar    1  UNL1        0.0373
     11 N           1.1044    2.4217   -0.0253 N.am    1  UNL1       -0.2812
     12 C           2.4818    2.6308   -0.0178 C.2     1  UNL1        0.2512
     13 O           3.4144    1.8303    0.0332 O.2     1  UNL1       -0.2697
     14 C           3.0557    3.9614   -0.0835 C.ar    1  UNL1        0.0738
     15 C           4.2050    4.1101   -0.8900 C.ar    1  UNL1       -0.0453
     16 C           4.9565    5.2675   -0.8142 C.ar    1  UNL1       -0.0428
     17 C           4.5366    6.2331    0.0819 C.ar    1  UNL1        0.0293
     18 N           3.4625    6.1072    0.9014 N.ar    1  UNL1       -0.2428
     19 C           2.7549    4.9580    0.8166 C.ar    1  UNL1        0.1413
     20 CL          1.5097    4.8261    1.9938 Cl      1  UNL1       -0.0612
     21 H           2.7410   -1.4094   -0.0108 H       1  UNL1        0.0278
     22 H           2.8647    0.0398    0.9262 H       1  UNL1        0.0278
     23 H           2.8602    0.0492   -0.9400 H       1  UNL1        0.0278
     24 H           0.7159   -2.2388    0.0121 H       1  UNL1        0.0621
     25 H          -1.6732   -2.1767    0.0037 H       1  UNL1        0.0625
     26 H          -3.5912   -2.0660   -0.0509 H       1  UNL1        0.1453
     27 H          -5.0104   -1.1043   -0.0801 H       1  UNL1        0.1453
     28 H          -1.5786    2.1496   -0.0061 H       1  UNL1        0.0644
     29 H           0.5204    3.2534   -0.0176 H       1  UNL1        0.1551
     30 H           4.5536    3.2840   -1.5141 H       1  UNL1        0.0626
     31 H           5.8507    5.3918   -1.4160 H       1  UNL1        0.0633
     32 H           5.0803    7.1673    0.1755 H       1  UNL1        0.0830
@<TRIPOS>BOND
     1     1     2    1
     2     2     3   ar
     3     3     4   ar
     4     4     5   ar
     5     5     6    1
     6     6     7   am
     7     6     8    2
     8     5     9   ar
     9     9    10   ar
    10     2    10   ar
    11    10    11    1
    12    11    12   am
    13    12    13    2
    14    12    14    1
    15    14    15   ar
    16    15    16   ar
    17    16    17   ar
    18    17    18   ar
    19    18    19   ar
    20    14    19   ar
    21    19    20    1
    22     1    21    1
    23     1    22    1
    24     1    23    1
    25     3    24    1
    26     4    25    1
    27     7    26    1
    28     7    27    1
    29     9    28    1
    30    11    29    1
    31    15    30    1
    32    16    31    1
    33    17    32    1
