REMARK  13 active torsions:
REMARK  status: ('A' for Active; 'I' for Inactive)
REMARK    1  A    between atoms: C_2  and  O_3 
REMARK    2  A    between atoms: O_3  and  C_4 
REMARK    3  A    between atoms: C_6  and  C_7 
REMARK    4  A    between atoms: N_8  and  N_9 
REMARK       I    between atoms: N_9  and  C_10 
REMARK    5  A    between atoms: C_10  and  C_12 
REMARK    6  A    between atoms: C_12  and  O_13 
REMARK    7  A    between atoms: O_13  and  C_14 
REMARK    8  A    between atoms: C_17  and  C_18 
REMARK    9  A    between atoms: C_18  and  C_21 
REMARK   10  A    between atoms: C_21  and  C_22 
REMARK   11  A    between atoms: C_30  and  O_31 
REMARK   12  A    between atoms: O_31  and  C_32 
REMARK   13  A    between atoms: C_32  and  C_34 
ROOT
ATOM      1  C   UNL d   1       6.867   2.669  -3.425  0.00  0.00     0.150 C 
ATOM      2  N   UNL d   1       8.084   2.575  -3.870  0.00  0.00    -0.184 NA
ENDROOT
BRANCH   2   3
ATOM      3  N   UNL d   1       8.559   3.490  -4.787  0.00  0.00    -0.246 N 
ATOM      4  C   UNL d   1       9.874   3.327  -5.252  0.00  0.00     0.261 C 
ATOM      5  O   UNL d   1      10.615   2.422  -4.866  0.00  0.00    -0.269 OA
ATOM      6  H   UNL d   1       7.954   4.232  -5.119  0.00  0.00     0.192 HD
BRANCH   4   7
ATOM      7  C   UNL d   1      10.351   4.382  -6.267  0.00  0.00     0.280 C 
BRANCH   7   8
ATOM      8  O   UNL d   1      11.670   4.043  -6.712  0.00  0.00    -0.342 OA
BRANCH   8   9
ATOM      9  C   UNL d   1      12.301   4.968  -7.489  0.00  0.00     0.069 A 
ATOM     10  C   UNL d   1      13.109   4.474  -8.508  0.00  0.00     0.037 A 
ATOM     11  C   UNL d   1      13.830   5.356  -9.299  0.00  0.00     0.011 A 
ATOM     12  C   UNL d   1      13.698   6.750  -9.147  0.00  0.00    -0.050 A 
ATOM     13  C   UNL d   1      12.927   7.225  -8.085  0.00  0.00     0.011 A 
ATOM     14  C   UNL d   1      12.247   6.338  -7.255  0.00  0.00     0.037 A 
BRANCH  12  15
ATOM     15  C   UNL d   1      14.350   7.667 -10.194  0.00  0.00    -0.020 C 
ATOM     16  C   UNL d   1      15.859   7.371 -10.154  0.00  0.00     0.020 C 
ATOM     17  C   UNL d   1      13.759   7.218 -11.550  0.00  0.00     0.020 C 
BRANCH  15  18
ATOM     18  C   UNL d   1      14.041   9.188  -9.921  0.00  0.00     0.022 C 
BRANCH  18  19
ATOM     19  C   UNL d   1      14.592  10.286 -10.879  0.00  0.00    -0.050 C 
ATOM     20  C   UNL d   1      16.123  10.316 -10.908  0.00  0.00     0.014 C 
ATOM     21  C   UNL d   1      14.035  10.161 -12.301  0.00  0.00     0.014 C 
ATOM     22  C   UNL d   1      14.147  11.668 -10.366  0.00  0.00     0.014 C 
ENDBRANCH  18  19
ENDBRANCH  15  18
ENDBRANCH  12  15
ENDBRANCH   8   9
ENDBRANCH   7   8
ENDBRANCH   4   7
ENDBRANCH   2   3
BRANCH   1  23
ATOM     23  C   UNL d   1       6.310   1.641  -2.476  0.00  0.00    -0.014 A 
ATOM     24  C   UNL d   1       4.978   1.690  -2.030  0.00  0.00     0.052 A 
ATOM     25  C   UNL d   1       4.401   0.634  -1.273  0.00  0.00     0.103 A 
ATOM     26  C   UNL d   1       5.178  -0.504  -0.998  0.00  0.00     0.112 A 
ATOM     27  C   UNL d   1       6.535  -0.516  -1.372  0.00  0.00     0.041 A 
ATOM     28  C   UNL d   1       7.101   0.558  -2.086  0.00  0.00     0.016 A 
BRANCH  25  29
ATOM     29  O   UNL d   1       3.072   0.823  -0.991  0.00  0.00    -0.349 OA
BRANCH  29  30
ATOM     30  C   UNL d   1       2.547   0.447   0.283  0.00  0.00     0.171 C 
ATOM     31  C   UNL d   1       1.048   0.188   0.145  0.00  0.00     0.034 C 
ENDBRANCH  29  30
ENDBRANCH  25  29
BRANCH  26  32
ATOM     32  O   UNL d   1       4.722  -1.647  -0.278  0.00  0.00    -0.272 OA
BRANCH  32  33
ATOM     33  C   UNL d   1       3.475  -2.195  -0.561  0.00  0.00     0.298 C 
ATOM     34  O   UNL d   1       2.798  -1.960  -1.566  0.00  0.00    -0.259 OA
BRANCH  33  35
ATOM     35  C   UNL d   1       2.906  -2.966   0.595  0.00  0.00     0.039 A 
ATOM     36  C   UNL d   1       1.544  -3.317   0.524  0.00  0.00     0.017 A 
ATOM     37  C   UNL d   1       0.932  -4.052   1.540  0.00  0.00     0.001 A 
ATOM     38  C   UNL d   1       1.691  -4.490   2.619  0.00  0.00     0.000 A 
ATOM     39  C   UNL d   1       3.019  -4.076   2.747  0.00  0.00     0.001 A 
ATOM     40  C   UNL d   1       3.620  -3.284   1.756  0.00  0.00     0.017 A 
ENDBRANCH  33  35
ENDBRANCH  32  33
ENDBRANCH  26  32
ENDBRANCH   1  23
TORSDOF 13
