@<TRIPOS>MOLECULE
*****
 51 55 0 0 0
SMALL
GASTEIGER

@<TRIPOS>ATOM
      1 C           3.0628    0.0307   -1.4472 C.3     1  UNL1        0.0020
      2 C           2.5548   -0.0842   -0.0183 C.3     1  UNL1        0.1787
      3 N           3.0373    1.1176    0.7132 N.2     1  UNL1       -0.2341
      4 C           3.7561    0.7624    1.7119 C.ar    1  UNL1        0.2092
      5 C           4.4518    1.6276    2.6766 C.ar    1  UNL1        0.0098
      6 C           5.1522    1.0171    3.6495 C.ar    1  UNL1       -0.0555
      7 C           5.2387   -0.4301    3.7742 C.ar    1  UNL1       -0.0608
      8 C           4.6252   -1.2630    2.9151 C.ar    1  UNL1       -0.0478
      9 C           3.8677   -0.7048    1.8366 C.ar    1  UNL1        0.0572
     10 C           3.1691   -1.2015    0.8009 C.2     1  UNL1        0.0587
     11 C           2.9095   -2.5683    0.4764 C.ar    1  UNL1        0.0833
     12 C           3.2767   -3.2468   -0.6674 C.ar    1  UNL1        0.0048
     13 S           2.8259   -4.9178   -0.5188 S.2     1  UNL1       -0.0599
     14 C           2.1694   -4.5956    1.0296 C.ar    1  UNL1        0.1649
     15 N           1.6103   -5.6639    1.7237 N.am    1  UNL1       -0.2640
     16 C           1.0443   -5.4279    2.9761 C.2     1  UNL1        0.2289
     17 O           1.0178   -4.3034    3.4789 O.2     1  UNL1       -0.2745
     18 C           0.4443   -6.6518    3.7302 C.3     1  UNL1        0.0779
     19 S          -0.2467   -6.0817    5.3295 S.3     1  UNL1       -0.0785
     20 C          -0.8741   -7.4209    6.2161 C.ar    1  UNL1        0.1672
     21 N          -1.6546   -7.2944    7.2657 N.ar    1  UNL1       -0.2298
     22 C          -1.8386   -8.5665    7.7433 C.ar    1  UNL1        0.0543
     23 C          -1.1638   -9.4912    6.9685 C.ar    1  UNL1        0.0667
     24 C          -1.0413  -10.9340    7.1224 C.ar    1  UNL1       -0.0002
     25 C          -2.1911  -11.7309    7.2012 C.ar    1  UNL1       -0.0526
     26 C          -2.0978  -13.0776    7.5620 C.ar    1  UNL1       -0.0611
     27 C          -0.8481  -13.6639    7.7439 C.ar    1  UNL1       -0.0617
     28 C           0.3063  -12.9065    7.5542 C.ar    1  UNL1       -0.0611
     29 C           0.2105  -11.5354    7.2950 C.ar    1  UNL1       -0.0526
     30 N          -0.5511   -8.7285    5.9962 N.ar    1  UNL1       -0.3329
     31 N           2.2746   -3.3434    1.4171 N.ar    1  UNL1       -0.2247
     32 H           2.7028    0.9490   -1.9251 H       1  UNL1        0.0297
     33 H           2.7128   -0.8105   -2.0509 H       1  UNL1        0.0297
     34 H           4.1592    0.0482   -1.4876 H       1  UNL1        0.0297
     35 H           1.4608   -0.0648    0.0346 H       1  UNL1        0.1115
     36 H           2.8717    2.0928    0.4808 H       1  UNL1        0.4462
     37 H           4.4037    2.7086    2.6096 H       1  UNL1        0.0683
     38 H           5.6827    1.6051    4.3981 H       1  UNL1        0.0620
     39 H           5.8206   -0.8248    4.6052 H       1  UNL1        0.0618
     40 H           4.6877   -2.3410    3.0271 H       1  UNL1        0.0626
     41 H           3.8000   -2.8912   -1.5456 H       1  UNL1        0.0716
     42 H           1.6359   -6.5786    1.2921 H       1  UNL1        0.1567
     43 H           1.2321   -7.3875    3.9161 H       1  UNL1        0.0475
     44 H          -0.3552   -7.1001    3.1334 H       1  UNL1        0.0475
     45 H          -2.4235   -8.7587    8.6366 H       1  UNL1        0.0851
     46 H          -3.1726  -11.3048    7.0048 H       1  UNL1        0.0624
     47 H          -3.0001  -13.6660    7.7104 H       1  UNL1        0.0618
     48 H          -0.7751  -14.7087    8.0375 H       1  UNL1        0.0618
     49 H           1.2811  -13.3798    7.6400 H       1  UNL1        0.0618
     50 H           1.1197  -10.9402    7.2782 H       1  UNL1        0.0624
     51 H           0.0431   -9.0775    5.2645 H       1  UNL1        0.1679
@<TRIPOS>UNITY_ATOM_ATTR
3 1
charge 1
@<TRIPOS>BOND
     1     2     3    1
     2     3     4    2
     3     4     5   ar
     4     5     6   ar
     5     6     7   ar
     6     7     8   ar
     7     8     9   ar
     8     4     9   ar
     9     9    10    2
    10     2    10    1
    11    10    11    1
    12    11    12   ar
    13    12    13   ar
    14    13    14   ar
    15    14    15    1
    16    15    16   am
    17    16    17    2
    18    16    18    1
    19    18    19    1
    20    19    20    1
    21    20    21   ar
    22    21    22   ar
    23    22    23   ar
    24    23    24    1
    25    24    25   ar
    26    25    26   ar
    27    26    27   ar
    28    27    28   ar
    29    28    29   ar
    30    24    29   ar
    31    23    30   ar
    32    20    30   ar
    33    14    31   ar
    34    11    31   ar
    35     2     1    1
    36     1    32    1
    37     1    33    1
    38     1    34    1
    39     2    35    1
    40     3    36    1
    41     5    37    1
    42     6    38    1
    43     7    39    1
    44     8    40    1
    45    12    41    1
    46    15    42    1
    47    18    43    1
    48    18    44    1
    49    22    45    1
    50    25    46    1
    51    26    47    1
    52    27    48    1
    53    28    49    1
    54    29    50    1
    55    30    51    1
