REMARK  7 active torsions:
REMARK  status: ('A' for Active; 'I' for Inactive)
REMARK    1  A    between atoms: O_2  and  C_3 
REMARK    2  A    between atoms: C_5  and  O_6 
REMARK    3  A    between atoms: C_9  and  C_10 
REMARK       I    between atoms: C_10  and  N_12 
REMARK       I    between atoms: N_12  and  C_13 
REMARK       I    between atoms: C_13  and  N_14 
REMARK       I    between atoms: C_13  and  N_26 
REMARK    4  A    between atoms: N_14  and  C_15 
REMARK    5  A    between atoms: C_15  and  C_16 
REMARK    6  A    between atoms: C_16  and  C_17 
REMARK    7  A    between atoms: N_26  and  C_27 
ROOT
ATOM      1  C   UNL d   1       3.041   3.458   3.284  0.00  0.00     0.294 C 
ATOM      2  O   UNL d   1       3.751   4.346   3.734  0.00  0.00    -0.265 OA
ATOM      3  N   UNL d   1       1.869   3.007   3.847  0.00  0.00    -0.023 NA
ATOM      4  C   UNL d   1       1.390   3.623   4.885  0.00  0.00     0.704 C 
ATOM      5  N   UNL d   1       0.153   3.263   5.339  0.00  0.00    -0.224 N 
ATOM      6  N   UNL d   1       1.954   4.684   5.542  0.00  0.00    -0.190 N 
ATOM      7  H   UNL d   1      -0.260   3.890   6.020  0.00  0.00     0.177 HD
ATOM      8  H   UNL d   1       2.873   4.942   5.165  0.00  0.00     0.184 HD
ENDROOT
BRANCH   5   9
ATOM      9  C   UNL d   1      -0.525   2.044   4.975  0.00  0.00     0.142 C 
BRANCH   9  10
ATOM     10  C   UNL d   1      -1.691   1.737   5.911  0.00  0.00     0.057 C 
BRANCH  10  11
ATOM     11  C   UNL d   1      -2.599   0.636   5.461  0.00  0.00    -0.048 A 
ATOM     12  C   UNL d   1      -3.641   0.239   6.192  0.00  0.00    -0.006 A 
ATOM     13  C   UNL d   1      -4.126   0.665   7.457  0.00  0.00     0.014 A 
ATOM     14  C   UNL d   1      -4.266  -0.859   5.446  0.00  0.00     0.038 A 
ATOM     15  C   UNL d   1      -5.102  -0.050   8.029  0.00  0.00     0.001 A 
ATOM     16  C   UNL d   1      -5.757  -1.139   7.319  0.00  0.00     0.002 A 
ATOM     17  C   UNL d   1      -5.403  -1.550   6.084  0.00  0.00     0.030 A 
ATOM     18  N   UNL d   1      -3.687  -1.058   4.322  0.00  0.00    -0.385 N 
ATOM     19  C   UNL d   1      -2.485  -0.185   4.207  0.00  0.00     0.155 A 
ATOM     20  H   UNL d   1      -4.036  -1.726   3.637  0.00  0.00     0.160 HD
ENDBRANCH  10  11
ENDBRANCH   9  10
ENDBRANCH   5   9
BRANCH   6  21
ATOM     21  C   UNL d   1       1.789   5.180   6.854  0.00  0.00     0.055 A 
ATOM     22  C   UNL d   1       2.032   6.558   7.040  0.00  0.00     0.030 A 
ATOM     23  C   UNL d   1       1.946   7.151   8.302  0.00  0.00     0.002 A 
ATOM     24  C   UNL d   1       1.533   6.394   9.389  0.00  0.00     0.001 A 
ATOM     25  C   UNL d   1       1.272   5.039   9.226  0.00  0.00     0.009 A 
ATOM     26  C   UNL d   1       1.430   4.408   7.979  0.00  0.00    -0.035 A 
ATOM     27  C   UNL d   1       1.260   2.917   7.965  0.00  0.00     0.050 C 
ENDBRANCH   6  21
BRANCH   1  28
ATOM     28  C   UNL d   1       3.430   2.788   2.012  0.00  0.00     0.040 A 
ATOM     29  C   UNL d   1       4.607   3.194   1.384  0.00  0.00     0.054 A 
ATOM     30  C   UNL d   1       5.079   2.511   0.267  0.00  0.00     0.071 A 
ATOM     31  C   UNL d   1       4.297   1.489  -0.289  0.00  0.00     0.073 A 
ATOM     32  C   UNL d   1       3.105   1.086   0.328  0.00  0.00     0.071 A 
ATOM     33  C   UNL d   1       2.680   1.733   1.485  0.00  0.00     0.054 A 
BRANCH  30  34
ATOM     34  O   UNL d   1       6.301   2.743  -0.310  0.00  0.00    -0.356 OA
ATOM     35  C   UNL d   1       7.168   3.628   0.406  0.00  0.00     0.210 C 
ENDBRANCH  30  34
BRANCH  32  36
ATOM     36  O   UNL d   1       2.487  -0.022  -0.189  0.00  0.00    -0.356 OA
ATOM     37  C   UNL d   1       1.067  -0.057  -0.076  0.00  0.00     0.210 C 
ENDBRANCH  32  36
ENDBRANCH   1  28
TORSDOF 7
