REMARK  9 active torsions:
REMARK  status: ('A' for Active; 'I' for Inactive)
REMARK    1  A    between atoms: C_2  and  C_3 
REMARK       I    between atoms: C_2  and  N_26 
REMARK    2  A    between atoms: C_3  and  S_4 
REMARK    3  A    between atoms: S_4  and  C_5 
REMARK    4  A    between atoms: C_8  and  N_9 
REMARK    5  A    between atoms: N_9  and  N_10 
REMARK    6  A    between atoms: C_11  and  C_12 
REMARK    7  A    between atoms: C_16  and  O_17 
REMARK    8  A    between atoms: O_17  and  C_18 
REMARK    9  A    between atoms: N_26  and  C_27 
ROOT
ATOM      1  C   UNL d   1       2.783  -2.713   3.357  0.00  0.00     0.226 A 
ATOM      2  N   UNL d   1       2.626  -4.040   3.456  0.00  0.00    -0.132 NA
ATOM      3  N   UNL d   1       3.356  -4.317   4.554  0.00  0.00    -0.103 N 
ATOM      4  C   UNL d   1       3.942  -3.193   5.076  0.00  0.00     0.739 A 
ATOM      5  N   UNL d   1       3.601  -2.171   4.312  0.00  0.00    -0.034 NA
ATOM      6  H   UNL d   1       3.391  -5.271   4.892  0.00  0.00     0.208 HD
ENDROOT
BRANCH   4   7
ATOM      7  N   UNL d   1       4.719  -3.232   6.199  0.00  0.00    -0.106 N 
ATOM      8  H   UNL d   1       4.865  -4.101   6.709  0.00  0.00     0.208 HD
BRANCH   7   9
ATOM      9  N   UNL d   1       5.259  -2.081   6.695  0.00  0.00    -0.172 NA
ATOM     10  C   UNL d   1       6.058  -2.137   7.713  0.00  0.00     0.150 C 
BRANCH  10  11
ATOM     11  C   UNL d   1       6.603  -0.882   8.289  0.00  0.00    -0.014 A 
ATOM     12  C   UNL d   1       7.858  -0.803   8.892  0.00  0.00     0.013 A 
ATOM     13  C   UNL d   1       8.234   0.378   9.552  0.00  0.00     0.004 A 
ATOM     14  C   UNL d   1       7.369   1.479   9.581  0.00  0.00     0.037 A 
ATOM     15  C   UNL d   1       6.122   1.401   8.956  0.00  0.00     0.076 A 
ATOM     16  C   UNL d   1       5.767   0.230   8.285  0.00  0.00     0.050 A 
BRANCH  15  17
ATOM     17  O   UNL d   1       5.309   2.511   9.041  0.00  0.00    -0.311 OA
BRANCH  17  18
ATOM     18  C   UNL d   1       3.997   2.400   8.630  0.00  0.00     0.076 A 
ATOM     19  C   UNL d   1       3.540   3.328   7.698  0.00  0.00     0.037 A 
ATOM     20  C   UNL d   1       2.209   3.292   7.280  0.00  0.00     0.003 A 
ATOM     21  C   UNL d   1       1.359   2.281   7.733  0.00  0.00     0.000 A 
ATOM     22  C   UNL d   1       1.818   1.344   8.656  0.00  0.00     0.003 A 
ATOM     23  C   UNL d   1       3.123   1.430   9.140  0.00  0.00     0.037 A 
ENDBRANCH  17  18
ENDBRANCH  15  17
ENDBRANCH  10  11
ENDBRANCH   7   9
ENDBRANCH   4   7
BRANCH   1  24
ATOM     24  S   UNL d   1       1.773  -1.762   2.285  0.00  0.00    -0.079 SA
BRANCH  24  25
ATOM     25  C   UNL d   1       2.958  -0.932   1.187  0.00  0.00     0.185 C 
BRANCH  25  26
ATOM     26  C   UNL d   1       2.276  -0.077   0.102  0.00  0.00     0.227 C 
ATOM     27  O   UNL d   1       1.048   0.043  -0.015  0.00  0.00    -0.273 OA
ATOM     28  N   UNL d   1       3.052   0.589  -0.823  0.00  0.00    -0.356 N 
ATOM     29  H   UNL d   1       2.503   1.158  -1.461  0.00  0.00     0.162 HD
BRANCH  28  30
ATOM     30  C   UNL d   1       4.503   0.652  -0.910  0.00  0.00     0.084 C 
ATOM     31  C   UNL d   1       5.130  -0.725  -1.074  0.00  0.00     0.025 C 
ATOM     32  C   UNL d   1       6.534  -0.463  -1.569  0.00  0.00     0.002 C 
ATOM     33  C   UNL d   1       6.447   0.826  -2.372  0.00  0.00     0.002 C 
ATOM     34  C   UNL d   1       5.029   1.373  -2.161  0.00  0.00     0.025 C 
ENDBRANCH  28  30
ENDBRANCH  25  26
ENDBRANCH  24  25
ENDBRANCH   1  24
TORSDOF 9
