@<TRIPOS>MOLECULE
*****
 54 58 0 0 0
SMALL
GASTEIGER

@<TRIPOS>ATOM
      1 C           1.0970    0.1179   -0.0136 C.3     1  UNL1        0.0125
      2 C           2.5913    0.0398    0.1079 C.2     1  UNL1        0.2141
      3 O           3.1104   -0.9052    0.6779 O.2     1  UNL1       -0.2758
      4 N           3.2648    1.1363   -0.4299 N.am    1  UNL1       -0.2857
      5 C           4.6675    1.1955   -0.4778 C.ar    1  UNL1        0.0334
      6 C           5.3752    2.4058   -0.5330 C.ar    1  UNL1       -0.0402
      7 C           6.7672    2.4254   -0.7590 C.ar    1  UNL1       -0.0556
      8 C           7.4666    1.2300   -0.8516 C.ar    1  UNL1       -0.0332
      9 C           8.9654    1.1821   -1.1028 C.3     1  UNL1        0.0252
     10 N           9.5236   -0.1807   -1.0061 N.3     1  UNL1       -0.2789
     11 C           9.4697   -0.5533    0.4311 C.3     1  UNL1        0.0656
     12 C           9.0866   -1.9332    0.6944 C.ar    1  UNL1        0.1588
     13 N           8.6610   -2.4727    1.8904 N.ar    1  UNL1       -0.2461
     14 C           8.3467   -3.7590    1.7251 C.ar    1  UNL1        0.2427
     15 N           8.5012   -4.0218    0.4208 N.ar    1  UNL1       -0.2471
     16 C           8.9066   -2.8891   -0.2624 C.ar    1  UNL1        0.1479
     17 C           9.1031   -2.7025   -1.7151 C.3     1  UNL1        0.0374
     18 C           9.1832   -1.1788   -2.1336 C.3     1  UNL1        0.0979
     19 C           7.9834   -0.8648   -3.1298 C.ar    1  UNL1        0.2454
     20 N           6.6751   -1.0826   -3.0272 N.ar    1  UNL1       -0.1900
     21 C           6.1161   -0.3291   -4.0634 C.ar    1  UNL1        0.2022
     22 C           4.6523   -0.0876   -4.2619 C.ar    1  UNL1        0.0240
     23 C           3.9121    0.9153   -3.5941 C.ar    1  UNL1       -0.0481
     24 C           2.5137    1.0749   -3.7608 C.ar    1  UNL1       -0.0243
     25 C           1.8492    0.3105   -4.7027 C.ar    1  UNL1        0.1417
     26 F           0.5393    0.5216   -4.9111 F       1  UNL1       -0.2040
     27 C           2.5621   -0.6324   -5.4344 C.ar    1  UNL1        0.0767
     28 CL          1.7566   -1.5758   -6.6284 Cl      1  UNL1       -0.0806
     29 C           3.9412   -0.8355   -5.2084 C.ar    1  UNL1       -0.0298
     30 N           7.0573    0.0778   -4.9328 N.ar    1  UNL1       -0.0560
     31 O           8.2811   -0.2494   -4.3167 O.2     1  UNL1       -0.3360
     32 C           6.7273    0.0559   -0.6593 C.ar    1  UNL1       -0.0556
     33 C           5.3618    0.0193   -0.5865 C.ar    1  UNL1       -0.0402
     34 H           0.6752   -0.7180    0.5545 H       1  UNL1        0.0323
     35 H           0.7853    0.0234   -1.0555 H       1  UNL1        0.0323
     36 H           0.7358    1.0508    0.4211 H       1  UNL1        0.0323
     37 H           2.7468    1.9213   -0.7976 H       1  UNL1        0.1548
     38 H           4.8617    3.3480   -0.3795 H       1  UNL1        0.0636
     39 H           7.2974    3.3723   -0.8380 H       1  UNL1        0.0621
     40 H           9.4321    1.7807   -0.3016 H       1  UNL1        0.0476
     41 H           9.2766    1.6735   -2.0311 H       1  UNL1        0.0476
     42 H           8.7286    0.0392    0.9891 H       1  UNL1        0.0513
     43 H          10.4231   -0.3317    0.9190 H       1  UNL1        0.0513
     44 H           8.5703   -1.9611    2.7678 H       1  UNL1        0.3104
     45 H           8.0263   -4.4468    2.4986 H       1  UNL1        0.1581
     46 H           8.3175   -4.9293   -0.0000 H       1  UNL1        0.3104
     47 H           8.2888   -3.2131   -2.2373 H       1  UNL1        0.0370
     48 H          10.0440   -3.2090   -1.9601 H       1  UNL1        0.0370
     49 H          10.0769   -1.1248   -2.7776 H       1  UNL1        0.0565
     50 H           4.4090    1.6286   -2.9480 H       1  UNL1        0.0625
     51 H           1.9356    1.7969   -3.1853 H       1  UNL1        0.0647
     52 H           4.4678   -1.5716   -5.8063 H       1  UNL1        0.0640
     53 H           7.1561   -0.9294   -0.7019 H       1  UNL1        0.0621
     54 H           4.8829   -0.9482   -0.7259 H       1  UNL1        0.0636
@<TRIPOS>UNITY_ATOM_ATTR
13 1
charge 1
@<TRIPOS>BOND
     1     1     2    1
     2     2     3    2
     3     2     4   am
     4     4     5    1
     5     5     6   ar
     6     6     7   ar
     7     7     8   ar
     8     8     9    1
     9     9    10    1
    10    10    11    1
    11    11    12    1
    12    12    13   ar
    13    13    14   ar
    14    14    15   ar
    15    15    16   ar
    16    12    16   ar
    17    16    17    1
    18    17    18    1
    19    10    18    1
    20    19    20   ar
    21    20    21   ar
    22    21    22    1
    23    22    23   ar
    24    23    24   ar
    25    24    25   ar
    26    25    26    1
    27    25    27   ar
    28    27    28    1
    29    27    29   ar
    30    22    29   ar
    31    21    30   ar
    32    30    31   ar
    33    19    31   ar
    34     8    32   ar
    35    32    33   ar
    36     5    33   ar
    37    18    19    1
    38     1    34    1
    39     1    35    1
    40     1    36    1
    41     4    37    1
    42     6    38    1
    43     7    39    1
    44     9    40    1
    45     9    41    1
    46    11    42    1
    47    11    43    1
    48    13    44    1
    49    14    45    1
    50    15    46    1
    51    17    47    1
    52    17    48    1
    53    18    49    1
    54    23    50    1
    55    24    51    1
    56    29    52    1
    57    32    53    1
    58    33    54    1
