@<TRIPOS>MOLECULE
*****
 37 38 0 0 0
SMALL
GASTEIGER

@<TRIPOS>ATOM
      1 C           2.4449   -0.4044   -0.0045 C.3     1  UNL1       -0.0380
      2 C           0.9858   -0.1071    0.0033 C.ar    1  UNL1       -0.0292
      3 C           0.2083   -1.2707    0.0074 C.ar    1  UNL1       -0.0564
      4 C          -1.1655   -1.2173    0.0010 C.ar    1  UNL1       -0.0493
      5 C          -1.8065    0.0175   -0.0100 C.ar    1  UNL1        0.0383
      6 C          -3.3058    0.0566   -0.0381 C.2     1  UNL1        0.2416
      7 N          -3.9961   -1.1352   -0.0548 N.am    1  UNL1       -0.3253
      8 O          -3.9170    1.1177   -0.0511 O.2     1  UNL1       -0.2704
      9 C          -1.0251    1.2150   -0.0032 C.ar    1  UNL1       -0.0281
     10 C           0.3994    1.1794    0.0005 C.ar    1  UNL1        0.0373
     11 N           1.1498    2.4279   -0.0013 N.am    1  UNL1       -0.2817
     12 C           2.5314    2.5864   -0.0148 C.2     1  UNL1        0.2411
     13 O           3.4012    1.7215   -0.0404 O.2     1  UNL1       -0.2705
     14 C           3.1102    3.9405   -0.0043 C.2     1  UNL1        0.0010
     15 C           4.4677    3.9925    0.0005 C.2     1  UNL1       -0.0497
     16 C           5.2865    5.2009    0.0073 C.ar    1  UNL1       -0.0248
     17 C           6.6925    5.1478   -0.0006 C.ar    1  UNL1       -0.0532
     18 C           7.4321    6.3358    0.0237 C.ar    1  UNL1       -0.0428
     19 C           6.7669    7.5612    0.0557 C.ar    1  UNL1        0.0410
     20 CL          7.6487    9.0335    0.1056 Cl      1  UNL1       -0.0835
     21 C           5.3799    7.6138    0.0542 C.ar    1  UNL1       -0.0428
     22 C           4.6505    6.4391    0.0307 C.ar    1  UNL1       -0.0532
     23 H           2.7134   -1.4591   -0.0016 H       1  UNL1        0.0278
     24 H           2.8654   -0.0109    0.9278 H       1  UNL1        0.0278
     25 H           2.8481   -0.0245   -0.9499 H       1  UNL1        0.0278
     26 H           0.7006   -2.2410    0.0101 H       1  UNL1        0.0621
     27 H          -1.6811   -2.1673    0.0014 H       1  UNL1        0.0625
     28 H          -3.5899   -2.0579   -0.0531 H       1  UNL1        0.1453
     29 H          -5.0070   -1.0964   -0.0805 H       1  UNL1        0.1453
     30 H          -1.5632    2.1638   -0.0049 H       1  UNL1        0.0644
     31 H           0.5874    3.2722    0.0028 H       1  UNL1        0.1551
     32 H           2.4518    4.7891   -0.0073 H       1  UNL1        0.0670
     33 H           5.0679    3.0758    0.0029 H       1  UNL1        0.0625
     34 H           7.2292    4.1981   -0.0217 H       1  UNL1        0.0624
     35 H           8.5187    6.3033    0.0209 H       1  UNL1        0.0632
     36 H           4.8404    8.5532    0.0752 H       1  UNL1        0.0632
     37 H           3.5709    6.5142    0.0362 H       1  UNL1        0.0624
@<TRIPOS>BOND
     1     1     2    1
     2     2     3   ar
     3     3     4   ar
     4     4     5   ar
     5     5     6    1
     6     6     7   am
     7     6     8    2
     8     5     9   ar
     9     9    10   ar
    10     2    10   ar
    11    10    11    1
    12    11    12   am
    13    12    13    2
    14    12    14    1
    15    14    15    2
    16    15    16    1
    17    16    17   ar
    18    17    18   ar
    19    18    19   ar
    20    19    20    1
    21    19    21   ar
    22    21    22   ar
    23    16    22   ar
    24     1    23    1
    25     1    24    1
    26     1    25    1
    27     3    26    1
    28     4    27    1
    29     7    28    1
    30     7    29    1
    31     9    30    1
    32    11    31    1
    33    14    32    1
    34    15    33    1
    35    17    34    1
    36    18    35    1
    37    21    36    1
    38    22    37    1
