@<TRIPOS>MOLECULE
*****
 57 61 0 0 0
SMALL
GASTEIGER

@<TRIPOS>ATOM
      1 C           0.6573    2.1822    0.1461 C.3     1  UNL1       -0.0307
      2 C          -0.3013    1.0100    0.1852 C.3     1  UNL1        0.0869
      3 O           0.3374    0.0054    0.9694 O.3     1  UNL1       -0.4902
      4 C          -0.1840   -1.2484    0.8799 C.ar    1  UNL1        0.1443
      5 C          -0.4688   -1.8121    2.1431 C.ar    1  UNL1       -0.0179
      6 C          -0.9982   -3.0934    2.2681 C.ar    1  UNL1       -0.0582
      7 C          -1.2482   -3.8287    1.1171 C.ar    1  UNL1       -0.0596
      8 C          -0.9801   -3.2730   -0.1517 C.ar    1  UNL1       -0.0342
      9 C          -0.4270   -1.9738   -0.2930 C.ar    1  UNL1        0.0913
     10 N          -0.0996   -1.4929   -1.6177 N.ar    1  UNL1       -0.2767
     11 C          -0.9270   -1.5647   -2.7708 C.ar    1  UNL1        0.1169
     12 N          -2.2416   -1.8728   -2.6971 N.pl3   1  UNL1       -0.3435
     13 C          -0.1714   -1.1494   -3.8757 C.ar    1  UNL1        0.1036
     14 C          -0.6192   -0.7209   -5.2098 C.2     1  UNL1        0.2496
     15 O          -1.7732   -0.8222   -5.5804 O.2     1  UNL1       -0.2700
     16 N           0.3677   -0.1030   -5.9854 N.am    1  UNL1       -0.3087
     17 C           0.1501    0.3583   -7.3626 C.3     1  UNL1        0.0382
     18 C           1.4452    0.8673   -8.0543 C.3     1  UNL1        0.0742
     19 C           1.4548    0.6755   -9.5690 C.3     1  UNL1       -0.0231
     20 C           0.9129    1.9791  -10.0953 C.3     1  UNL1       -0.0271
     21 C           1.4640    2.9751   -9.1014 C.3     1  UNL1        0.0482
     22 O           1.5961    2.2899   -7.8431 O.3     1  UNL1       -0.3750
     23 C           1.1372   -1.1923   -3.3967 C.ar    1  UNL1        0.1226
     24 N           2.3659   -1.2269   -3.9823 N.ar    1  UNL1       -0.2412
     25 C           3.3070   -0.8825   -3.0847 C.ar    1  UNL1        0.0900
     26 C           3.9691   -1.7494   -2.1954 C.ar    1  UNL1       -0.0342
     27 C           4.7410   -1.1977   -1.1517 C.ar    1  UNL1       -0.0596
     28 C           5.0920    0.1350   -1.2863 C.ar    1  UNL1       -0.0596
     29 C           4.2385    0.8681   -2.0858 C.ar    1  UNL1       -0.0342
     30 C           3.0478    0.2252   -2.3667 C.ar    1  UNL1        0.0916
     31 N           1.9778    0.0199   -1.5148 N.ar    1  UNL1       -0.2255
     32 C           1.0286   -0.7965   -2.0681 C.ar    1  UNL1        0.1666
     33 H           0.4361    2.8391   -0.6980 H       1  UNL1        0.0262
     34 H           1.6981    1.8495    0.0703 H       1  UNL1        0.0262
     35 H           0.5892    2.7462    1.0778 H       1  UNL1        0.0262
     36 H          -0.5200    0.7072   -0.8368 H       1  UNL1        0.0694
     37 H          -1.2591    1.2904    0.6328 H       1  UNL1        0.0694
     38 H          -0.2838   -1.2286    3.0442 H       1  UNL1        0.0655
     39 H          -1.2071   -3.5069    3.2540 H       1  UNL1        0.0619
     40 H          -1.6386   -4.8417    1.2127 H       1  UNL1        0.0618
     41 H          -1.1648   -3.9054   -1.0191 H       1  UNL1        0.0639
     42 H          -2.7360   -2.0314   -1.8222 H       1  UNL1        0.1437
     43 H          -2.8489   -1.6656   -3.4930 H       1  UNL1        0.1437
     44 H           1.2952    0.0019   -5.5890 H       1  UNL1        0.1491
     45 H          -0.6137    1.1445   -7.3396 H       1  UNL1        0.0487
     46 H          -0.2557   -0.5013   -7.9043 H       1  UNL1        0.0487
     47 H           2.3185    0.3688   -7.6186 H       1  UNL1        0.0611
     48 H           0.8985   -0.1994   -9.9141 H       1  UNL1        0.0291
     49 H           2.4916    0.5629   -9.9140 H       1  UNL1        0.0291
     50 H          -0.1818    1.9742  -10.0592 H       1  UNL1        0.0288
     51 H           1.2165    2.1949  -11.1249 H       1  UNL1        0.0288
     52 H           0.8109    3.8448   -8.9819 H       1  UNL1        0.0560
     53 H           2.4549    3.3312   -9.4073 H       1  UNL1        0.0560
     54 H           3.6241   -2.7785   -2.1315 H       1  UNL1        0.0639
     55 H           4.8940   -1.7167   -0.2119 H       1  UNL1        0.0618
     56 H           6.0920    0.4754   -1.0373 H       1  UNL1        0.0618
     57 H           4.7465    1.4434   -2.8722 H       1  UNL1        0.0639
@<TRIPOS>BOND
     1     1     2    1
     2     2     3    1
     3     3     4    1
     4     4     5   ar
     5     5     6   ar
     6     6     7   ar
     7     7     8   ar
     8     8     9   ar
     9     4     9   ar
    10     9    10    1
    11    10    11   ar
    12    11    12    1
    13    11    13   ar
    14    13    14    1
    15    14    15    2
    16    14    16   am
    17    16    17    1
    18    18    19    1
    19    19    20    1
    20    20    21    1
    21    21    22    1
    22    18    22    1
    23    13    23   ar
    24    23    24   ar
    25    24    25   ar
    26    25    26   ar
    27    26    27   ar
    28    27    28   ar
    29    28    29   ar
    30    29    30   ar
    31    25    30   ar
    32    30    31   ar
    33    31    32   ar
    34    23    32   ar
    35    10    32   ar
    36    18    17    1
    37     1    33    1
    38     1    34    1
    39     1    35    1
    40     2    36    1
    41     2    37    1
    42     5    38    1
    43     6    39    1
    44     7    40    1
    45     8    41    1
    46    12    42    1
    47    12    43    1
    48    16    44    1
    49    17    45    1
    50    17    46    1
    51    18    47    1
    52    19    48    1
    53    19    49    1
    54    20    50    1
    55    20    51    1
    56    21    52    1
    57    21    53    1
    58    26    54    1
    59    27    55    1
    60    28    56    1
    61    29    57    1
