REMARK  3 active torsions:
REMARK  status: ('A' for Active; 'I' for Inactive)
REMARK    1  A    between atoms: C_7  and  N_8 
REMARK    2  A    between atoms: C_17  and  C_18 
REMARK       I    between atoms: C_18  and  N_20 
REMARK    3  A    between atoms: C_26  and  N_27 
ROOT
ATOM      1  C   UNL d   1       1.071   0.108  -0.098  0.00  0.00     0.046 C 
ATOM      2  C   UNL d   1       2.602   0.137  -0.038  0.00  0.00     0.058 C 
ATOM      3  C   UNL d   1       3.032   0.288   1.429  0.00  0.00     0.046 C 
ATOM      4  C   UNL d   1       3.092  -1.181  -0.584  0.00  0.00     0.077 C 
ATOM      5  C   UNL d   1       4.571  -1.228  -0.830  0.00  0.00    -0.028 A 
ATOM      6  C   UNL d   1       5.308  -0.028  -0.938  0.00  0.00     0.017 A 
ATOM      7  C   UNL d   1       6.702  -0.071  -1.138  0.00  0.00     0.113 A 
ATOM      8  N   UNL d   1       7.283  -1.295  -1.268  0.00  0.00    -0.336 N 
ATOM      9  C   UNL d   1       6.563  -2.470  -1.175  0.00  0.00     0.089 A 
ATOM     10  S   UNL d   1       7.181  -4.081  -1.285  0.00  0.00    -0.064 SA
ATOM     11  C   UNL d   1       5.624  -4.804  -1.048  0.00  0.00     0.104 A 
ATOM     12  C   UNL d   1       4.678  -3.810  -0.901  0.00  0.00     0.062 A 
ATOM     13  C   UNL d   1       5.202  -2.478  -0.963  0.00  0.00     0.033 A 
ATOM     14  C   UNL d   1       4.548   1.283  -0.814  0.00  0.00     0.212 C 
ATOM     15  O   UNL d   1       3.120   1.162  -0.886  0.00  0.00    -0.376 OA
ATOM     16  H   UNL d   1       8.288  -1.339  -1.402  0.00  0.00     0.168 HD
ENDROOT
BRANCH  11  17
ATOM     17  C   UNL d   1       5.271  -6.239  -1.005  0.00  0.00     0.288 C 
ATOM     18  O   UNL d   1       4.099  -6.603  -0.826  0.00  0.00    -0.265 OA
ATOM     19  N   UNL d   1       6.297  -7.113  -1.176  0.00  0.00    -0.184 NA
ATOM     20  C   UNL d   1       5.993  -8.367  -1.145  0.00  0.00     0.174 A 
ATOM     21  N   UNL d   1       4.829  -9.095  -0.972  0.00  0.00    -0.344 N 
ATOM     22  S   UNL d   1       7.316  -9.555  -1.370  0.00  0.00    -0.062 SA
ATOM     23  C   UNL d   1       4.946 -10.463  -1.016  0.00  0.00     0.097 A 
ATOM     24  H   UNL d   1       3.929  -8.649  -0.823  0.00  0.00     0.167 HD
ATOM     25  C   UNL d   1       6.197 -10.897  -1.220  0.00  0.00     0.070 A 
ENDBRANCH  11  17
BRANCH  12  26
ATOM     26  N   UNL d   1       3.374  -4.107  -0.701  0.00  0.00    -0.397 N 
ATOM     27  H   UNL d   1       3.047  -5.079  -0.658  0.00  0.00     0.156 HD
ATOM     28  H   UNL d   1       2.588  -3.475  -0.751  0.00  0.00     0.156 HD
ENDBRANCH  12  26
BRANCH   7  29
ATOM     29  N   UNL d   1       7.479   1.065  -1.245  0.00  0.00    -0.363 N 
ATOM     30  C   UNL d   1       7.499   2.211  -0.286  0.00  0.00     0.150 C 
ATOM     31  C   UNL d   1       7.350   3.571  -1.012  0.00  0.00     0.187 C 
ATOM     32  O   UNL d   1       8.317   3.695  -2.062  0.00  0.00    -0.388 OA
ATOM     33  C   UNL d   1       8.143   2.652  -3.029  0.00  0.00     0.187 C 
ATOM     34  C   UNL d   1       8.381   1.268  -2.393  0.00  0.00     0.150 C 
ENDBRANCH   7  29
TORSDOF 3
