REMARK  4 active torsions:
REMARK  status: ('A' for Active; 'I' for Inactive)
REMARK    1  A    between atoms: C_12  and  N_13 
REMARK       I    between atoms: N_13  and  C_14 
REMARK    2  A    between atoms: C_14  and  C_16 
REMARK    3  A    between atoms: C_16  and  S_17 
REMARK    4  A    between atoms: S_17  and  C_18 
ROOT
ATOM      1  N   UNL d   1       5.842   3.281   1.278  0.00  0.00    -0.330 N 
ATOM      2  C   UNL d   1       6.395   4.574   1.282  0.00  0.00     0.229 C 
ATOM      3  O   UNL d   1       6.244   5.350   0.343  0.00  0.00    -0.273 OA
ATOM      4  H   UNL d   1       6.216   2.587   1.909  0.00  0.00     0.165 HD
ENDROOT
BRANCH   1   5
ATOM      5  C   UNL d   1       5.105   2.810   0.110  0.00  0.00     0.264 A 
ATOM      6  O   UNL d   1       3.848   3.540   0.096  0.00  0.00    -0.353 OA
ATOM      7  C   UNL d   1       2.735   2.619   0.069  0.00  0.00     0.156 A 
ATOM      8  C   UNL d   1       3.344   1.289   0.066  0.00  0.00     0.012 A 
ATOM      9  C   UNL d   1       1.888   2.810   1.315  0.00  0.00     0.045 C 
ATOM     10  C   UNL d   1       4.671   1.384   0.133  0.00  0.00     0.070 A 
ATOM     11  C   UNL d   1       2.660  -0.011   0.017  0.00  0.00     0.060 A 
ATOM     12  C   UNL d   1       5.441   0.147   0.074  0.00  0.00     0.272 A 
ATOM     13  N   UNL d   1       4.701  -1.022   0.051  0.00  0.00    -0.243 N 
ATOM     14  O   UNL d   1       6.674   0.155   0.071  0.00  0.00    -0.266 OA
ATOM     15  N   UNL d   1       3.328  -1.124   0.024  0.00  0.00    -0.176 NA
ATOM     16  H   UNL d   1       5.196  -1.908   0.029  0.00  0.00     0.192 HD
ATOM     17  C   UNL d   1       1.143  -0.075  -0.035  0.00  0.00     0.073 C 
ENDBRANCH   1   5
BRANCH   2  18
ATOM     18  C   UNL d   1       7.267   4.913   2.505  0.00  0.00     0.185 C 
BRANCH  18  19
ATOM     19  S   UNL d   1       7.894   6.628   2.521  0.00  0.00    -0.081 SA
BRANCH  19  20
ATOM     20  C   UNL d   1       8.785   6.960   3.988  0.00  0.00     0.192 A 
ATOM     21  N   UNL d   1       9.121   8.180   4.361  0.00  0.00    -0.123 NA
ATOM     22  N   UNL d   1       9.835   8.107   5.540  0.00  0.00    -0.134 NA
ATOM     23  C   UNL d   1       9.933   6.838   5.874  0.00  0.00     0.130 A 
ATOM     24  N   UNL d   1       9.305   6.081   4.900  0.00  0.00    -0.311 N 
ATOM     25  C   UNL d   1      10.633   6.295   7.089  0.00  0.00     0.081 C 
ATOM     26  C   UNL d   1       9.258   4.644   4.886  0.00  0.00     0.133 C 
ATOM     27  C   UNL d   1      10.571   3.979   5.238  0.00  0.00     0.020 C 
ATOM     28  C   UNL d   1      10.701   3.796   6.742  0.00  0.00     0.002 C 
ATOM     29  C   UNL d   1      10.078   4.944   7.546  0.00  0.00     0.008 C 
ENDBRANCH  19  20
ENDBRANCH  18  19
ENDBRANCH   2  18
TORSDOF 4
