@<TRIPOS>MOLECULE
*****
 58 62 0 0 0
SMALL
GASTEIGER

@<TRIPOS>ATOM
      1 C           2.5032   -0.0212   -0.0127 C.3     1  UNL1       -0.0397
      2 C           1.0052   -0.0198    0.0044 C.ar    1  UNL1       -0.0504
      3 C           0.2586   -1.2007    0.0058 C.ar    1  UNL1       -0.0585
      4 C          -1.1447   -1.1542   -0.0024 C.ar    1  UNL1       -0.0568
      5 C          -1.8306    0.0770   -0.0156 C.ar    1  UNL1       -0.0303
      6 C          -3.3469    0.0942   -0.0568 C.3     1  UNL1        0.0371
      7 N          -3.9575    1.4259   -0.1386 N.am    1  UNL1       -0.3070
      8 C          -5.3213    1.5938   -0.1679 C.2     1  UNL1        0.2521
      9 O          -6.1118    0.6624   -0.0779 O.2     1  UNL1       -0.2699
     10 C          -5.8565    2.9903   -0.2113 C.ar    1  UNL1        0.1247
     11 C          -5.2273    3.9846   -0.9575 C.ar    1  UNL1       -0.0214
     12 C          -5.7372    5.2827   -0.9073 C.ar    1  UNL1        0.1328
     13 C          -5.1495    6.3659   -1.7069 C.ar    1  UNL1        0.2721
     14 O          -4.1951    6.0846   -2.4339 O.2     1  UNL1       -0.2663
     15 N          -5.7288    7.6246   -1.5865 N.ar    1  UNL1       -0.2674
     16 C          -5.2309    8.6657   -2.3668 C.ar    1  UNL1        0.0146
     17 C          -5.7415    9.9008   -2.3110 C.ar    1  UNL1       -0.0450
     18 C          -6.8308   10.1851   -1.4164 C.ar    1  UNL1       -0.0569
     19 C          -7.3416    9.2224   -0.6383 C.ar    1  UNL1       -0.0185
     20 C          -6.7907    7.8361   -0.7108 C.ar    1  UNL1        0.1468
     21 N          -7.3180    6.8994    0.0208 N.ar    1  UNL1       -0.1680
     22 C          -6.8121    5.5978   -0.0846 C.ar    1  UNL1        0.3210
     23 N          -7.3859    4.6259    0.6842 N.ar    1  UNL1       -0.1564
     24 C          -8.3780    5.0226    1.7210 C.3     1  UNL1        0.1811
     25 C          -7.9091    4.8128    3.1593 C.ar    1  UNL1        0.0356
     26 C          -8.8902    4.9181    4.1733 C.ar    1  UNL1       -0.0512
     27 C          -8.5716    4.6699    5.5143 C.ar    1  UNL1       -0.0612
     28 C          -7.2963    4.2458    5.8649 C.ar    1  UNL1       -0.0604
     29 C          -6.3240    4.1236    4.8893 C.ar    1  UNL1       -0.0429
     30 C          -6.5959    4.4868    3.5726 C.ar    1  UNL1        0.0501
     31 CL         -5.1608    4.5723    2.6101 Cl      1  UNL1       -0.0830
     32 C          -6.9813    3.3121    0.6030 C.ar    1  UNL1        0.2826
     33 N          -7.5652    2.3488    1.4163 N.pl3   1  UNL1       -0.3049
     34 C          -1.0579    1.2455    0.0031 C.ar    1  UNL1       -0.0568
     35 C           0.3341    1.2003    0.0084 C.ar    1  UNL1       -0.0585
     36 H           2.9074   -1.0369    0.0002 H       1  UNL1        0.0278
     37 H           2.8868    0.5116    0.8639 H       1  UNL1        0.0278
     38 H           2.8632    0.4792   -0.9182 H       1  UNL1        0.0278
     39 H           0.7655   -2.1647    0.0059 H       1  UNL1        0.0620
     40 H          -1.6894   -2.0986   -0.0064 H       1  UNL1        0.0621
     41 H          -3.7420   -0.4111    0.8342 H       1  UNL1        0.0512
     42 H          -3.6890   -0.4638   -0.9371 H       1  UNL1        0.0512
     43 H          -3.3606    2.2307   -0.0544 H       1  UNL1        0.1493
     44 H          -4.3597    3.7654   -1.5784 H       1  UNL1        0.0638
     45 H          -4.4060    8.4349   -3.0390 H       1  UNL1        0.0814
     46 H          -5.3472   10.7018   -2.9313 H       1  UNL1        0.0632
     47 H          -7.2228   11.1988   -1.3942 H       1  UNL1        0.0619
     48 H          -8.1630    9.4160    0.0410 H       1  UNL1        0.0654
     49 H          -9.2715    4.4129    1.5102 H       1  UNL1        0.1087
     50 H          -8.7011    6.0604    1.5989 H       1  UNL1        0.1087
     51 H          -9.9176    5.2122    3.9479 H       1  UNL1        0.0623
     52 H          -9.3173    4.8004    6.2969 H       1  UNL1        0.0618
     53 H          -7.0337    4.0441    6.8999 H       1  UNL1        0.0618
     54 H          -5.3267    3.7849    5.1637 H       1  UNL1        0.0632
     55 H          -8.2397    2.5046    2.1485 H       1  UNL1        0.1478
     56 H          -7.1043    1.4331    1.4505 H       1  UNL1        0.1478
     57 H          -1.4950    2.2337    0.0052 H       1  UNL1        0.0621
     58 H           0.8908    2.1346    0.0077 H       1  UNL1        0.0620
@<TRIPOS>UNITY_ATOM_ATTR
23 1
charge 1
@<TRIPOS>BOND
     1     1     2    1
     2     2     3   ar
     3     3     4   ar
     4     4     5   ar
     5     5     6    1
     6     6     7    1
     7     7     8   am
     8     8     9    2
     9     8    10    1
    10    10    11   ar
    11    11    12   ar
    12    12    13   ar
    13    13    14    2
    14    13    15   ar
    15    15    16   ar
    16    16    17   ar
    17    17    18   ar
    18    18    19   ar
    19    19    20   ar
    20    15    20   ar
    21    20    21   ar
    22    21    22   ar
    23    12    22   ar
    24    22    23   ar
    25    23    24    1
    26    24    25    1
    27    25    26   ar
    28    26    27   ar
    29    27    28   ar
    30    28    29   ar
    31    29    30   ar
    32    25    30   ar
    33    30    31    1
    34    23    32   ar
    35    10    32   ar
    36    32    33    1
    37     5    34   ar
    38    34    35   ar
    39     2    35   ar
    40     1    36    1
    41     1    37    1
    42     1    38    1
    43     3    39    1
    44     4    40    1
    45     6    41    1
    46     6    42    1
    47     7    43    1
    48    11    44    1
    49    16    45    1
    50    17    46    1
    51    18    47    1
    52    19    48    1
    53    24    49    1
    54    24    50    1
    55    26    51    1
    56    27    52    1
    57    28    53    1
    58    29    54    1
    59    33    55    1
    60    33    56    1
    61    34    57    1
    62    35    58    1
