@<TRIPOS>MOLECULE
*****
 50 50 0 0 0
SMALL
GASTEIGER

@<TRIPOS>ATOM
      1 C           0.9321    0.0678    0.0359 C.3     1  UNL1       -0.0652
      2 C           2.4522    0.0461    0.0333 C.3     1  UNL1       -0.0545
      3 C           2.9830   -1.3797   -0.1390 C.3     1  UNL1       -0.0376
      4 C           4.5072   -1.4076   -0.1423 C.3     1  UNL1        0.0116
      5 N           5.0551   -2.7448   -0.3041 N.am    1  UNL1       -0.3153
      6 C           6.4233   -2.9241   -0.3256 C.2     1  UNL1        0.2130
      7 O           7.2044   -1.9789   -0.2116 O.2     1  UNL1       -0.2758
      8 C           6.8979   -4.3621   -0.4992 C.3     1  UNL1        0.0240
      9 C           8.4378   -4.4273   -0.5072 C.3     1  UNL1       -0.0444
     10 C           8.9771   -5.8484   -0.6791 C.3     1  UNL1       -0.0443
     11 C          10.5222   -5.9230   -0.6876 C.3     1  UNL1        0.0256
     12 C          10.9923   -7.3718   -0.8570 C.2     1  UNL1        0.2322
     13 O          10.1771   -8.2891   -0.9712 O.2     1  UNL1       -0.2741
     14 N          12.3762   -7.5649   -0.8622 N.am    1  UNL1       -0.2070
     15 N          12.8410   -8.8515   -1.0205 N.2     1  UNL1       -0.1876
     16 C          14.1163   -9.0787   -1.0338 C.2     1  UNL1        0.0565
     17 C          14.6510  -10.4619   -1.2222 C.ar    1  UNL1        0.0424
     18 C          15.7098  -10.9114   -0.4159 C.ar    1  UNL1        0.0277
     19 C          16.1965  -12.2253   -0.5763 C.ar    1  UNL1        0.2740
     20 N          17.2822  -12.7205    0.2879 N.pl3   1  UNL1        0.0796
     21 O          17.7375  -11.9466    1.1388 O.2     1  UNL1        0.0414
     22 O          17.6779  -13.8835    0.1104 O.co2   1  UNL1       -0.5760
     23 C          15.6532  -13.0782   -1.5473 C.ar    1  UNL1        0.0191
     24 C          14.6137  -12.6190   -2.3603 C.ar    1  UNL1       -0.0131
     25 C          14.1199  -11.3191   -2.1981 C.ar    1  UNL1        0.1259
     26 O          13.1573  -10.8564   -3.0482 O.3     1  UNL1       -0.5061
     27 H           0.5630    1.0907    0.1594 H       1  UNL1        0.0230
     28 H           0.5357   -0.5388    0.8564 H       1  UNL1        0.0230
     29 H           0.5357   -0.3260   -0.9054 H       1  UNL1        0.0230
     30 H           2.8201    0.4741    0.9735 H       1  UNL1        0.0263
     31 H           2.8201    0.6857   -0.7780 H       1  UNL1        0.0263
     32 H           2.6034   -1.8021   -1.0772 H       1  UNL1        0.0280
     33 H           2.6035   -2.0134    0.6717 H       1  UNL1        0.0280
     34 H           4.8962   -0.9973    0.7974 H       1  UNL1        0.0462
     35 H           4.8962   -0.7852   -0.9572 H       1  UNL1        0.0462
     36 H           4.4325   -3.5376   -0.3992 H       1  UNL1        0.1487
     37 H           6.4993   -4.7562   -1.4416 H       1  UNL1        0.0358
     38 H           6.4993   -4.9692    0.3223 H       1  UNL1        0.0358
     39 H           8.8195   -4.0059    0.4309 H       1  UNL1        0.0270
     40 H           8.8195   -3.7945   -1.3179 H       1  UNL1        0.0270
     41 H           8.5892   -6.2672   -1.6162 H       1  UNL1        0.0270
     42 H           8.5891   -6.4781    0.1315 H       1  UNL1        0.0270
     43 H          10.9152   -5.5255    0.2552 H       1  UNL1        0.0359
     44 H          10.9163   -5.3157   -1.5105 H       1  UNL1        0.0359
     45 H          13.0312   -6.7947   -0.7965 H       1  UNL1        0.1772
     46 H          14.8639   -8.2795   -0.8901 H       1  UNL1        0.0852
     47 H          16.1321  -10.2575    0.3432 H       1  UNL1        0.0693
     48 H          16.0292  -14.0921   -1.6861 H       1  UNL1        0.0686
     49 H          14.2109  -13.2804   -3.1238 H       1  UNL1        0.0656
     50 H          12.7572  -11.5818   -3.5520 H       1  UNL1        0.2922
@<TRIPOS>UNITY_ATOM_ATTR
20 1
charge 1
22 1
charge -1
@<TRIPOS>BOND
     1     1     2    1
     2     2     3    1
     3     3     4    1
     4     4     5    1
     5     5     6   am
     6     6     7    2
     7     6     8    1
     8     8     9    1
     9     9    10    1
    10    10    11    1
    11    11    12    1
    12    12    13    2
    13    12    14   am
    14    14    15    1
    15    15    16    2
    16    16    17    1
    17    17    18   ar
    18    18    19   ar
    19    19    20    1
    20    20    21    2
    21    20    22    1
    22    19    23   ar
    23    23    24   ar
    24    24    25   ar
    25    17    25   ar
    26    25    26    1
    27     1    27    1
    28     1    28    1
    29     1    29    1
    30     2    30    1
    31     2    31    1
    32     3    32    1
    33     3    33    1
    34     4    34    1
    35     4    35    1
    36     5    36    1
    37     8    37    1
    38     8    38    1
    39     9    39    1
    40     9    40    1
    41    10    41    1
    42    10    42    1
    43    11    43    1
    44    11    44    1
    45    14    45    1
    46    16    46    1
    47    18    47    1
    48    23    48    1
    49    24    49    1
    50    26    50    1
