@<TRIPOS>MOLECULE
*****
 41 42 0 0 0
SMALL
GASTEIGER

@<TRIPOS>ATOM
      1 C           1.0647    0.0820   -0.0337 C.3     1  UNL1        0.0833
      2 O           2.5044    0.0697   -0.0462 O.3     1  UNL1       -0.4535
      3 C           3.0276    0.9975   -0.8950 C.2     1  UNL1        0.4043
      4 O           2.3175    1.7575   -1.5588 O.2     1  UNL1       -0.2261
      5 N           4.4090    0.9493   -0.9496 N.am    1  UNL1       -0.2512
      6 C           5.1572    1.8963   -1.6876 C.ar    1  UNL1        0.0365
      7 C           6.2948    1.5710   -2.4303 C.ar    1  UNL1       -0.0401
      8 C           6.9594    2.5747   -3.1818 C.ar    1  UNL1       -0.0553
      9 C           6.4863    3.9065   -3.2171 C.ar    1  UNL1       -0.0302
     10 C           7.1026    4.9394   -4.1543 C.3     1  UNL1        0.0373
     11 N           6.4799    6.2596   -4.1352 N.am    1  UNL1       -0.3035
     12 C           6.8665    7.3254   -4.9244 C.2     1  UNL1        0.2996
     13 O           7.7715    7.3192   -5.7457 O.2     1  UNL1       -0.2652
     14 C           6.0229    8.6136   -4.6777 C.2     1  UNL1        0.3031
     15 O           5.1366    8.5627   -3.8301 O.2     1  UNL1       -0.2648
     16 N           6.3289    9.7007   -5.4924 N.am    1  UNL1       -0.2777
     17 C           5.7237   10.9743   -5.3627 C.ar    1  UNL1        0.0339
     18 C           5.4707   11.7653   -6.4917 C.ar    1  UNL1       -0.0391
     19 C           4.9156   13.0501   -6.3496 C.ar    1  UNL1       -0.0416
     20 C           4.5909   13.5340   -5.0833 C.ar    1  UNL1        0.0411
     21 CL          3.8204   15.0635   -4.9099 Cl      1  UNL1       -0.0835
     22 C           4.8587   12.7660   -3.9561 C.ar    1  UNL1       -0.0416
     23 C           5.4165   11.4911   -4.0991 C.ar    1  UNL1       -0.0391
     24 C           5.3978    4.2087   -2.3974 C.ar    1  UNL1       -0.0553
     25 C           4.7484    3.2255   -1.6575 C.ar    1  UNL1       -0.0401
     26 H           0.7059   -0.6797    0.6642 H       1  UNL1        0.0661
     27 H           0.6692   -0.1571   -1.0282 H       1  UNL1        0.0661
     28 H           0.6788    1.0542    0.2980 H       1  UNL1        0.0661
     29 H           4.8777    0.1754   -0.4977 H       1  UNL1        0.1582
     30 H           6.6312    0.5395   -2.5202 H       1  UNL1        0.0636
     31 H           7.8396    2.2966   -3.7634 H       1  UNL1        0.0621
     32 H           7.0243    4.5680   -5.1835 H       1  UNL1        0.0512
     33 H           8.1647    5.0696   -3.9206 H       1  UNL1        0.0512
     34 H           5.6705    6.4468   -3.5547 H       1  UNL1        0.1495
     35 H           6.9711    9.5364   -6.2628 H       1  UNL1        0.1553
     36 H           5.6265   11.3793   -7.4963 H       1  UNL1        0.0636
     37 H           4.7265   13.6659   -7.2265 H       1  UNL1        0.0633
     38 H           4.6418   13.1465   -2.9617 H       1  UNL1        0.0633
     39 H           5.6395   10.9223   -3.2008 H       1  UNL1        0.0636
     40 H           4.9907    5.2067   -2.3055 H       1  UNL1        0.0621
     41 H           3.9041    3.5285   -1.0444 H       1  UNL1        0.0636
@<TRIPOS>BOND
     1     1     2    1
     2     2     3    1
     3     3     4    2
     4     3     5   am
     5     5     6    1
     6     6     7   ar
     7     7     8   ar
     8     8     9   ar
     9     9    10    1
    10    10    11    1
    11    11    12   am
    12    12    13    2
    13    12    14    1
    14    14    15    2
    15    14    16   am
    16    16    17    1
    17    17    18   ar
    18    18    19   ar
    19    19    20   ar
    20    20    21    1
    21    20    22   ar
    22    22    23   ar
    23    17    23   ar
    24     9    24   ar
    25    24    25   ar
    26     6    25   ar
    27     1    26    1
    28     1    27    1
    29     1    28    1
    30     5    29    1
    31     7    30    1
    32     8    31    1
    33    10    32    1
    34    10    33    1
    35    11    34    1
    36    16    35    1
    37    18    36    1
    38    19    37    1
    39    22    38    1
    40    23    39    1
    41    24    40    1
    42    25    41    1
