REMARK  12 active torsions:
REMARK  status: ('A' for Active; 'I' for Inactive)
REMARK       I    between atoms: C_2  and  N_3 
REMARK    1  A    between atoms: C_2  and  C_20 
REMARK    2  A    between atoms: N_3  and  N_4 
REMARK    3  A    between atoms: C_5  and  C_6 
REMARK    4  A    between atoms: C_10  and  O_11 
REMARK    5  A    between atoms: O_11  and  C_12 
REMARK    6  A    between atoms: C_12  and  C_13 
REMARK    7  A    between atoms: C_23  and  C_24 
REMARK       I    between atoms: C_24  and  N_26 
REMARK    8  A    between atoms: N_26  and  N_27 
REMARK    9  A    between atoms: C_28  and  C_29 
REMARK   10  A    between atoms: C_33  and  O_34 
REMARK   11  A    between atoms: O_34  and  C_35 
REMARK   12  A    between atoms: C_35  and  C_36 
ROOT
ATOM      1  C   UNL d   1       3.053  -0.518  -1.037  0.00  0.00     0.145 A 
ATOM      2  C   UNL d   1       2.760  -0.299  -2.373  0.00  0.00     0.046 A 
ATOM      3  C   UNL d   1       3.621  -1.110  -3.150  0.00  0.00     0.046 A 
ATOM      4  C   UNL d   1       4.421  -1.828  -2.276  0.00  0.00     0.145 A 
ATOM      5  O   UNL d   1       4.091  -1.434  -0.968  0.00  0.00    -0.299 OA
ENDROOT
BRANCH   1   6
ATOM      6  C   UNL d   1       2.297  -0.020   0.128  0.00  0.00     0.295 C 
ATOM      7  O   UNL d   1       1.065   0.036   0.078  0.00  0.00    -0.264 OA
ATOM      8  N   UNL d   1       3.003   0.484   1.235  0.00  0.00    -0.241 N 
ATOM      9  H   UNL d   1       4.015   0.524   1.235  0.00  0.00     0.192 HD
BRANCH   8  10
ATOM     10  N   UNL d   1       2.283   1.026   2.300  0.00  0.00    -0.183 NA
ATOM     11  C   UNL d   1       2.932   1.609   3.262  0.00  0.00     0.150 C 
BRANCH  11  12
ATOM     12  C   UNL d   1       2.241   2.151   4.471  0.00  0.00    -0.014 A 
ATOM     13  C   UNL d   1       2.745   3.259   5.161  0.00  0.00     0.013 A 
ATOM     14  C   UNL d   1       2.191   3.629   6.396  0.00  0.00     0.004 A 
ATOM     15  C   UNL d   1       1.103   2.925   6.914  0.00  0.00     0.037 A 
ATOM     16  C   UNL d   1       0.580   1.835   6.214  0.00  0.00     0.070 A 
ATOM     17  C   UNL d   1       1.147   1.458   4.991  0.00  0.00     0.049 A 
BRANCH  16  18
ATOM     18  O   UNL d   1      -0.458   1.188   6.827  0.00  0.00    -0.347 OA
BRANCH  18  19
ATOM     19  C   UNL d   1      -0.941   0.018   6.156  0.00  0.00     0.214 C 
BRANCH  19  20
ATOM     20  C   UNL d   1      -1.988  -0.653   7.004  0.00  0.00    -0.034 A 
ATOM     21  C   UNL d   1      -2.925   0.097   7.725  0.00  0.00     0.009 A 
ATOM     22  C   UNL d   1      -3.779  -0.533   8.627  0.00  0.00     0.001 A 
ATOM     23  C   UNL d   1      -3.779  -1.923   8.733  0.00  0.00     0.000 A 
ATOM     24  C   UNL d   1      -2.906  -2.684   7.958  0.00  0.00     0.001 A 
ATOM     25  C   UNL d   1      -2.013  -2.052   7.096  0.00  0.00     0.009 A 
ENDBRANCH  19  20
ENDBRANCH  18  19
ENDBRANCH  16  18
ENDBRANCH  11  12
ENDBRANCH   8  10
ENDBRANCH   1   6
BRANCH   4  26
ATOM     26  C   UNL d   1       5.455  -2.853  -2.523  0.00  0.00     0.295 C 
ATOM     27  O   UNL d   1       6.059  -3.408  -1.595  0.00  0.00    -0.264 OA
ATOM     28  N   UNL d   1       5.726  -3.170  -3.880  0.00  0.00    -0.241 N 
ATOM     29  H   UNL d   1       5.231  -2.714  -4.636  0.00  0.00     0.192 HD
BRANCH  28  30
ATOM     30  N   UNL d   1       6.688  -4.120  -4.201  0.00  0.00    -0.183 NA
ATOM     31  C   UNL d   1       6.977  -4.317  -5.453  0.00  0.00     0.150 C 
BRANCH  31  32
ATOM     32  C   UNL d   1       7.990  -5.332  -5.870  0.00  0.00    -0.014 A 
ATOM     33  C   UNL d   1       8.842  -5.114  -6.959  0.00  0.00     0.013 A 
ATOM     34  C   UNL d   1       9.712  -6.130  -7.383  0.00  0.00     0.004 A 
ATOM     35  C   UNL d   1       9.764  -7.341  -6.691  0.00  0.00     0.037 A 
ATOM     36  C   UNL d   1       8.919  -7.558  -5.602  0.00  0.00     0.070 A 
ATOM     37  C   UNL d   1       8.036  -6.551  -5.194  0.00  0.00     0.049 A 
BRANCH  36  38
ATOM     38  O   UNL d   1       9.028  -8.793  -5.021  0.00  0.00    -0.347 OA
BRANCH  38  39
ATOM     39  C   UNL d   1       8.100  -9.051  -3.969  0.00  0.00     0.214 C 
BRANCH  39  40
ATOM     40  C   UNL d   1       8.225 -10.460  -3.453  0.00  0.00    -0.034 A 
ATOM     41  C   UNL d   1       8.648 -11.511  -4.276  0.00  0.00     0.009 A 
ATOM     42  C   UNL d   1       8.556 -12.829  -3.832  0.00  0.00     0.001 A 
ATOM     43  C   UNL d   1       8.115 -13.099  -2.537  0.00  0.00     0.000 A 
ATOM     44  C   UNL d   1       7.728 -12.057  -1.698  0.00  0.00     0.001 A 
ATOM     45  C   UNL d   1       7.770 -10.744  -2.157  0.00  0.00     0.009 A 
ENDBRANCH  39  40
ENDBRANCH  38  39
ENDBRANCH  36  38
ENDBRANCH  31  32
ENDBRANCH  28  30
ENDBRANCH   4  26
TORSDOF 12
