@<TRIPOS>MOLECULE
*****
 69 72 0 0 0
SMALL
GASTEIGER

@<TRIPOS>ATOM
      1 O           1.1290   -0.1172   -0.0022 O.2     1  UNL1       -0.2738
      2 C           2.3570   -0.0039   -0.0365 C.2     1  UNL1        0.2343
      3 C           3.0559    1.3740    0.0052 C.3     1  UNL1        0.0861
      4 N           2.1212    2.5031    0.0400 N.pl3   1  UNL1       -0.3354
      5 C           2.6034    3.7979    0.1786 C.ar    1  UNL1        0.0283
      6 C           3.6903    4.2258   -0.5842 C.ar    1  UNL1       -0.0394
      7 C           4.1813    5.5242   -0.4809 C.ar    1  UNL1       -0.0409
      8 C           3.6255    6.4316    0.4224 C.ar    1  UNL1        0.0532
      9 CL          4.3902    7.9856    0.4274 Cl      1  UNL1       -0.0828
     10 C           2.5479    6.0442    1.2350 C.ar    1  UNL1        0.0567
     11 C           1.8589    6.9439    2.2349 C.2     1  UNL1        0.2458
     12 O           0.9560    6.4979    2.9370 O.2     1  UNL1       -0.2701
     13 N           2.2800    8.2554    2.3280 N.am    1  UNL1       -0.3085
     14 C           1.7834    9.2245    3.2998 C.3     1  UNL1        0.0234
     15 C           2.3289    8.9067    4.6973 C.3     1  UNL1       -0.0345
     16 C           1.9219    9.9572    5.7261 C.3     1  UNL1       -0.0514
     17 C           2.3403   11.3578    5.2939 C.3     1  UNL1       -0.0529
     18 C           1.7732   11.6921    3.9186 C.3     1  UNL1       -0.0514
     19 C           2.1858   10.6508    2.8798 C.3     1  UNL1       -0.0345
     20 C           2.0586    4.7111    1.1024 C.ar    1  UNL1       -0.0273
     21 N           3.1381   -1.1385   -0.1963 N.am    1  UNL1       -0.2842
     22 C           4.5407   -1.2446   -0.1313 C.ar    1  UNL1        0.0341
     23 C           5.2280   -2.1253   -0.9602 C.ar    1  UNL1       -0.0404
     24 C           6.6203   -2.2432   -0.8438 C.ar    1  UNL1       -0.0593
     25 C           7.3332   -1.4514    0.0645 C.ar    1  UNL1       -0.0495
     26 C           6.6543   -0.5956    0.9275 C.ar    1  UNL1        0.0384
     27 C           7.4300    0.1925    1.9456 C.2     1  UNL1        0.2442
     28 O           8.6528    0.0985    2.0204 O.2     1  UNL1       -0.2702
     29 N           6.6899    0.9956    2.7700 N.am    1  UNL1       -0.3089
     30 C           7.2167    1.8252    3.8435 C.3     1  UNL1        0.0382
     31 C           6.1356    2.6438    4.5968 C.3     1  UNL1        0.0742
     32 C           4.6900    2.3857    4.1799 C.3     1  UNL1       -0.0231
     33 C           3.9996    3.6966    4.4020 C.3     1  UNL1       -0.0271
     34 C           5.1002    4.6902    4.1094 C.3     1  UNL1        0.0482
     35 O           6.3504    4.0573    4.4121 O.3     1  UNL1       -0.3750
     36 C           5.2571   -0.5375    0.8328 C.ar    1  UNL1       -0.0284
     37 H           3.7088    1.4350   -0.8720 H       1  UNL1        0.0557
     38 H           3.6429    1.4467    0.9174 H       1  UNL1        0.0557
     39 H           1.1569    2.2790    0.2717 H       1  UNL1        0.1466
     40 H           4.1399    3.5689   -1.3236 H       1  UNL1        0.0636
     41 H           4.9981    5.8298   -1.1306 H       1  UNL1        0.0633
     42 H           3.0917    8.5387    1.7947 H       1  UNL1        0.1493
     43 H           0.6890    9.1490    3.3110 H       1  UNL1        0.0498
     44 H           3.4246    8.8448    4.6578 H       1  UNL1        0.0283
     45 H           1.9737    7.9238    5.0256 H       1  UNL1        0.0283
     46 H           2.3755    9.7178    6.6939 H       1  UNL1        0.0266
     47 H           0.8340    9.9297    5.8633 H       1  UNL1        0.0266
     48 H           3.4353   11.4252    5.2687 H       1  UNL1        0.0265
     49 H           1.9914   12.0920    6.0287 H       1  UNL1        0.0265
     50 H           2.1174   12.6857    3.6095 H       1  UNL1        0.0266
     51 H           0.6789   11.7346    3.9765 H       1  UNL1        0.0266
     52 H           3.2740   10.7053    2.7360 H       1  UNL1        0.0283
     53 H           1.7357   10.9014    1.9116 H       1  UNL1        0.0283
     54 H           1.2411    4.3808    1.7446 H       1  UNL1        0.0644
     55 H           2.6092   -1.9800   -0.4064 H       1  UNL1        0.1549
     56 H           4.7121   -2.6942   -1.7303 H       1  UNL1        0.0636
     57 H           7.1611   -2.9580   -1.4600 H       1  UNL1        0.0618
     58 H           8.4179   -1.5225    0.1167 H       1  UNL1        0.0625
     59 H           5.6999    0.8834    2.7454 H       1  UNL1        0.1491
     60 H           7.9777    2.4828    3.4099 H       1  UNL1        0.0487
     61 H           7.7225    1.1483    4.5409 H       1  UNL1        0.0487
     62 H           6.2529    2.4668    5.6746 H       1  UNL1        0.0611
     63 H           4.2466    1.5376    4.7094 H       1  UNL1        0.0291
     64 H           4.5832    2.2127    3.1069 H       1  UNL1        0.0291
     65 H           3.6484    3.7744    5.4332 H       1  UNL1        0.0288
     66 H           3.1425    3.8195    3.7332 H       1  UNL1        0.0288
     67 H           4.9881    5.6046    4.6973 H       1  UNL1        0.0560
     68 H           5.1291    4.9605    3.0487 H       1  UNL1        0.0560
     69 H           4.6831   -0.0051    1.5708 H       1  UNL1        0.0644
@<TRIPOS>BOND
     1     1     2    2
     2     2     3    1
     3     3     4    1
     4     4     5    1
     5     5     6   ar
     6     6     7   ar
     7     7     8   ar
     8     8     9    1
     9     8    10   ar
    10    10    11    1
    11    11    12    2
    12    11    13   am
    13    13    14    1
    14    14    15    1
    15    15    16    1
    16    16    17    1
    17    17    18    1
    18    18    19    1
    19    14    19    1
    20    10    20   ar
    21     5    20   ar
    22     2    21   am
    23    21    22    1
    24    22    23   ar
    25    23    24   ar
    26    24    25   ar
    27    25    26   ar
    28    26    27    1
    29    27    28    2
    30    27    29   am
    31    29    30    1
    32    30    31    1
    33    31    32    1
    34    32    33    1
    35    33    34    1
    36    34    35    1
    37    31    35    1
    38    26    36   ar
    39    22    36   ar
    40     3    37    1
    41     3    38    1
    42     4    39    1
    43     6    40    1
    44     7    41    1
    45    13    42    1
    46    14    43    1
    47    15    44    1
    48    15    45    1
    49    16    46    1
    50    16    47    1
    51    17    48    1
    52    17    49    1
    53    18    50    1
    54    18    51    1
    55    19    52    1
    56    19    53    1
    57    20    54    1
    58    21    55    1
    59    23    56    1
    60    24    57    1
    61    25    58    1
    62    29    59    1
    63    30    60    1
    64    30    61    1
    65    31    62    1
    66    32    63    1
    67    32    64    1
    68    33    65    1
    69    33    66    1
    70    34    67    1
    71    34    68    1
    72    36    69    1
