REMARK  6 active torsions:
REMARK  status: ('A' for Active; 'I' for Inactive)
REMARK    1  A    between atoms: C_9  and  O_10 
REMARK    2  A    between atoms: C_12  and  O_13 
REMARK    3  A    between atoms: C_16  and  C_17 
REMARK    4  A    between atoms: N_18  and  N_19 
REMARK       I    between atoms: N_19  and  C_20 
REMARK       I    between atoms: C_20  and  N_21 
REMARK    5  A    between atoms: C_23  and  O_24 
REMARK    6  A    between atoms: C_27  and  C_28 
ROOT
ATOM      1  C   UNL d   1       0.746   0.007   0.372  0.00  0.00     0.019 C 
ATOM      2  C   UNL d   1       2.340   0.208   0.130  0.00  0.00    -0.005 C 
ATOM      3  C   UNL d   1       2.988  -0.137   1.443  0.00  0.00     0.013 C 
ATOM      4  C   UNL d   1       2.503  -1.466   1.856  0.00  0.00     0.007 C 
ATOM      5  C   UNL d   1       3.019  -2.455   0.816  0.00  0.00     0.009 C 
ATOM      6  C   UNL d   1       2.290  -2.190  -0.653  0.00  0.00     0.026 C 
ATOM      7  C   UNL d   1       2.889  -3.281  -1.616  0.00  0.00     0.011 C 
ATOM      8  C   UNL d   1       2.517  -4.698  -1.248  0.00  0.00     0.039 C 
ATOM      9  C   UNL d   1       3.013  -5.129   0.090  0.00  0.00     0.073 C 
ATOM     10  C   UNL d   1       4.401  -5.735   0.275  0.00  0.00     0.070 C 
ATOM     11  C   UNL d   1       4.450  -6.314   1.795  0.00  0.00     0.121 C 
ATOM     12  C   UNL d   1       4.576  -4.986   2.265  0.00  0.00     0.033 C 
ATOM     13  C   UNL d   1       2.652  -4.913   2.152  0.00  0.00     0.021 C 
ATOM     14  C   UNL d   1       2.698  -3.813   1.306  0.00  0.00     0.031 C 
ATOM     15  C   UNL d   1       2.505  -0.631  -1.137  0.00  0.00     0.070 C 
ATOM     16  C   UNL d   1       1.664   0.685  -1.970  0.00  0.00     0.040 C 
ATOM     17  C   UNL d   1       2.755   1.728  -1.853  0.00  0.00     0.013 C 
ATOM     18  C   UNL d   1       3.004   1.585  -0.323  0.00  0.00     0.028 C 
ENDROOT
BRANCH  14  19
ATOM     19  C   UNL d   1       3.053  -3.614   3.135  0.00  0.00     0.124 C 
ATOM     20  N   UNL d   1       4.044  -2.953   3.655  0.00  0.00    -0.186 NA
BRANCH  20  21
ATOM     21  N   UNL d   1       4.318  -3.426   4.921  0.00  0.00    -0.230 N 
ATOM     22  C   UNL d   1       5.308  -2.772   5.529  0.00  0.00     0.334 C 
ATOM     23  N   UNL d   1       5.772  -1.743   4.818  0.00  0.00    -0.351 N 
ATOM     24  O   UNL d   1       5.747  -3.106   6.697  0.00  0.00    -0.246 OA
ATOM     25  H   UNL d   1       5.336  -1.651   3.895  0.00  0.00     0.160 HD
ATOM     26  H   UNL d   1       6.434  -1.083   5.171  0.00  0.00     0.160 HD
ATOM     27  H   UNL d   1       4.009  -4.341   5.267  0.00  0.00     0.194 HD
ENDBRANCH  20  21
ENDBRANCH  14  19
BRANCH   9  28
ATOM     28  O   UNL d   1       2.232  -6.423   0.170  0.00  0.00    -0.389 OA
ATOM     29  H   UNL d   1       2.811  -7.194   0.032  0.00  0.00     0.210 HD
ENDBRANCH   9  28
BRANCH  11  30
ATOM     30  O   UNL d   1       4.947  -7.530   2.168  0.00  0.00    -0.395 OA
ATOM     31  H   UNL d   1       4.772  -8.126   1.434  0.00  0.00     0.210 HD
ENDBRANCH  11  30
BRANCH  15  32
ATOM     32  O   UNL d   1       3.869  -0.649  -1.603  0.00  0.00    -0.389 OA
ATOM     33  H   UNL d   1       4.342  -1.384  -1.179  0.00  0.00     0.210 HD
ENDBRANCH  15  32
BRANCH  18  34
ATOM     34  C   UNL d   1       2.438   2.659   0.554  0.00  0.00    -0.045 A 
ATOM     35  C   UNL d   1       1.147   2.933   0.724  0.00  0.00     0.087 A 
ATOM     36  C   UNL d   1       1.013   3.821   1.867  0.00  0.00     0.283 A 
ATOM     37  O   UNL d   1      -0.038   4.176   2.312  0.00  0.00    -0.260 OA
ATOM     38  O   UNL d   1       2.267   4.120   2.317  0.00  0.00    -0.314 OA
ATOM     39  C   UNL d   1       3.240   3.404   1.547  0.00  0.00     0.213 A 
ENDBRANCH  18  34
TORSDOF 6
