REMARK  4 active torsions:
REMARK  status: ('A' for Active; 'I' for Inactive)
REMARK    1  A    between atoms: C_5  and  C_6 
REMARK    2  A    between atoms: C_9  and  C_10 
REMARK       I    between atoms: C_10  and  N_12 
REMARK    3  A    between atoms: N_12  and  C_13 
REMARK    4  A    between atoms: C_13  and  C_14 
ROOT
ATOM      1  C   UNL d   1       0.541  -2.755   0.025  0.00  0.00     0.256 C 
ATOM      2  O   UNL d   1      -0.148  -3.775   0.039  0.00  0.00    -0.267 OA
ATOM      3  N   UNL d   1       1.869  -2.979   0.030  0.00  0.00    -0.352 N 
ATOM      4  H   UNL d   1       2.488  -2.205  -0.016  0.00  0.00     0.163 HD
ENDROOT
BRANCH   3   5
ATOM      5  C   UNL d   1       2.356  -4.339   0.046  0.00  0.00     0.161 C 
BRANCH   5   6
ATOM      6  C   UNL d   1       3.850  -4.413   0.050  0.00  0.00    -0.040 A 
ATOM      7  C   UNL d   1       4.641  -3.256   0.064  0.00  0.00     0.011 A 
ATOM      8  C   UNL d   1       6.019  -3.297   0.029  0.00  0.00     0.031 A 
ATOM      9  C   UNL d   1       6.595  -4.552  -0.008  0.00  0.00     0.043 A 
ATOM     10  N   UNL d   1       7.919  -4.873  -0.062  0.00  0.00    -0.359 N 
ATOM     11  C   UNL d   1       5.871  -5.740   0.004  0.00  0.00    -0.001 A 
ATOM     12  C   UNL d   1       8.077  -6.229  -0.070  0.00  0.00     0.012 A 
ATOM     13  H   UNL d   1       8.660  -4.188  -0.097  0.00  0.00     0.166 HD
ATOM     14  C   UNL d   1       9.427  -6.826  -0.130  0.00  0.00     0.068 C 
ATOM     15  C   UNL d   1       6.819  -6.808  -0.020  0.00  0.00    -0.027 A 
ATOM     16  C   UNL d   1       6.500  -8.258  -0.004  0.00  0.00     0.051 C 
ATOM     17  C   UNL d   1       4.466  -5.675   0.033  0.00  0.00     0.023 A 
ENDBRANCH   5   6
ENDBRANCH   3   5
BRANCH   1  18
ATOM     18  C   UNL d   1       0.067  -1.369   0.007  0.00  0.00     0.090 A 
ATOM     19  C   UNL d   1      -1.256  -0.932  -0.008  0.00  0.00     0.100 A 
ATOM     20  O   UNL d   1      -1.287   0.432   0.004  0.00  0.00    -0.216 OA
ATOM     21  N   UNL d   1      -0.007   0.933   0.002  0.00  0.00    -0.132 NA
ATOM     22  C   UNL d   1       0.800  -0.133   0.003  0.00  0.00     0.076 A 
ATOM     23  C   UNL d   1       2.265   0.091   0.004  0.00  0.00     0.074 C 
BRANCH  19  24
ATOM     24  C   UNL d   1      -2.610  -1.583  -0.022  0.00  0.00     0.038 C 
ATOM     25  C   UNL d   1      -3.397  -1.233  -1.280  0.00  0.00     0.016 C 
ATOM     26  C   UNL d   1      -2.509  -3.089   0.016  0.00  0.00     0.016 C 
ENDBRANCH  19  24
ENDBRANCH   1  18
TORSDOF 4
