@<TRIPOS>MOLECULE
*****
 63 65 0 0 0
SMALL
GASTEIGER

@<TRIPOS>ATOM
      1 C           5.7129   -0.9032   -7.3534 C.3     1  UNL1       -0.0442
      2 C           4.6875   -0.5245   -6.2661 C.3     1  UNL1        0.0262
      3 C           4.5607    0.9831   -6.1935 C.3     1  UNL1       -0.0442
      4 C           3.3849   -1.2518   -6.6601 C.3     1  UNL1       -0.0442
      5 N           5.1602   -0.9006   -4.9384 N.am    1  UNL1       -0.3087
      6 C           4.3473   -1.0711   -3.8542 C.2     1  UNL1        0.2389
      7 O           3.1420   -0.7863   -3.8992 O.2     1  UNL1       -0.2734
      8 C           4.9444   -1.7225   -2.5572 C.3     1  UNL1        0.1336
      9 C           4.1510   -1.0571   -1.4117 C.ar    1  UNL1        0.0068
     10 C           3.9460    0.3658   -1.4837 C.ar    1  UNL1        0.0224
     11 C           3.4200    1.0902   -0.4124 C.ar    1  UNL1        0.2736
     12 N           3.4293    2.5676   -0.4523 N.pl3   1  UNL1        0.0796
     13 O           3.9032    3.1096   -1.4731 O.2     1  UNL1        0.0414
     14 O           3.0384    3.1758    0.5430 O.co2   1  UNL1       -0.5760
     15 C           3.1108    0.4180    0.7743 C.ar    1  UNL1        0.0170
     16 C           3.2782   -0.9797    0.8530 C.ar    1  UNL1       -0.0366
     17 C           3.7765   -1.7224   -0.2321 C.ar    1  UNL1        0.0468
     18 CL          4.1464   -3.3878    0.0321 Cl      1  UNL1       -0.0832
     19 N           6.4663   -1.8590   -2.4034 N.am    1  UNL1       -0.2550
     20 C           7.2890   -1.1506   -1.4730 C.2     1  UNL1        0.2238
     21 O           8.5245   -1.1299   -1.5717 O.2     1  UNL1       -0.2749
     22 C           6.7416   -0.3517   -0.2703 C.3     1  UNL1        0.0361
     23 C           6.9766   -1.0225    1.0823 C.3     1  UNL1       -0.0419
     24 C           6.3791   -0.2116    2.2396 C.3     1  UNL1       -0.0524
     25 C           6.8319    1.2422    2.2088 C.3     1  UNL1       -0.0530
     26 C           6.5307    1.9059    0.8756 C.3     1  UNL1       -0.0524
     27 C           7.1101    1.1340   -0.3137 C.3     1  UNL1       -0.0419
     28 C           7.1806   -2.7203   -3.4228 C.ar    1  UNL1        0.0388
     29 C           6.6921   -3.0044   -4.7070 C.ar    1  UNL1       -0.0401
     30 C           7.5407   -3.2746   -5.7926 C.ar    1  UNL1       -0.0586
     31 C           8.8142   -3.7208   -5.5561 C.ar    1  UNL1       -0.0433
     32 C           9.2124   -3.8311   -4.2355 C.ar    1  UNL1        0.0427
     33 CL         10.6450   -4.7127   -3.8899 Cl      1  UNL1       -0.0835
     34 C           8.4444   -3.2729   -3.1925 C.ar    1  UNL1       -0.0219
     35 H           5.4453   -0.4627   -8.3196 H       1  UNL1        0.0250
     36 H           5.7232   -1.9852   -7.5231 H       1  UNL1        0.0250
     37 H           6.7299   -0.5868   -7.1003 H       1  UNL1        0.0250
     38 H           4.2428    1.4109   -7.1415 H       1  UNL1        0.0250
     39 H           5.5361    1.4085   -5.9165 H       1  UNL1        0.0250
     40 H           3.8583    1.2712   -5.4051 H       1  UNL1        0.0250
     41 H           3.0269   -0.9055   -7.6325 H       1  UNL1        0.0250
     42 H           2.5631   -1.1009   -5.9607 H       1  UNL1        0.0250
     43 H           3.5408   -2.3389   -6.7219 H       1  UNL1        0.0250
     44 H           6.1476   -0.7512   -4.7452 H       1  UNL1        0.1493
     45 H           4.6003   -2.7648   -2.6169 H       1  UNL1        0.0652
     46 H           4.3554    0.9197   -2.3333 H       1  UNL1        0.0689
     47 H           2.8578    0.9719    1.6770 H       1  UNL1        0.0686
     48 H           3.1426   -1.4643    1.8209 H       1  UNL1        0.0634
     49 H           5.6982   -0.3055   -0.2810 H       1  UNL1        0.0394
     50 H           8.0448   -1.1686    1.2452 H       1  UNL1        0.0272
     51 H           6.5146   -2.0170    1.0818 H       1  UNL1        0.0272
     52 H           6.6436   -0.6767    3.1937 H       1  UNL1        0.0265
     53 H           5.2874   -0.2324    2.2140 H       1  UNL1        0.0265
     54 H           7.9063    1.2888    2.3947 H       1  UNL1        0.0265
     55 H           6.3225    1.7957    3.0069 H       1  UNL1        0.0265
     56 H           6.8793    2.9430    0.8584 H       1  UNL1        0.0265
     57 H           5.4507    1.9721    0.8023 H       1  UNL1        0.0265
     58 H           8.1947    1.2518   -0.3304 H       1  UNL1        0.0272
     59 H           6.7240    1.5768   -1.2434 H       1  UNL1        0.0272
     60 H           5.6465   -2.9499   -4.9745 H       1  UNL1        0.0636
     61 H           7.2003   -3.1895   -6.8203 H       1  UNL1        0.0619
     62 H           9.4229   -4.0579   -6.3896 H       1  UNL1        0.0632
     63 H           8.8416   -3.3239   -2.1842 H       1  UNL1        0.0651
@<TRIPOS>UNITY_ATOM_ATTR
12 1
charge 1
14 1
charge -1
@<TRIPOS>BOND
     1     1     2    1
     2     2     3    1
     3     2     4    1
     4     2     5    1
     5     5     6   am
     6     6     7    2
     7     9    10   ar
     8    10    11   ar
     9    11    12    1
    10    12    13    2
    11    12    14    1
    12    11    15   ar
    13    15    16   ar
    14    16    17   ar
    15     9    17   ar
    16    17    18    1
    17     8    19    1
    18    19    20   am
    19    20    21    2
    20    20    22    1
    21    22    23    1
    22    23    24    1
    23    24    25    1
    24    25    26    1
    25    26    27    1
    26    22    27    1
    27    19    28    1
    28    28    29   ar
    29    29    30   ar
    30    30    31   ar
    31    31    32   ar
    32    32    33    1
    33    32    34   ar
    34    28    34   ar
    35     8     9    1
    36     8     6    1
    37     1    35    1
    38     1    36    1
    39     1    37    1
    40     3    38    1
    41     3    39    1
    42     3    40    1
    43     4    41    1
    44     4    42    1
    45     4    43    1
    46     5    44    1
    47     8    45    1
    48    10    46    1
    49    15    47    1
    50    16    48    1
    51    22    49    1
    52    23    50    1
    53    23    51    1
    54    24    52    1
    55    24    53    1
    56    25    54    1
    57    25    55    1
    58    26    56    1
    59    26    57    1
    60    27    58    1
    61    27    59    1
    62    29    60    1
    63    30    61    1
    64    31    62    1
    65    34    63    1
