@<TRIPOS>MOLECULE
*****
 32 34 0 0 0
SMALL
GASTEIGER

@<TRIPOS>ATOM
      1 O           0.9771   -0.0785   -0.1656 O.2     1  UNL1       -0.2702
      2 C           2.1989   -0.0045   -0.0844 C.2     1  UNL1        0.2444
      3 N           2.8850    1.1763   -0.0574 N.am    1  UNL1       -0.3057
      4 C           2.3003    2.5097   -0.1538 C.3     1  UNL1        0.0566
      5 C           3.3482    3.6085   -0.1997 C.ar    1  UNL1        0.0875
      6 N           2.9569    4.8985   -0.1782 N.ar    1  UNL1       -0.1761
      7 N           4.1048    5.6020   -0.2298 N.ar    1  UNL1       -0.2767
      8 C           5.2329    4.8305   -0.2838 C.ar    1  UNL1        0.0661
      9 C           6.5932    5.1659   -0.3476 C.ar    1  UNL1       -0.0363
     10 C           7.5179    4.1159   -0.3891 C.ar    1  UNL1       -0.0597
     11 C           7.1008    2.7962   -0.3750 C.ar    1  UNL1       -0.0610
     12 C           5.7464    2.4914   -0.3282 C.ar    1  UNL1       -0.0508
     13 C           4.7780    3.5149   -0.2706 C.ar    1  UNL1        0.0242
     14 C           3.0359   -1.2541   -0.0470 C.ar    1  UNL1        0.0368
     15 C           2.6558   -2.3325   -0.8589 C.ar    1  UNL1       -0.0483
     16 C           3.3545   -3.5470   -0.8127 C.ar    1  UNL1       -0.0427
     17 C           4.4364   -3.6931    0.0517 C.ar    1  UNL1        0.0410
     18 CL          5.2641   -5.2005    0.1416 Cl      1  UNL1       -0.0835
     19 C           4.8404   -2.6249    0.8528 C.ar    1  UNL1       -0.0427
     20 C           4.1458   -1.4031    0.8026 C.ar    1  UNL1       -0.0483
     21 H           3.8747    1.1080   -0.0307 H       1  UNL1        0.1494
     22 H           1.6545    2.6459    0.7206 H       1  UNL1        0.0528
     23 H           1.6746    2.5540   -1.0528 H       1  UNL1        0.0528
     24 H           4.0555    6.6162   -0.2245 H       1  UNL1        0.1889
     25 H           6.9323    6.1964   -0.3657 H       1  UNL1        0.0639
     26 H           8.5826    4.3239   -0.4399 H       1  UNL1        0.0618
     27 H           7.8132    1.9768   -0.4093 H       1  UNL1        0.0618
     28 H           5.5214    1.4361   -0.3506 H       1  UNL1        0.0625
     29 H           1.8041   -2.2322   -1.5283 H       1  UNL1        0.0625
     30 H           3.0392   -4.3769   -1.4411 H       1  UNL1        0.0632
     31 H           5.6815   -2.7490    1.5325 H       1  UNL1        0.0632
     32 H           4.4577   -0.6010    1.4661 H       1  UNL1        0.0625
@<TRIPOS>BOND
     1     1     2    2
     2     2     3   am
     3     3     4    1
     4     4     5    1
     5     5     6   ar
     6     6     7   ar
     7     7     8   ar
     8     8     9   ar
     9     9    10   ar
    10    10    11   ar
    11    11    12   ar
    12    12    13   ar
    13     5    13   ar
    14     8    13   ar
    15     2    14    1
    16    14    15   ar
    17    15    16   ar
    18    16    17   ar
    19    17    18    1
    20    17    19   ar
    21    19    20   ar
    22    14    20   ar
    23     3    21    1
    24     4    22    1
    25     4    23    1
    26     7    24    1
    27     9    25    1
    28    10    26    1
    29    11    27    1
    30    12    28    1
    31    15    29    1
    32    16    30    1
    33    19    31    1
    34    20    32    1
