REMARK  6 active torsions:
REMARK  status: ('A' for Active; 'I' for Inactive)
REMARK    1  A    between atoms: C_2  and  C_3 
REMARK       I    between atoms: C_2  and  N_11 
REMARK    2  A    between atoms: C_3  and  O_4 
REMARK    3  A    between atoms: O_4  and  C_5 
REMARK    4  A    between atoms: N_11  and  N_12 
REMARK       I    between atoms: N_12  and  C_13 
REMARK    5  A    between atoms: C_13  and  C_15 
REMARK    6  A    between atoms: C_20  and  O_21 
ROOT
ATOM      1  O   UNL d   1       1.082  -0.195   0.155  0.00  0.00    -0.269 OA
ATOM      2  C   UNL d   1       2.311  -0.106   0.119  0.00  0.00     0.260 C 
ATOM      3  N   UNL d   1       3.080  -1.149   0.598  0.00  0.00    -0.265 N 
ATOM      4  H   UNL d   1       2.590  -1.964   0.969  0.00  0.00     0.190 HD
ENDROOT
BRANCH   3   5
ATOM      5  N   UNL d   1       4.481  -1.236   0.538  0.00  0.00    -0.263 N 
ATOM      6  C   UNL d   1       5.109  -2.350   1.078  0.00  0.00     0.272 C 
ATOM      7  O   UNL d   1       4.501  -3.340   1.493  0.00  0.00    -0.266 OA
ATOM      8  H   UNL d   1       5.036  -0.405   0.353  0.00  0.00     0.190 HD
BRANCH   6   9
ATOM      9  C   UNL d   1       6.600  -2.314   1.134  0.00  0.00     0.066 A 
ATOM     10  C   UNL d   1       7.323  -3.485   0.852  0.00  0.00     0.020 A 
ATOM     11  C   UNL d   1       8.713  -3.518   1.018  0.00  0.00     0.001 A 
ATOM     12  C   UNL d   1       9.394  -2.373   1.427  0.00  0.00     0.003 A 
ATOM     13  C   UNL d   1       8.687  -1.198   1.693  0.00  0.00     0.037 A 
ATOM     14  C   UNL d   1       7.296  -1.169   1.539  0.00  0.00     0.081 A 
BRANCH  14  15
ATOM     15  O   UNL d   1       6.613  -0.008   1.785  0.00  0.00    -0.360 OA
ATOM     16  H   UNL d   1       7.233   0.656   2.135  0.00  0.00     0.217 HD
ENDBRANCH  14  15
ENDBRANCH   6   9
ENDBRANCH   3   5
BRANCH   2  17
ATOM     17  C   UNL d   1       3.037   1.119  -0.452  0.00  0.00     0.280 C 
BRANCH  17  18
ATOM     18  O   UNL d   1       2.132   2.164  -0.821  0.00  0.00    -0.342 OA
BRANCH  18  19
ATOM     19  C   UNL d   1       2.683   3.226  -1.490  0.00  0.00     0.069 A 
ATOM     20  C   UNL d   1       2.140   4.489  -1.232  0.00  0.00     0.037 A 
ATOM     21  C   UNL d   1       2.594   5.612  -1.934  0.00  0.00     0.003 A 
ATOM     22  C   UNL d   1       3.625   5.485  -2.862  0.00  0.00     0.000 A 
ATOM     23  C   UNL d   1       4.158   4.228  -3.132  0.00  0.00     0.003 A 
ATOM     24  C   UNL d   1       3.674   3.100  -2.464  0.00  0.00     0.037 A 
ENDBRANCH  18  19
ENDBRANCH  17  18
ENDBRANCH   2  17
TORSDOF 6
