@<TRIPOS>MOLECULE
*****
 65 66 0 0 0
SMALL
GASTEIGER

@<TRIPOS>ATOM
      1 C           1.0596   -0.2124    0.1938 C.3     1  UNL1       -0.0245
      2 C           2.5576    0.0075    0.1169 C.3     1  UNL1       -0.0348
      3 N           3.0050    0.7755   -1.1248 N.4     1  UNL1        0.2359
      4 C           2.5130    2.2141   -1.2032 C.3     1  UNL1       -0.0348
      5 C           1.0172    2.3595   -1.3609 C.3     1  UNL1       -0.0245
      6 C           4.5481    0.7402   -1.1811 C.3     1  UNL1       -0.0160
      7 C           5.1212    1.3984   -2.4444 C.3     1  UNL1        0.0520
      8 N           6.5647    1.4253   -2.4925 N.am    1  UNL1       -0.3063
      9 C           7.1853    2.1265   -3.5270 C.2     1  UNL1        0.2442
     10 O           6.5699    2.6764   -4.4164 O.2     1  UNL1       -0.2702
     11 C           8.6679    2.1214   -3.5148 C.ar    1  UNL1        0.0368
     12 C           9.4668    3.1886   -3.9529 C.ar    1  UNL1       -0.0479
     13 C          10.8896    3.0536   -4.0733 C.ar    1  UNL1       -0.0398
     14 C          11.5277    1.8551   -3.7181 C.ar    1  UNL1        0.0326
     15 N          12.9879    1.6778   -3.6981 N.am    1  UNL1       -0.2966
     16 C          13.6947    0.5342   -3.1998 C.2     1  UNL1        0.1408
     17 S          12.9588   -0.8412   -2.5333 S.2     1  UNL1       -0.0182
     18 N          15.1117    0.5856   -3.2632 N.am    1  UNL1       -0.2676
     19 C          15.9139   -0.5019   -2.8602 C.2     1  UNL1        0.2186
     20 O          15.4759   -1.5889   -2.4778 O.2     1  UNL1       -0.2754
     21 C          17.4161   -0.4191   -2.8879 C.3     1  UNL1        0.0274
     22 C          17.9465   -1.8132   -2.4159 C.3     1  UNL1       -0.0104
     23 C          19.4539   -1.8651   -2.4070 C.3     1  UNL1        0.0901
     24 O          19.9075   -3.1362   -1.9462 O.3     1  UNL1       -0.4905
     25 C          21.2635   -3.2700   -1.7675 C.ar    1  UNL1        0.1388
     26 C          21.7730   -4.5278   -2.1459 C.ar    1  UNL1       -0.0171
     27 C          23.1106   -4.8666   -1.9033 C.ar    1  UNL1       -0.0398
     28 C          23.9660   -3.9248   -1.3460 C.ar    1  UNL1        0.0426
     29 CL         25.6365   -4.2734   -1.1433 Cl      1  UNL1       -0.0835
     30 C          23.4833   -2.6801   -0.9697 C.ar    1  UNL1       -0.0215
     31 C          22.1383   -2.3512   -1.1596 C.ar    1  UNL1        0.0839
     32 CL         21.7180   -0.7958   -0.5304 Cl      1  UNL1       -0.0797
     33 C          10.6440    0.8290   -3.3720 C.ar    1  UNL1       -0.0398
     34 C           9.2747    0.9341   -3.2144 C.ar    1  UNL1       -0.0479
     35 H           0.8114   -0.9297    0.9797 H       1  UNL1        0.0281
     36 H           0.6457   -0.5627   -0.7564 H       1  UNL1        0.0281
     37 H           0.5353    0.6831    0.5146 H       1  UNL1        0.0281
     38 H           3.0479   -0.9715    0.0721 H       1  UNL1        0.0812
     39 H           2.9268    0.5578    0.9876 H       1  UNL1        0.0812
     40 H           2.6661    0.2644   -1.9539 H       1  UNL1        0.2034
     41 H           2.9397    2.6500   -2.1064 H       1  UNL1        0.0812
     42 H           2.8972    2.7374   -0.3235 H       1  UNL1        0.0812
     43 H           0.6198    1.6728   -2.1141 H       1  UNL1        0.0281
     44 H           0.7712    3.3843   -1.6498 H       1  UNL1        0.0281
     45 H           0.4903    2.2351   -0.4208 H       1  UNL1        0.0281
     46 H           4.8523   -0.3127   -1.1358 H       1  UNL1        0.0830
     47 H           4.9109    1.2470   -0.2789 H       1  UNL1        0.0830
     48 H           4.8213    2.4460   -2.5114 H       1  UNL1        0.0515
     49 H           4.7510    0.8871   -3.3403 H       1  UNL1        0.0515
     50 H           7.1284    1.0631   -1.7313 H       1  UNL1        0.1492
     51 H           8.9818    4.1302   -4.2053 H       1  UNL1        0.0626
     52 H          11.4407    3.8985   -4.4819 H       1  UNL1        0.0636
     53 H          13.5125    2.5024   -3.9790 H       1  UNL1        0.1538
     54 H          15.5784    1.4306   -3.5645 H       1  UNL1        0.1565
     55 H          17.7560    0.3631   -2.2026 H       1  UNL1        0.0359
     56 H          17.7609   -0.2181   -3.9039 H       1  UNL1        0.0359
     57 H          17.5520   -2.6297   -3.0380 H       1  UNL1        0.0302
     58 H          17.5819   -2.0316   -1.3971 H       1  UNL1        0.0302
     59 H          19.7178   -1.0675   -1.7292 H       1  UNL1        0.0696
     60 H          19.8474   -1.6732   -3.4076 H       1  UNL1        0.0696
     61 H          21.1304   -5.2576   -2.6380 H       1  UNL1        0.0655
     62 H          23.4788   -5.8613   -2.1441 H       1  UNL1        0.0633
     63 H          24.1485   -1.9594   -0.5015 H       1  UNL1        0.0648
     64 H          10.9254   -0.1929   -3.2501 H       1  UNL1        0.0636
     65 H           8.7383    0.0337   -2.9299 H       1  UNL1        0.0626
@<TRIPOS>UNITY_ATOM_ATTR
3 1
charge 1
@<TRIPOS>BOND
     1     1     2    1
     2     2     3    1
     3     3     4    1
     4     4     5    1
     5     3     6    1
     6     6     7    1
     7     7     8    1
     8     8     9   am
     9     9    10    2
    10     9    11    1
    11    11    12   ar
    12    12    13   ar
    13    13    14   ar
    14    14    15    1
    15    15    16    1
    16    16    17    2
    17    16    18    1
    18    18    19   am
    19    19    20    2
    20    19    21    1
    21    21    22    1
    22    22    23    1
    23    23    24    1
    24    24    25    1
    25    25    26   ar
    26    26    27   ar
    27    27    28   ar
    28    28    29    1
    29    28    30   ar
    30    30    31   ar
    31    25    31   ar
    32    31    32    1
    33    14    33   ar
    34    33    34   ar
    35    11    34   ar
    36     1    35    1
    37     1    36    1
    38     1    37    1
    39     2    38    1
    40     2    39    1
    41     3    40    1
    42     4    41    1
    43     4    42    1
    44     5    43    1
    45     5    44    1
    46     5    45    1
    47     6    46    1
    48     6    47    1
    49     7    48    1
    50     7    49    1
    51     8    50    1
    52    12    51    1
    53    13    52    1
    54    15    53    1
    55    18    54    1
    56    21    55    1
    57    21    56    1
    58    22    57    1
    59    22    58    1
    60    23    59    1
    61    23    60    1
    62    26    61    1
    63    27    62    1
    64    30    63    1
    65    33    64    1
    66    34    65    1
