REMARK  6 active torsions:
REMARK  status: ('A' for Active; 'I' for Inactive)
REMARK       I    between atoms: C_2  and  N_4 
REMARK    1  A    between atoms: N_4  and  C_5 
REMARK    2  A    between atoms: C_8  and  N_9 
REMARK       I    between atoms: N_9  and  C_10 
REMARK    3  A    between atoms: C_10  and  C_12 
REMARK    4  A    between atoms: C_12  and  S_13 
REMARK    5  A    between atoms: S_13  and  C_14 
REMARK    6  A    between atoms: C_23  and  N_24 
ROOT
ATOM      1  S   UNL d   1      11.476   1.927  -1.980  0.00  0.00    -0.098 SA
ENDROOT
BRANCH   1   2
ATOM      2  C   UNL d   1      10.797   1.389  -0.356  0.00  0.00     0.184 C 
BRANCH   2   3
ATOM      3  C   UNL d   1       9.304   1.369  -0.308  0.00  0.00     0.231 C 
ATOM      4  N   UNL d   1       8.746   0.993   0.956  0.00  0.00    -0.327 N 
ATOM      5  H   UNL d   1       9.311   0.706   1.747  0.00  0.00     0.169 HD
ATOM      6  O   UNL d   1       8.745   1.526  -1.326  0.00  0.00    -0.272 OA
BRANCH   4   7
ATOM      7  C   UNL d   1       7.337   0.853   1.075  0.00  0.00     0.034 A 
ATOM      8  C   UNL d   1       6.698   0.461   2.256  0.00  0.00     0.032 A 
ATOM      9  C   UNL d   1       5.289   0.290   2.258  0.00  0.00     0.032 A 
ATOM     10  C   UNL d   1       4.533   0.525   1.099  0.00  0.00     0.034 A 
ATOM     11  C   UNL d   1       5.177   0.932  -0.042  0.00  0.00     0.032 A 
ATOM     12  C   UNL d   1       6.533   1.107  -0.030  0.00  0.00     0.032 A 
BRANCH  10  13
ATOM     13  N   UNL d   1       3.130   0.433   1.057  0.00  0.00    -0.328 N 
ATOM     14  C   UNL d   1       2.462  -0.031  -0.072  0.00  0.00     0.218 C 
ATOM     15  C   UNL d   1       0.964   0.027   0.002  0.00  0.00     0.117 C 
ATOM     16  O   UNL d   1       3.001  -0.512  -1.068  0.00  0.00    -0.274 OA
ATOM     17  H   UNL d   1       2.619   0.701   1.885  0.00  0.00     0.169 HD
ENDBRANCH  10  13
ENDBRANCH   4   7
ENDBRANCH   2   3
ENDBRANCH   1   2
BRANCH   1  18
ATOM     18  C   UNL d   1      13.270   1.879  -1.805  0.00  0.00     0.129 C 
ATOM     19  N   UNL d   1      14.016   2.738  -2.541  0.00  0.00    -0.258 NA
ATOM     20  C   UNL d   1      15.431   2.515  -2.588  0.00  0.00     0.140 C 
ATOM     21  C   UNL d   1      16.420   2.298  -1.516  0.00  0.00     0.012 C 
ATOM     22  C   UNL d   1      15.776   1.547  -3.314  0.00  0.00     0.141 C 
ATOM     23  C   UNL d   1      17.813   2.043  -1.713  0.00  0.00    -0.001 C 
ATOM     24  C   UNL d   1      18.253   2.068  -2.992  0.00  0.00    -0.001 C 
ATOM     25  C   UNL d   1      17.195   1.906  -3.888  0.00  0.00     0.012 C 
ATOM     26  N   UNL d   1      15.087   0.465  -2.471  0.00  0.00    -0.254 NA
ATOM     27  C   UNL d   1      13.983   0.777  -1.439  0.00  0.00     0.136 C 
BRANCH  27  28
ATOM     28  N   UNL d   1      14.049   0.425   0.107  0.00  0.00    -0.266 NA
ATOM     29  C   UNL d   1      14.134   1.342   1.446  0.00  0.00     0.097 C 
ATOM     30  C   UNL d   1      14.359   0.316   2.677  0.00  0.00     0.015 C 
ATOM     31  C   UNL d   1      13.254  -0.742   2.851  0.00  0.00     0.002 C 
ATOM     32  C   UNL d   1      12.929  -1.367   1.500  0.00  0.00     0.015 C 
ATOM     33  C   UNL d   1      12.827  -0.332   0.417  0.00  0.00     0.097 C 
ENDBRANCH  27  28
ENDBRANCH   1  18
TORSDOF 6
