REMARK  6 active torsions:
REMARK  status: ('A' for Active; 'I' for Inactive)
REMARK    1  A    between atoms: C_2  and  C_3 
REMARK       I    between atoms: C_2  and  N_11 
REMARK    2  A    between atoms: C_4  and  C_5 
REMARK    3  A    between atoms: N_11  and  C_12 
REMARK    4  A    between atoms: C_12  and  C_13 
REMARK       I    between atoms: C_13  and  N_15 
REMARK    5  A    between atoms: N_15  and  N_16 
REMARK       I    between atoms: N_16  and  C_17 
REMARK    6  A    between atoms: C_17  and  C_19 
ROOT
ATOM      1  C   UNL d   1       4.939   0.541  -2.686  0.00  0.00     0.253 C 
ATOM      2  O   UNL d   1       4.150   0.746  -3.611  0.00  0.00    -0.270 OA
ATOM      3  N   UNL d   1       6.318   0.589  -2.869  0.00  0.00    -0.266 N 
ATOM      4  H   UNL d   1       7.010   0.409  -2.141  0.00  0.00     0.190 HD
ENDROOT
BRANCH   1   5
ATOM      5  C   UNL d   1       4.463   0.224  -1.247  0.00  0.00     0.227 C 
BRANCH   5   6
ATOM      6  N   UNL d   1       3.004   0.194  -1.100  0.00  0.00    -0.349 N 
ATOM      7  C   UNL d   1       2.250  -0.059   0.014  0.00  0.00     0.241 C 
ATOM      8  O   UNL d   1       1.020  -0.036  -0.041  0.00  0.00    -0.269 OA
ATOM      9  H   UNL d   1       2.454   0.380  -1.936  0.00  0.00     0.163 HD
BRANCH   7  10
ATOM     10  C   UNL d   1       2.971  -0.352   1.279  0.00  0.00     0.075 C 
ATOM     11  C   UNL d   1       2.324  -0.622   2.426  0.00  0.00     0.017 C 
BRANCH  11  12
ATOM     12  C   UNL d   1       3.028  -0.848   3.701  0.00  0.00    -0.036 A 
ATOM     13  C   UNL d   1       2.572  -1.816   4.606  0.00  0.00     0.011 A 
ATOM     14  C   UNL d   1       3.151  -1.931   5.875  0.00  0.00     0.001 A 
ATOM     15  C   UNL d   1       4.234  -1.127   6.228  0.00  0.00     0.000 A 
ATOM     16  C   UNL d   1       4.712  -0.179   5.330  0.00  0.00     0.001 A 
ATOM     17  C   UNL d   1       4.103  -0.031   4.081  0.00  0.00     0.011 A 
ENDBRANCH  11  12
ENDBRANCH   7  10
ENDBRANCH   5   6
ENDBRANCH   1   5
BRANCH   3  18
ATOM     18  N   UNL d   1       6.837   0.900  -4.161  0.00  0.00    -0.262 N 
ATOM     19  C   UNL d   1       8.218   0.892  -4.377  0.00  0.00     0.288 C 
ATOM     20  O   UNL d   1       9.015   0.659  -3.469  0.00  0.00    -0.264 OA
ATOM     21  H   UNL d   1       6.153   0.983  -4.912  0.00  0.00     0.190 HD
BRANCH  19  22
ATOM     22  C   UNL d   1       8.684   1.196  -5.787  0.00  0.00     0.125 A 
ATOM     23  C   UNL d   1       8.112   2.241  -6.509  0.00  0.00     0.037 A 
ATOM     24  C   UNL d   1       8.554   2.481  -7.813  0.00  0.00     0.004 A 
ATOM     25  C   UNL d   1       9.556   1.685  -8.356  0.00  0.00     0.019 A 
ATOM     26  C   UNL d   1      10.094   0.687  -7.560  0.00  0.00     0.117 A 
ATOM     27  N   UNL d   1       9.684   0.423  -6.293  0.00  0.00    -0.255 NA
ENDBRANCH  19  22
ENDBRANCH   3  18
TORSDOF 6
