@<TRIPOS>MOLECULE
*****
 51 54 0 0 0
SMALL
GASTEIGER

@<TRIPOS>ATOM
      1 O           0.9641   -0.0628   -0.0101 O.2     1  UNL1       -0.2668
      2 C           2.2005   -0.0456    0.0260 C.2     1  UNL1        0.2810
      3 N           2.9190    0.9991    0.6165 N.am    1  UNL1       -0.2017
      4 N           2.2095    2.0577    1.1535 N.2     1  UNL1       -0.1873
      5 C           2.8550    3.0873    1.6037 C.2     1  UNL1        0.0563
      6 C           2.1658    4.2630    2.2141 C.ar    1  UNL1        0.0360
      7 C           2.6672    5.5483    1.9546 C.ar    1  UNL1       -0.0496
      8 C           2.0708    6.6745    2.5401 C.ar    1  UNL1       -0.0609
      9 C           0.9826    6.5239    3.3990 C.ar    1  UNL1       -0.0583
     10 C           0.4803    5.2491    3.6667 C.ar    1  UNL1       -0.0195
     11 C           1.0704    4.1247    3.0757 C.ar    1  UNL1        0.1255
     12 O           0.6120    2.8809    3.4022 O.3     1  UNL1       -0.5061
     13 C           2.9515   -1.1007   -0.6261 C.ar    1  UNL1        0.1224
     14 C           2.6161   -1.7562   -1.7994 C.ar    1  UNL1       -0.0041
     15 C           3.5936   -2.7583   -2.0120 C.ar    1  UNL1        0.0932
     16 C           3.6830   -3.6556   -3.1651 C.ar    1  UNL1        0.0023
     17 C           3.7650   -3.1177   -4.4570 C.ar    1  UNL1       -0.0491
     18 C           3.8271   -3.9494   -5.5819 C.ar    1  UNL1       -0.0193
     19 C           3.7982   -5.3347   -5.4339 C.ar    1  UNL1        0.1210
     20 O           3.8548   -6.2438   -6.4543 O.3     1  UNL1       -0.4873
     21 C           4.0114   -5.7185   -7.7786 C.3     1  UNL1        0.1160
     22 C           4.1274   -6.8804   -8.7341 C.ar    1  UNL1        0.0079
     23 C           3.0909   -7.8330   -8.7615 C.ar    1  UNL1       -0.0540
     24 C           3.2007   -8.9885   -9.5346 C.ar    1  UNL1       -0.0613
     25 C           4.3125   -9.1748  -10.3502 C.ar    1  UNL1       -0.0604
     26 C           5.3240   -8.2157  -10.3754 C.ar    1  UNL1       -0.0430
     27 C           5.2356   -7.0746   -9.5724 C.ar    1  UNL1        0.0474
     28 CL          6.5337   -5.9376   -9.6748 Cl      1  UNL1       -0.0831
     29 C           3.7000   -5.8785   -4.1497 C.ar    1  UNL1       -0.0193
     30 C           3.6479   -5.0467   -3.0200 C.ar    1  UNL1       -0.0491
     31 N           4.4724   -2.7662   -0.9977 N.ar    1  UNL1       -0.1732
     32 N           4.0533   -1.7766   -0.1758 N.ar    1  UNL1       -0.2719
     33 H           3.9259    1.0675    0.5440 H       1  UNL1        0.1776
     34 H           3.9554    3.1567    1.5480 H       1  UNL1        0.0852
     35 H           3.5118    5.6926    1.2864 H       1  UNL1        0.0625
     36 H           2.4539    7.6717    2.3299 H       1  UNL1        0.0618
     37 H           0.5309    7.3980    3.8656 H       1  UNL1        0.0619
     38 H          -0.3560    5.1492    4.3535 H       1  UNL1        0.0654
     39 H          -0.2303    2.9477    3.8775 H       1  UNL1        0.2922
     40 H           1.7597   -1.5350   -2.4220 H       1  UNL1        0.0662
     41 H           3.7918   -2.0406   -4.6034 H       1  UNL1        0.0625
     42 H           3.8979   -3.4778   -6.5562 H       1  UNL1        0.0654
     43 H           4.9027   -5.0866   -7.8110 H       1  UNL1        0.0748
     44 H           3.1347   -5.1204   -8.0569 H       1  UNL1        0.0748
     45 H           2.2010   -7.6855   -8.1506 H       1  UNL1        0.0622
     46 H           2.4261   -9.7498   -9.4846 H       1  UNL1        0.0618
     47 H           4.3921  -10.0652  -10.9677 H       1  UNL1        0.0618
     48 H           6.1912   -8.3697  -11.0126 H       1  UNL1        0.0632
     49 H           3.6641   -6.9592   -4.0260 H       1  UNL1        0.0654
     50 H           3.5650   -5.4934   -2.0322 H       1  UNL1        0.0625
     51 H           4.5484   -1.6601    0.7015 H       1  UNL1        0.1891
@<TRIPOS>BOND
     1     1     2    2
     2     2     3   am
     3     3     4    1
     4     4     5    2
     5     5     6    1
     6     6     7   ar
     7     7     8   ar
     8     8     9   ar
     9     9    10   ar
    10    10    11   ar
    11     6    11   ar
    12    11    12    1
    13     2    13    1
    14    13    14   ar
    15    14    15   ar
    16    15    16    1
    17    16    17   ar
    18    17    18   ar
    19    18    19   ar
    20    19    20    1
    21    20    21    1
    22    21    22    1
    23    22    23   ar
    24    23    24   ar
    25    24    25   ar
    26    25    26   ar
    27    26    27   ar
    28    22    27   ar
    29    27    28    1
    30    19    29   ar
    31    29    30   ar
    32    16    30   ar
    33    15    31   ar
    34    31    32   ar
    35    13    32   ar
    36     3    33    1
    37     5    34    1
    38     7    35    1
    39     8    36    1
    40     9    37    1
    41    10    38    1
    42    12    39    1
    43    14    40    1
    44    17    41    1
    45    18    42    1
    46    21    43    1
    47    21    44    1
    48    23    45    1
    49    24    46    1
    50    25    47    1
    51    26    48    1
    52    29    49    1
    53    30    50    1
    54    32    51    1
