@<TRIPOS>MOLECULE
*****
 38 38 0 0 0
SMALL
GASTEIGER

@<TRIPOS>ATOM
      1 C           1.1470   -0.0109   -0.0664 C.3     1  UNL1       -0.0468
      2 C           2.6840   -0.0380   -0.0343 C.3     1  UNL1        0.0190
      3 C           3.1270    0.1501    1.4190 C.3     1  UNL1       -0.0468
      4 N           3.2545   -1.2708   -0.6167 N.am    1  UNL1       -0.2959
      5 C           4.6161   -1.4556   -0.7753 C.2     1  UNL1        0.3162
      6 O           5.4596   -0.6209   -0.4368 O.2     1  UNL1       -0.2513
      7 N           4.9914   -2.6736   -1.3198 N.am    1  UNL1       -0.2181
      8 N           6.3910   -2.9539   -1.4985 N.am    1  UNL1       -0.2301
      9 C           6.8062   -4.1736   -2.0440 C.2     1  UNL1        0.2696
     10 O           5.9759   -4.9939   -2.4435 O.2     1  UNL1       -0.2702
     11 C           8.3697   -4.4237   -2.1183 C.3     1  UNL1        0.1741
     12 C           8.9218   -4.2642   -0.7020 C.3     1  UNL1       -0.0190
     13 O           8.6553   -5.7272   -2.7077 O.3     1  UNL1       -0.4798
     14 C           9.9553   -6.1223   -2.9322 C.ar    1  UNL1        0.1230
     15 C          10.9362   -6.1447   -1.9388 C.ar    1  UNL1       -0.0198
     16 C          12.2466   -6.5579   -2.1888 C.ar    1  UNL1       -0.0569
     17 C          12.5761   -7.0779   -3.4287 C.ar    1  UNL1       -0.0432
     18 C          11.5867   -7.1688   -4.4065 C.ar    1  UNL1        0.0444
     19 CL         11.9942   -7.8829   -5.9213 Cl      1  UNL1       -0.0834
     20 C          10.2823   -6.6971   -4.1672 C.ar    1  UNL1       -0.0016
     21 H           0.7649    0.9249    0.3663 H       1  UNL1        0.0247
     22 H           0.7190   -0.8338    0.5173 H       1  UNL1        0.0247
     23 H           0.7566   -0.0814   -1.0859 H       1  UNL1        0.0247
     24 H           3.0528    0.8067   -0.6303 H       1  UNL1        0.0493
     25 H           2.7763   -0.6809    2.0403 H       1  UNL1        0.0247
     26 H           2.7279    1.0814    1.8367 H       1  UNL1        0.0247
     27 H           4.2145    0.1957    1.5091 H       1  UNL1        0.0247
     28 H           2.6175   -1.9662   -0.9785 H       1  UNL1        0.1505
     29 H           4.3433   -3.3821   -1.6505 H       1  UNL1        0.1744
     30 H           7.0186   -2.2383   -1.1331 H       1  UNL1        0.1729
     31 H           8.7883   -3.6540   -2.7800 H       1  UNL1        0.0829
     32 H           8.6415   -5.1270   -0.0865 H       1  UNL1        0.0270
     33 H           8.5872   -3.3540   -0.2043 H       1  UNL1        0.0270
     34 H          10.0084   -4.1669   -0.7069 H       1  UNL1        0.0270
     35 H          10.7148   -5.9139   -0.9082 H       1  UNL1        0.0654
     36 H          12.9857   -6.5022   -1.3934 H       1  UNL1        0.0619
     37 H          13.5852   -7.4406   -3.6062 H       1  UNL1        0.0632
     38 H           9.5269   -6.8068   -4.9411 H       1  UNL1        0.0669
@<TRIPOS>BOND
     1     1     2    1
     2     2     3    1
     3     2     4    1
     4     4     5   am
     5     5     6    2
     6     5     7   am
     7     7     8    1
     8     8     9   am
     9     9    10    2
    10     9    11    1
    11    11    12    1
    12    11    13    1
    13    13    14    1
    14    14    15   ar
    15    15    16   ar
    16    16    17   ar
    17    17    18   ar
    18    18    19    1
    19    18    20   ar
    20    14    20   ar
    21     1    21    1
    22     1    22    1
    23     1    23    1
    24     2    24    1
    25     3    25    1
    26     3    26    1
    27     3    27    1
    28     4    28    1
    29     7    29    1
    30     8    30    1
    31    11    31    1
    32    12    32    1
    33    12    33    1
    34    12    34    1
    35    15    35    1
    36    16    36    1
    37    17    37    1
    38    20    38    1
