REMARK  6 active torsions:
REMARK  status: ('A' for Active; 'I' for Inactive)
REMARK    1  A    between atoms: C_5  and  C_6 
REMARK    2  A    between atoms: C_14  and  C_15 
REMARK       I    between atoms: C_15  and  N_17 
REMARK    3  A    between atoms: N_17  and  C_18 
REMARK    4  A    between atoms: C_21  and  S_22 
REMARK    5  A    between atoms: S_22  and  C_23 
REMARK    6  A    between atoms: C_23  and  C_24 
ROOT
ATOM      1  C   UNL d   1       0.348  -2.713  -0.085  0.00  0.00     0.261 C 
ATOM      2  O   UNL d   1      -0.549  -3.556  -0.193  0.00  0.00    -0.267 OA
ATOM      3  N   UNL d   1       1.685  -3.075   0.022  0.00  0.00    -0.323 N 
ATOM      4  H   UNL d   1       2.384  -2.393   0.271  0.00  0.00     0.169 HD
ENDROOT
BRANCH   1   5
ATOM      5  C   UNL d   1      -0.004  -1.304  -0.028  0.00  0.00     0.095 A 
ATOM      6  C   UNL d   1      -1.341  -0.768   0.012  0.00  0.00     0.116 A 
ATOM      7  N   UNL d   1      -1.319   0.572   0.034  0.00  0.00    -0.127 NA
ATOM      8  O   UNL d   1       0.009   0.933   0.014  0.00  0.00    -0.217 OA
ATOM      9  C   UNL d   1       0.792  -0.177  -0.007  0.00  0.00     0.093 A 
ATOM     10  C   UNL d   1       2.242   0.075  -0.004  0.00  0.00     0.080 C 
BRANCH   6  11
ATOM     11  C   UNL d   1      -2.606  -1.506   0.052  0.00  0.00     0.039 A 
ATOM     12  C   UNL d   1      -2.885  -2.389   1.116  0.00  0.00     0.048 A 
ATOM     13 CL   UNL d   1      -1.857  -2.544   2.509  0.00  0.00    -0.083 Cl
ATOM     14  C   UNL d   1      -4.032  -3.192   1.101  0.00  0.00     0.025 A 
ATOM     15  C   UNL d   1      -4.944  -3.094   0.055  0.00  0.00     0.003 A 
ATOM     16  C   UNL d   1      -4.707  -2.197  -0.984  0.00  0.00     0.025 A 
ATOM     17  C   UNL d   1      -3.544  -1.412  -0.993  0.00  0.00     0.048 A 
ATOM     18 CL   UNL d   1      -3.330  -0.370  -2.361  0.00  0.00    -0.083 Cl
ENDBRANCH   6  11
ENDBRANCH   1   5
BRANCH   3  19
ATOM     19  C   UNL d   1       2.110  -4.420  -0.065  0.00  0.00     0.035 A 
ATOM     20  C   UNL d   1       3.196  -4.870   0.681  0.00  0.00     0.031 A 
ATOM     21  C   UNL d   1       3.620  -6.201   0.548  0.00  0.00     0.021 A 
ATOM     22  C   UNL d   1       2.942  -7.102  -0.290  0.00  0.00     0.001 A 
ATOM     23  C   UNL d   1       1.883  -6.631  -1.054  0.00  0.00     0.021 A 
ATOM     24  C   UNL d   1       1.471  -5.306  -0.937  0.00  0.00     0.031 A 
BRANCH  22  25
ATOM     25  S   UNL d   1       3.469  -8.798  -0.249  0.00  0.00    -0.125 SA
BRANCH  25  26
ATOM     26  C   UNL d   1       2.336  -9.690  -1.400  0.00  0.00     0.119 C 
BRANCH  26  27
ATOM     27  C   UNL d   1       2.667 -11.162  -1.445  0.00  0.00    -0.031 A 
ATOM     28  C   UNL d   1       3.989 -11.620  -1.509  0.00  0.00     0.011 A 
ATOM     29  C   UNL d   1       4.262 -12.981  -1.501  0.00  0.00     0.020 A 
ATOM     30  C   UNL d   1       3.194 -13.858  -1.473  0.00  0.00     0.116 A 
ATOM     31  N   UNL d   1       1.902 -13.465  -1.467  0.00  0.00    -0.273 NA
ATOM     32  C   UNL d   1       1.668 -12.131  -1.455  0.00  0.00     0.124 A 
ENDBRANCH  26  27
ENDBRANCH  25  26
ENDBRANCH  22  25
ENDBRANCH   3  19
TORSDOF 6
