REMARK  8 active torsions:
REMARK  status: ('A' for Active; 'I' for Inactive)
REMARK    1  A    between atoms: C_2  and  C_3 
REMARK       I    between atoms: C_2  and  N_13 
REMARK    2  A    between atoms: C_3  and  C_4 
REMARK    3  A    between atoms: C_4  and  C_5 
REMARK    4  A    between atoms: C_5  and  O_6 
REMARK    5  A    between atoms: O_6  and  C_7 
REMARK    6  A    between atoms: N_13  and  N_14 
REMARK       I    between atoms: N_14  and  C_15 
REMARK       I    between atoms: C_15  and  N_17 
REMARK    7  A    between atoms: N_17  and  C_18 
REMARK    8  A    between atoms: C_18  and  C_19 
ROOT
ATOM      1  O   UNL d   1       1.115  -0.024   0.200  0.00  0.00    -0.272 OA
ATOM      2  C   UNL d   1       2.343   0.027   0.133  0.00  0.00     0.236 C 
ATOM      3  N   UNL d   1       3.106  -0.642   1.064  0.00  0.00    -0.266 N 
ATOM      4  H   UNL d   1       2.608  -1.162   1.789  0.00  0.00     0.190 HD
ENDROOT
BRANCH   2   5
ATOM      5  C   UNL d   1       3.055   0.812  -0.958  0.00  0.00     0.106 C 
BRANCH   5   6
ATOM      6  C   UNL d   1       2.076   1.517  -1.913  0.00  0.00     0.036 C 
BRANCH   6   7
ATOM      7  C   UNL d   1       2.817   2.307  -2.993  0.00  0.00     0.176 C 
BRANCH   7   8
ATOM      8  O   UNL d   1       1.874   3.006  -3.818  0.00  0.00    -0.351 OA
BRANCH   8   9
ATOM      9  C   UNL d   1       2.439   3.656  -4.887  0.00  0.00     0.068 A 
ATOM     10  C   UNL d   1       1.931   4.915  -5.218  0.00  0.00     0.037 A 
ATOM     11  C   UNL d   1       2.420   5.599  -6.338  0.00  0.00     0.003 A 
ATOM     12  C   UNL d   1       3.454   5.051  -7.096  0.00  0.00     0.000 A 
ATOM     13  C   UNL d   1       3.948   3.790  -6.779  0.00  0.00     0.003 A 
ATOM     14  C   UNL d   1       3.425   3.085  -5.694  0.00  0.00     0.037 A 
ENDBRANCH   8   9
ENDBRANCH   7   8
ENDBRANCH   6   7
ENDBRANCH   5   6
ENDBRANCH   2   5
BRANCH   3  15
ATOM     15  N   UNL d   1       4.510  -0.697   1.123  0.00  0.00    -0.249 N 
ATOM     16  C   UNL d   1       5.101  -1.426   2.147  0.00  0.00     0.334 C 
ATOM     17  O   UNL d   1       4.455  -2.028   3.003  0.00  0.00    -0.246 OA
ATOM     18  N   UNL d   1       6.473  -1.404   2.109  0.00  0.00    -0.341 N 
ATOM     19  H   UNL d   1       6.931  -0.938   1.347  0.00  0.00     0.164 HD
ATOM     20  H   UNL d   1       5.057  -0.191   0.442  0.00  0.00     0.192 HD
BRANCH  18  21
ATOM     21  C   UNL d   1       7.287  -2.102   3.092  0.00  0.00     0.129 C 
BRANCH  21  22
ATOM     22  C   UNL d   1       8.770  -1.943   2.881  0.00  0.00     0.003 A 
ATOM     23  C   UNL d   1       9.411  -2.277   1.555  0.00  0.00     0.007 A 
ATOM     24  C   UNL d   1       9.385  -0.849   2.037  0.00  0.00     0.007 A 
ENDBRANCH  21  22
ENDBRANCH  18  21
ENDBRANCH   3  15
TORSDOF 8
