REMARK  10 active torsions:
REMARK  status: ('A' for Active; 'I' for Inactive)
REMARK    1  A    between atoms: O_2  and  C_3 
REMARK    2  A    between atoms: C_5  and  C_6 
REMARK    3  A    between atoms: C_6  and  O_8 
REMARK    4  A    between atoms: C_9  and  O_8 
REMARK    5  A    between atoms: C_9  and  C_11 
REMARK    6  A    between atoms: C_11  and  C_13 
REMARK    7  A    between atoms: C_24  and  O_25 
REMARK    8  A    between atoms: O_25  and  C_26 
REMARK    9  A    between atoms: C_26  and  C_27 
REMARK       I    between atoms: C_27  and  N_29 
REMARK   10  A    between atoms: N_29  and  C_30 
ROOT
ATOM      1  C   UNL d   1       5.322   4.479  -7.895  0.00  0.00     0.102 A 
ATOM      2  C   UNL d   1       6.142   3.307  -7.787  0.00  0.00     0.057 A 
ATOM      3  C   UNL d   1       6.780   3.001  -6.587  0.00  0.00     0.042 A 
ATOM      4  C   UNL d   1       6.662   3.967  -5.620  0.00  0.00     0.020 A 
ATOM      5  C   UNL d   1       5.936   5.117  -5.681  0.00  0.00     0.040 A 
ATOM      6  C   UNL d   1       5.198   5.363  -6.794  0.00  0.00     0.102 A 
ENDROOT
BRANCH   3   7
ATOM      7  C   UNL d   1       7.483   1.692  -6.314  0.00  0.00     0.294 C 
ATOM      8  O   UNL d   1       7.546   0.860  -7.190  0.00  0.00    -0.259 OA
BRANCH   7   9
ATOM      9  O   UNL d   1       8.110   1.432  -5.116  0.00  0.00    -0.304 OA
BRANCH   9  10
ATOM     10  C   UNL d   1       8.254   2.204  -3.900  0.00  0.00     0.202 C 
ATOM     11  C   UNL d   1       6.902   2.336  -3.133  0.00  0.00     0.048 C 
BRANCH  10  12
ATOM     12  C   UNL d   1       9.059   3.525  -4.094  0.00  0.00     0.187 C 
ATOM     13  O   UNL d   1       8.748   4.553  -3.498  0.00  0.00    -0.290 OA
BRANCH  12  14
ATOM     14  C   UNL d   1      10.178   3.605  -5.060  0.00  0.00     0.020 A 
ATOM     15  C   UNL d   1      10.515   4.773  -5.622  0.00  0.00     0.002 A 
ATOM     16  C   UNL d   1       9.938   6.080  -5.644  0.00  0.00     0.014 A 
ATOM     17  C   UNL d   1      11.822   4.519  -6.257  0.00  0.00     0.039 A 
ATOM     18  C   UNL d   1      10.558   7.056  -6.318  0.00  0.00     0.001 A 
ATOM     19  C   UNL d   1      11.862   6.848  -6.918  0.00  0.00     0.002 A 
ATOM     20  C   UNL d   1      12.498   5.659  -6.918  0.00  0.00     0.030 A 
ATOM     21  N   UNL d   1      12.206   3.309  -6.095  0.00  0.00    -0.385 N 
ATOM     22  C   UNL d   1      11.168   2.532  -5.357  0.00  0.00     0.163 A 
ATOM     23  H   UNL d   1      13.115   2.976  -6.417  0.00  0.00     0.160 HD
ENDBRANCH  12  14
ENDBRANCH  10  12
ENDBRANCH   9  10
ENDBRANCH   7   9
ENDBRANCH   3   7
BRANCH   1  24
ATOM     24  O   UNL d   1       4.560   4.489  -9.040  0.00  0.00    -0.353 OA
ATOM     25  C   UNL d   1       4.636   5.642  -9.866  0.00  0.00     0.210 C 
ENDBRANCH   1  24
BRANCH   6  26
ATOM     26  O   UNL d   1       4.415   6.433  -6.475  0.00  0.00    -0.339 OA
BRANCH  26  27
ATOM     27  C   UNL d   1       3.743   6.976  -7.546  0.00  0.00     0.278 C 
BRANCH  27  28
ATOM     28  C   UNL d   1       2.938   8.230  -7.427  0.00  0.00     0.246 C 
ATOM     29  O   UNL d   1       2.993   8.920  -6.407  0.00  0.00    -0.271 OA
ATOM     30  N   UNL d   1       2.214   8.532  -8.586  0.00  0.00    -0.325 N 
ATOM     31  H   UNL d   1       2.046   7.839  -9.311  0.00  0.00     0.169 HD
BRANCH  30  32
ATOM     32  C   UNL d   1       1.540   9.757  -8.686  0.00  0.00     0.035 A 
ATOM     33  C   UNL d   1       0.269   9.846  -9.253  0.00  0.00     0.032 A 
ATOM     34  C   UNL d   1      -0.368  11.092  -9.290  0.00  0.00     0.044 A 
ATOM     35  C   UNL d   1       0.258  12.210  -8.739  0.00  0.00     0.116 A 
ATOM     36  F   UNL d   1      -0.381  13.385  -8.713  0.00  0.00    -0.206 F 
ATOM     37  C   UNL d   1       1.531  12.127  -8.201  0.00  0.00     0.044 A 
ATOM     38  C   UNL d   1       2.173  10.902  -8.190  0.00  0.00     0.032 A 
ENDBRANCH  30  32
ENDBRANCH  27  28
ENDBRANCH  26  27
ENDBRANCH   6  26
TORSDOF 10
