REMARK  11 active torsions:
REMARK  status: ('A' for Active; 'I' for Inactive)
REMARK    1  A    between atoms: C_2  and  N_3 
REMARK    2  A    between atoms: N_3  and  C_4 
REMARK    3  A    between atoms: N_3  and  C_6 
REMARK    4  A    between atoms: C_9  and  C_10 
REMARK    5  A    between atoms: N_11  and  N_12 
REMARK       I    between atoms: N_12  and  C_13 
REMARK    6  A    between atoms: C_13  and  C_15 
REMARK    7  A    between atoms: C_15  and  C_16 
REMARK    8  A    between atoms: C_16  and  C_17 
REMARK    9  A    between atoms: C_17  and  N_18 
REMARK   10  A    between atoms: N_18  and  C_19 
REMARK   11  A    between atoms: C_25  and  O_26 
ROOT
ATOM      1  C   UNL d   1       8.771   0.014   2.384  0.00  0.00     0.152 C 
ATOM      2  N   UNL d   1       9.272  -0.746   3.313  0.00  0.00    -0.184 NA
ENDROOT
BRANCH   2   3
ATOM      3  N   UNL d   1      10.635  -0.757   3.539  0.00  0.00    -0.247 N 
ATOM      4  C   UNL d   1      11.115  -1.601   4.549  0.00  0.00     0.237 C 
ATOM      5  O   UNL d   1      10.382  -2.313   5.225  0.00  0.00    -0.272 OA
ATOM      6  H   UNL d   1      11.250  -0.174   2.982  0.00  0.00     0.192 HD
BRANCH   4   7
ATOM      7  C   UNL d   1      12.634  -1.586   4.773  0.00  0.00     0.106 C 
BRANCH   7   8
ATOM      8  C   UNL d   1      13.037  -2.558   5.906  0.00  0.00     0.029 C 
BRANCH   8   9
ATOM      9  C   UNL d   1      14.544  -2.576   6.167  0.00  0.00     0.120 C 
BRANCH   9  10
ATOM     10  N   UNL d   1      14.898  -3.595   7.143  0.00  0.00    -0.390 N 
ATOM     11  H   UNL d   1      14.156  -4.048   7.671  0.00  0.00     0.159 HD
BRANCH  10  12
ATOM     12  C   UNL d   1      16.172  -3.696   7.683  0.00  0.00     0.027 A 
ATOM     13  C   UNL d   1      16.665  -4.962   8.027  0.00  0.00     0.029 A 
ATOM     14  C   UNL d   1      17.934  -5.120   8.596  0.00  0.00     0.002 A 
ATOM     15  C   UNL d   1      18.756  -4.012   8.781  0.00  0.00     0.000 A 
ATOM     16  C   UNL d   1      18.294  -2.749   8.427  0.00  0.00     0.002 A 
ATOM     17  C   UNL d   1      17.014  -2.597   7.881  0.00  0.00     0.029 A 
ENDBRANCH  10  12
ENDBRANCH   9  10
ENDBRANCH   8   9
ENDBRANCH   7   8
ENDBRANCH   4   7
ENDBRANCH   2   3
BRANCH   1  18
ATOM     18  C   UNL d   1       7.289   0.026   2.123  0.00  0.00     0.016 A 
ATOM     19  C   UNL d   1       6.752   0.837   1.115  0.00  0.00     0.018 A 
ATOM     20  C   UNL d   1       5.356   0.838   0.847  0.00  0.00     0.030 A 
ATOM     21  C   UNL d   1       4.442   0.047   1.570  0.00  0.00     0.032 A 
ATOM     22  C   UNL d   1       5.010  -0.749   2.582  0.00  0.00     0.066 A 
ATOM     23  C   UNL d   1       6.397  -0.762   2.854  0.00  0.00     0.079 A 
BRANCH  21  24
ATOM     24  N   UNL d   1       3.046   0.063   1.304  0.00  0.00    -0.382 N 
BRANCH  24  25
ATOM     25  C   UNL d   1       2.648   0.007  -0.122  0.00  0.00     0.118 C 
ATOM     26  C   UNL d   1       1.171  -0.019  -0.478  0.00  0.00     0.026 C 
ENDBRANCH  24  25
BRANCH  24  27
ATOM     27  C   UNL d   1       2.160   0.071   2.492  0.00  0.00     0.118 C 
ATOM     28  C   UNL d   1       0.654   0.079   2.294  0.00  0.00     0.026 C 
ENDBRANCH  24  27
ENDBRANCH  21  24
BRANCH  23  29
ATOM     29  O   UNL d   1       6.799  -1.593   3.869  0.00  0.00    -0.360 OA
ATOM     30  H   UNL d   1       7.777  -1.521   3.972  0.00  0.00     0.217 HD
ENDBRANCH  23  29
ENDBRANCH   1  18
TORSDOF 11
