@<TRIPOS>MOLECULE
*****
 60 62 0 0 0
SMALL
GASTEIGER

@<TRIPOS>ATOM
      1 C           2.3178   -0.4461    1.0582 C.3     1  UNL1       -0.0394
      2 C           0.9134   -0.1531    0.5262 C.ar    1  UNL1       -0.0450
      3 C           0.1484   -1.3026    0.2956 C.ar    1  UNL1       -0.0585
      4 C          -1.2214   -1.2553    0.0660 C.ar    1  UNL1       -0.0615
      5 C          -1.8716   -0.0407   -0.0058 C.ar    1  UNL1       -0.0614
      6 C          -1.1137    1.1207   -0.0065 C.ar    1  UNL1       -0.0561
      7 C           0.3014    1.1003    0.2100 C.ar    1  UNL1       -0.0149
      8 C           1.0211    2.4680    0.0812 C.3     1  UNL1        0.1326
      9 C           0.6280    3.2065    1.3835 C.2     1  UNL1        0.2389
     10 O           1.4251    3.2331    2.3523 O.2     1  UNL1       -0.2734
     11 N          -0.6421    3.7568    1.4921 N.am    1  UNL1       -0.3087
     12 C          -1.0672    4.4939    2.6834 C.3     1  UNL1        0.0262
     13 C          -0.7723    3.6977    3.9653 C.3     1  UNL1       -0.0442
     14 C          -0.3379    5.8390    2.6849 C.3     1  UNL1       -0.0442
     15 C          -2.5834    4.7541    2.6413 C.3     1  UNL1       -0.0442
     16 N           2.4729    2.4249   -0.3448 N.am    1  UNL1       -0.2513
     17 C           3.2127    1.2387   -0.6535 C.2     1  UNL1        0.2520
     18 O           4.2849    1.0900   -0.0339 O.2     1  UNL1       -0.2696
     19 C           2.6575    0.0610   -1.6406 C.ar    1  UNL1        0.0437
     20 C           3.0279   -1.3687   -1.5590 C.ar    1  UNL1       -0.0492
     21 C           2.2783   -2.4196   -2.1363 C.ar    1  UNL1       -0.0546
     22 C           1.1807   -2.0726   -2.9040 C.ar    1  UNL1        0.0156
     23 C           0.8006   -0.7089   -2.9853 C.ar    1  UNL1        0.2739
     24 N          -0.4045   -0.3473   -3.7291 N.pl3   1  UNL1        0.0796
     25 O          -0.9241   -1.2004   -4.4382 O.2     1  UNL1        0.0414
     26 O          -0.8080    0.8355   -3.6229 O.co2   1  UNL1       -0.5760
     27 C           1.5128    0.3376   -2.3666 C.ar    1  UNL1        0.0277
     28 C           3.3648    3.5630   -0.1608 C.ar    1  UNL1        0.0391
     29 C           4.5732    3.5058   -0.8908 C.ar    1  UNL1       -0.0401
     30 C           5.6200    4.3790   -0.6757 C.ar    1  UNL1       -0.0586
     31 C           5.4303    5.4420    0.1872 C.ar    1  UNL1       -0.0433
     32 C           4.2464    5.5471    0.9061 C.ar    1  UNL1        0.0427
     33 CL          4.0421    6.7994    2.0720 Cl      1  UNL1       -0.0835
     34 C           3.2129    4.6324    0.7163 C.ar    1  UNL1       -0.0219
     35 H           2.4778   -1.4959    1.2996 H       1  UNL1        0.0278
     36 H           2.5840    0.2892    1.8011 H       1  UNL1        0.0278
     37 H           3.2028   -0.4800    0.4415 H       1  UNL1        0.0278
     38 H           0.6489   -2.2662    0.2711 H       1  UNL1        0.0620
     39 H          -1.7723   -2.1824   -0.0352 H       1  UNL1        0.0618
     40 H          -2.9529    0.0037   -0.1077 H       1  UNL1        0.0618
     41 H          -1.6769    2.0355   -0.1827 H       1  UNL1        0.0621
     42 H           0.5820    3.0488   -0.7512 H       1  UNL1        0.0651
     43 H          -1.3504    3.6019    0.7866 H       1  UNL1        0.1493
     44 H           0.2871    3.4836    4.1083 H       1  UNL1        0.0250
     45 H          -1.2886    2.7308    3.9500 H       1  UNL1        0.0250
     46 H          -1.0706    4.2566    4.8537 H       1  UNL1        0.0250
     47 H           0.7468    5.7040    2.6957 H       1  UNL1        0.0250
     48 H          -0.6085    6.4364    3.5580 H       1  UNL1        0.0250
     49 H          -0.5792    6.4093    1.7788 H       1  UNL1        0.0250
     50 H          -3.1497    3.8149    2.6376 H       1  UNL1        0.0250
     51 H          -2.8752    5.3173    1.7482 H       1  UNL1        0.0250
     52 H          -2.8981    5.3293    3.5206 H       1  UNL1        0.0250
     53 H           3.7759   -1.7586   -0.8558 H       1  UNL1        0.0625
     54 H           2.5161   -3.4741   -1.9314 H       1  UNL1        0.0620
     55 H           0.6264   -2.8581   -3.4138 H       1  UNL1        0.0685
     56 H           1.0621    1.3261   -2.3101 H       1  UNL1        0.0693
     57 H           4.7506    2.6955   -1.5984 H       1  UNL1        0.0636
     58 H           6.5656    4.1965   -1.1737 H       1  UNL1        0.0619
     59 H           6.2028    6.1910    0.2832 H       1  UNL1        0.0632
     60 H           2.3594    4.7935    1.3458 H       1  UNL1        0.0651
@<TRIPOS>UNITY_ATOM_ATTR
24 1
charge 1
26 1
charge -1
@<TRIPOS>BOND
     1     1     2    1
     2     2     3   ar
     3     3     4   ar
     4     4     5   ar
     5     5     6   ar
     6     6     7   ar
     7     2     7   ar
     8     7     8    1
     9     8     9    1
    10     9    10    2
    11     9    11   am
    12    11    12    1
    13    12    13    1
    14    12    14    1
    15    12    15    1
    16     8    16    1
    17    16    17   am
    18    17    18    2
    19    17    19    1
    20    19    20   ar
    21    20    21   ar
    22    21    22   ar
    23    22    23   ar
    24    23    24    1
    25    24    25    2
    26    24    26    1
    27    23    27   ar
    28    19    27   ar
    29    16    28    1
    30    28    29   ar
    31    29    30   ar
    32    30    31   ar
    33    31    32   ar
    34    32    33    1
    35    32    34   ar
    36    28    34   ar
    37     1    35    1
    38     1    36    1
    39     1    37    1
    40     3    38    1
    41     4    39    1
    42     5    40    1
    43     6    41    1
    44     8    42    1
    45    11    43    1
    46    13    44    1
    47    13    45    1
    48    13    46    1
    49    14    47    1
    50    14    48    1
    51    14    49    1
    52    15    50    1
    53    15    51    1
    54    15    52    1
    55    20    53    1
    56    21    54    1
    57    22    55    1
    58    27    56    1
    59    29    57    1
    60    30    58    1
    61    31    59    1
    62    34    60    1
