@<TRIPOS>MOLECULE
*****
 37 38 0 0 0
SMALL
GASTEIGER

@<TRIPOS>ATOM
      1 C           2.4929   -0.1009   -0.0127 C.3     1  UNL1       -0.0333
      2 C           0.9863   -0.0192    0.0015 C.ar    1  UNL1        0.0273
      3 C           0.2223   -1.2256    0.0049 C.ar    1  UNL1       -0.0402
      4 C          -1.1968   -1.2374    0.0023 C.ar    1  UNL1        0.0388
      5 C          -1.9494   -2.5636    0.0096 C.2     1  UNL1        0.2602
      6 O          -1.3098   -3.6215    0.0188 O.2     1  UNL1       -0.2687
      7 N          -3.3455   -2.5565    0.0081 N.am    1  UNL1       -0.2292
      8 N          -4.0885   -3.7927    0.0086 N.am    1  UNL1       -0.2180
      9 C          -5.4756   -3.7519   -0.0138 C.2     1  UNL1        0.3160
     10 O          -6.0849   -2.6805   -0.0175 O.2     1  UNL1       -0.2513
     11 N          -6.1100   -4.9925   -0.0345 N.am    1  UNL1       -0.2980
     12 C          -7.5621   -5.0456   -0.0414 C.3     1  UNL1        0.0159
     13 C          -8.2941   -6.3537    0.1297 C.3     1  UNL1       -0.0254
     14 C          -8.4289   -7.2826   -1.0737 C.3     1  UNL1       -0.0485
     15 C          -7.9466   -7.8288    0.2324 C.3     1  UNL1       -0.0485
     16 C          -1.8448    0.0017   -0.0059 C.ar    1  UNL1       -0.0432
     17 C          -1.1122    1.2058   -0.0010 C.ar    1  UNL1        0.0166
     18 C           0.2954    1.2091    0.0020 C.ar    1  UNL1        0.2760
     19 N           0.9820    2.5305   -0.0007 N.pl3   1  UNL1        0.0799
     20 O           0.2674    3.5432   -0.0060 O.2     1  UNL1        0.0414
     21 O           2.2189    2.5710    0.0018 O.co2   1  UNL1       -0.5760
     22 H           2.8564   -1.1317   -0.0040 H       1  UNL1        0.0280
     23 H           2.9107    0.3913    0.8734 H       1  UNL1        0.0280
     24 H           2.8871    0.3707   -0.9207 H       1  UNL1        0.0280
     25 H           0.7542   -2.1797    0.0071 H       1  UNL1        0.0630
     26 H          -3.9235   -1.7197   -0.0033 H       1  UNL1        0.1732
     27 H          -3.5437   -4.6478    0.0156 H       1  UNL1        0.1744
     28 H          -5.5823   -5.8469    0.0299 H       1  UNL1        0.1503
     29 H          -7.9203   -4.5499   -0.9544 H       1  UNL1        0.0465
     30 H          -7.8925   -4.3982    0.7816 H       1  UNL1        0.0465
     31 H          -9.1684   -6.1423    0.7463 H       1  UNL1        0.0316
     32 H          -7.6931   -7.3198   -1.8717 H       1  UNL1        0.0269
     33 H          -9.4313   -7.5134   -1.4245 H       1  UNL1        0.0269
     34 H          -6.9375   -8.2034    0.2922 H       1  UNL1        0.0269
     35 H          -8.6617   -8.4516    0.7768 H       1  UNL1        0.0269
     36 H          -2.9263    0.0789   -0.0172 H       1  UNL1        0.0627
     37 H          -1.6666    2.1446   -0.0017 H       1  UNL1        0.0685
@<TRIPOS>UNITY_ATOM_ATTR
19 1
charge 1
21 1
charge -1
@<TRIPOS>BOND
     1     1     2    1
     2     2     3   ar
     3     3     4   ar
     4     4     5    1
     5     5     6    2
     6     5     7   am
     7     7     8    1
     8     8     9   am
     9     9    10    2
    10     9    11   am
    11    11    12    1
    12    12    13    1
    13    13    14    1
    14    14    15    1
    15    13    15    1
    16     4    16   ar
    17    16    17   ar
    18    17    18   ar
    19     2    18   ar
    20    18    19    1
    21    19    20    2
    22    19    21    1
    23     1    22    1
    24     1    23    1
    25     1    24    1
    26     3    25    1
    27     7    26    1
    28     8    27    1
    29    11    28    1
    30    12    29    1
    31    12    30    1
    32    13    31    1
    33    14    32    1
    34    14    33    1
    35    15    34    1
    36    15    35    1
    37    16    36    1
    38    17    37    1
