@<TRIPOS>MOLECULE
*****
 60 62 0 0 0
SMALL
GASTEIGER

@<TRIPOS>ATOM
      1 C           5.5728   -8.2091   -8.1965 C.3     1  UNL1       -0.0652
      2 C           5.5102   -6.7949   -7.6484 C.3     1  UNL1       -0.0545
      3 C           6.0110   -6.7564   -6.2054 C.3     1  UNL1       -0.0376
      4 C           5.9490   -5.3424   -5.6422 C.3     1  UNL1        0.0116
      5 N           6.3054   -5.2881   -4.2273 N.am    1  UNL1       -0.3135
      6 C           6.6275   -4.0678   -3.6342 C.2     1  UNL1        0.2384
      7 O           6.5592   -3.0328   -4.2995 O.2     1  UNL1       -0.2734
      8 C           6.9545   -4.0835   -2.0725 C.3     1  UNL1        0.1354
      9 C           5.8249   -3.2437   -1.0979 C.ar    1  UNL1        0.0648
     10 C           4.7702   -2.5888   -1.8049 C.ar    1  UNL1        0.1292
     11 O           4.2543   -2.8538   -3.0468 O.3     1  UNL1       -0.5062
     12 C           4.0668   -1.5183   -1.2247 C.ar    1  UNL1        0.0219
     13 C           4.2900   -1.1072    0.0940 C.ar    1  UNL1        0.1238
     14 O           3.8503    0.1293    0.4971 O.3     1  UNL1       -0.5065
     15 C           5.1533   -1.7878    0.9561 C.ar    1  UNL1        0.0219
     16 C           5.9046   -2.8680    0.4317 C.ar    1  UNL1        0.1292
     17 O           7.0701   -3.0324    1.3103 O.3     1  UNL1       -0.5062
     18 N           8.5333   -3.9886   -2.0784 N.am    1  UNL1       -0.2677
     19 C           9.5002   -2.8099   -1.7829 C.3     1  UNL1        0.0746
     20 C           8.8423   -1.5258   -1.4647 C.ar    1  UNL1        0.1221
     21 C           7.7981   -1.6024   -0.6635 C.ar    1  UNL1       -0.0191
     22 C           7.2216   -0.4033   -0.4002 C.ar    1  UNL1       -0.0236
     23 C           8.1437    0.4645   -0.8525 C.ar    1  UNL1        0.0921
     24 O           9.1940   -0.1969   -1.4566 O.2     1  UNL1       -0.4662
     25 C           9.1761   -5.0858   -2.6904 C.2     1  UNL1        0.2926
     26 O           8.8014   -5.6501   -3.7129 O.2     1  UNL1       -0.2604
     27 C          10.2651   -5.7001   -2.0079 C.1     1  UNL1       -0.0025
     28 C          11.1472   -6.3732   -1.4854 C.1     1  UNL1       -0.0566
     29 C          12.1740   -7.1669   -0.9277 C.ar    1  UNL1        0.0254
     30 C          13.2969   -7.4879   -1.6960 C.ar    1  UNL1       -0.0463
     31 C          14.3396   -8.2244   -1.1348 C.ar    1  UNL1       -0.0606
     32 C          14.2540   -8.6567    0.1880 C.ar    1  UNL1       -0.0617
     33 C          13.1258   -8.3540    0.9507 C.ar    1  UNL1       -0.0606
     34 C          12.0853   -7.6085    0.3949 C.ar    1  UNL1       -0.0463
     35 H           5.2102   -8.2362   -9.2279 H       1  UNL1        0.0230
     36 H           4.9539   -8.8831   -7.5958 H       1  UNL1        0.0230
     37 H           6.6015   -8.5831   -8.1827 H       1  UNL1        0.0230
     38 H           4.4767   -6.4316   -7.6964 H       1  UNL1        0.0263
     39 H           6.1173   -6.1330   -8.2776 H       1  UNL1        0.0263
     40 H           7.0436   -7.1261   -6.1645 H       1  UNL1        0.0280
     41 H           5.4063   -7.4294   -5.5863 H       1  UNL1        0.0280
     42 H           4.9254   -4.9588   -5.7094 H       1  UNL1        0.0462
     43 H           6.5921   -4.6755   -6.2302 H       1  UNL1        0.0462
     44 H           6.8257   -6.0901   -3.8737 H       1  UNL1        0.1487
     45 H           6.7378   -5.1050   -1.7394 H       1  UNL1        0.0650
     46 H           4.7911   -3.3895   -3.6448 H       1  UNL1        0.2922
     47 H           3.3843   -0.9629   -1.8696 H       1  UNL1        0.0691
     48 H           3.1484    0.4055   -0.1164 H       1  UNL1        0.2921
     49 H           5.5642   -1.2277    1.8173 H       1  UNL1        0.0691
     50 H           7.5852   -2.1691    1.4015 H       1  UNL1        0.2922
     51 H          10.2231   -2.6814   -2.5780 H       1  UNL1        0.0545
     52 H          10.0002   -3.1711   -0.8635 H       1  UNL1        0.0545
     53 H           7.7245   -2.6358   -0.4211 H       1  UNL1        0.0652
     54 H           6.3808   -0.0609    0.1673 H       1  UNL1        0.0649
     55 H           8.0897    1.5211   -0.6740 H       1  UNL1        0.1029
     56 H          13.3682   -7.1588   -2.7299 H       1  UNL1        0.0630
     57 H          15.2205   -8.4565   -1.7273 H       1  UNL1        0.0618
     58 H          15.0676   -9.2301    0.6244 H       1  UNL1        0.0618
     59 H          13.0608   -8.6938    1.9808 H       1  UNL1        0.0618
     60 H          11.2136   -7.3687    0.9985 H       1  UNL1        0.0630
@<TRIPOS>BOND
     1     1     2    1
     2     2     3    1
     3     3     4    1
     4     4     5    1
     5     5     6   am
     6     6     7    2
     7     9    10   ar
     8    10    11    1
     9    10    12   ar
    10    12    13   ar
    11    13    14    1
    12    13    15   ar
    13    15    16   ar
    14     9    16   ar
    15    16    17    1
    16     8    18    1
    17    18    19    1
    18    19    20    1
    19    20    21   ar
    20    21    22   ar
    21    22    23   ar
    22    23    24   ar
    23    20    24   ar
    24    18    25   am
    25    25    26    2
    26    25    27    1
    27    27    28    3
    28    28    29    1
    29    29    30   ar
    30    30    31   ar
    31    31    32   ar
    32    32    33   ar
    33    33    34   ar
    34    29    34   ar
    35     8     9    1
    36     8     6    1
    37     1    35    1
    38     1    36    1
    39     1    37    1
    40     2    38    1
    41     2    39    1
    42     3    40    1
    43     3    41    1
    44     4    42    1
    45     4    43    1
    46     5    44    1
    47     8    45    1
    48    11    46    1
    49    12    47    1
    50    14    48    1
    51    15    49    1
    52    17    50    1
    53    19    51    1
    54    19    52    1
    55    21    53    1
    56    22    54    1
    57    23    55    1
    58    30    56    1
    59    31    57    1
    60    32    58    1
    61    33    59    1
    62    34    60    1
