REMARK  10 active torsions:
REMARK  status: ('A' for Active; 'I' for Inactive)
REMARK    1  A    between atoms: C_2  and  C_3 
REMARK       I    between atoms: C_2  and  N_12 
REMARK    2  A    between atoms: C_3  and  O_4 
REMARK    3  A    between atoms: O_4  and  C_5 
REMARK    4  A    between atoms: N_12  and  N_13 
REMARK       I    between atoms: N_13  and  C_14 
REMARK    5  A    between atoms: C_14  and  C_16 
REMARK    6  A    between atoms: C_19  and  C_20 
REMARK       I    between atoms: C_20  and  N_22 
REMARK    7  A    between atoms: N_22  and  N_23 
REMARK       I    between atoms: N_23  and  C_24 
REMARK    8  A    between atoms: C_24  and  C_26 
REMARK    9  A    between atoms: C_26  and  O_27 
REMARK   10  A    between atoms: O_27  and  C_28 
ROOT
ATOM      1  C   UNL d   1       6.565   0.011   2.439  0.00  0.00     0.033 A 
ATOM      2  C   UNL d   1       7.305  -0.715   3.383  0.00  0.00     0.018 A 
ATOM      3  C   UNL d   1       8.714  -0.575   3.458  0.00  0.00     0.018 A 
ATOM      4  C   UNL d   1       9.423   0.245   2.555  0.00  0.00     0.033 A 
ATOM      5  C   UNL d   1       8.665   0.978   1.631  0.00  0.00     0.018 A 
ATOM      6  C   UNL d   1       7.258   0.864   1.573  0.00  0.00     0.018 A 
ENDROOT
BRANCH   1   7
ATOM      7  C   UNL d   1       5.063  -0.027   2.437  0.00  0.00     0.270 C 
ATOM      8  N   UNL d   1       4.436  -0.004   1.193  0.00  0.00    -0.263 N 
ATOM      9  H   UNL d   1       4.967  -0.074   0.335  0.00  0.00     0.190 HD
ATOM     10  O   UNL d   1       4.447  -0.060   3.504  0.00  0.00    -0.266 OA
BRANCH   8  11
ATOM     11  N   UNL d   1       3.026  -0.024   1.133  0.00  0.00    -0.265 N 
ATOM     12  C   UNL d   1       2.252  -0.053  -0.014  0.00  0.00     0.260 C 
ATOM     13  O   UNL d   1       1.024  -0.050   0.089  0.00  0.00    -0.269 OA
ATOM     14  H   UNL d   1       2.529   0.007   2.027  0.00  0.00     0.190 HD
BRANCH  12  15
ATOM     15  C   UNL d   1       2.966  -0.103  -1.376  0.00  0.00     0.280 C 
BRANCH  15  16
ATOM     16  O   UNL d   1       2.033  -0.096  -2.462  0.00  0.00    -0.342 OA
BRANCH  16  17
ATOM     17  C   UNL d   1       2.566  -0.168  -3.721  0.00  0.00     0.069 A 
ATOM     18  C   UNL d   1       3.591  -1.040  -4.088  0.00  0.00     0.038 A 
ATOM     19  C   UNL d   1       4.048  -1.072  -5.412  0.00  0.00     0.026 A 
ATOM     20  C   UNL d   1       3.471  -0.242  -6.372  0.00  0.00     0.034 A 
ATOM     21 CL   UNL d   1       4.058  -0.268  -7.989  0.00  0.00    -0.084 Cl
ATOM     22  C   UNL d   1       2.421   0.602  -6.025  0.00  0.00     0.026 A 
ATOM     23  C   UNL d   1       1.963   0.629  -4.701  0.00  0.00     0.038 A 
ENDBRANCH  16  17
ENDBRANCH  15  16
ENDBRANCH  12  15
ENDBRANCH   8  11
ENDBRANCH   1   7
BRANCH   4  24
ATOM     24  C   UNL d   1      10.946   0.268   2.588  0.00  0.00     0.270 C 
ATOM     25  O   UNL d   1      11.555  -0.411   3.416  0.00  0.00    -0.266 OA
ATOM     26  N   UNL d   1      11.622   1.038   1.641  0.00  0.00    -0.263 N 
ATOM     27  H   UNL d   1      11.174   1.601   0.922  0.00  0.00     0.190 HD
BRANCH  26  28
ATOM     28  N   UNL d   1      13.056   1.049   1.587  0.00  0.00    -0.265 N 
ATOM     29  C   UNL d   1      13.672   1.845   0.619  0.00  0.00     0.260 C 
ATOM     30  O   UNL d   1      12.987   2.500  -0.172  0.00  0.00    -0.269 OA
ATOM     31  H   UNL d   1      13.541   0.477   2.277  0.00  0.00     0.190 HD
BRANCH  29  32
ATOM     32  C   UNL d   1      15.228   1.844   0.598  0.00  0.00     0.280 C 
BRANCH  32  33
ATOM     33  O   UNL d   1      15.727   2.739  -0.412  0.00  0.00    -0.342 OA
BRANCH  33  34
ATOM     34  C   UNL d   1      17.086   2.825  -0.572  0.00  0.00     0.069 A 
ATOM     35  C   UNL d   1      17.946   1.726  -0.601  0.00  0.00     0.038 A 
ATOM     36  C   UNL d   1      19.322   1.909  -0.816  0.00  0.00     0.026 A 
ATOM     37  C   UNL d   1      19.838   3.188  -1.015  0.00  0.00     0.034 A 
ATOM     38 CL   UNL d   1      21.530   3.405  -1.245  0.00  0.00    -0.084 Cl
ATOM     39  C   UNL d   1      18.985   4.287  -1.032  0.00  0.00     0.026 A 
ATOM     40  C   UNL d   1      17.610   4.101  -0.823  0.00  0.00     0.038 A 
ENDBRANCH  33  34
ENDBRANCH  32  33
ENDBRANCH  29  32
ENDBRANCH  26  28
ENDBRANCH   4  24
TORSDOF 10
