@<TRIPOS>MOLECULE
*****
 44 45 0 0 0
SMALL
GASTEIGER

@<TRIPOS>ATOM
      1 C           9.8636   -8.3579    6.7169 C.3     1  UNL1        0.0820
      2 O           9.3109   -7.0325    6.7657 O.3     1  UNL1       -0.4644
      3 C          10.2103   -6.0162    6.7820 C.2     1  UNL1        0.3404
      4 O          11.4268   -6.1394    6.6683 O.2     1  UNL1       -0.2449
      5 C           9.5452   -4.6869    6.8883 C.ar    1  UNL1        0.0790
      6 C          10.0002   -3.6056    6.0696 C.ar    1  UNL1       -0.0251
      7 C           9.4095   -2.3255    6.1613 C.ar    1  UNL1        0.0343
      8 N           9.8360   -1.2269    5.3503 N.am    1  UNL1       -0.2840
      9 C           9.3064    0.0721    5.4183 C.2     1  UNL1        0.2373
     10 O           8.3207    0.4115    6.0767 O.2     1  UNL1       -0.2734
     11 C           9.8764    1.1168    4.4341 C.3     1  UNL1        0.0983
     12 C           9.0578    1.0542    3.1453 C.3     1  UNL1       -0.0380
     13 N          11.3206    0.9619    4.2238 N.am    1  UNL1       -0.2881
     14 C          12.1304    1.2472    5.3132 C.2     1  UNL1        0.3045
     15 O          11.6483    1.4326    6.4259 O.2     1  UNL1       -0.2525
     16 N          13.4832    1.2345    5.0414 N.am    1  UNL1       -0.2695
     17 C          14.4579    1.2893    6.0749 C.ar    1  UNL1        0.0348
     18 C          15.6487    2.0054    5.9084 C.ar    1  UNL1       -0.0404
     19 C          16.6384    1.9727    6.9054 C.ar    1  UNL1       -0.0600
     20 C          16.4323    1.2529    8.0823 C.ar    1  UNL1       -0.0616
     21 C          15.2512    0.5395    8.2520 C.ar    1  UNL1       -0.0600
     22 C          14.2723    0.5620    7.2563 C.ar    1  UNL1       -0.0404
     23 C           8.3834   -2.1638    7.0929 C.ar    1  UNL1       -0.0391
     24 C           7.9506   -3.2006    7.9131 C.ar    1  UNL1       -0.0408
     25 C           8.5284   -4.4605    7.8255 C.ar    1  UNL1        0.0550
     26 CL          7.9644   -5.6291    8.9652 Cl      1  UNL1       -0.0827
     27 H           9.0400   -9.0809    6.7418 H       1  UNL1        0.0661
     28 H          10.5044   -8.5510    7.5842 H       1  UNL1        0.0661
     29 H          10.4182   -8.5083    5.7860 H       1  UNL1        0.0661
     30 H          10.8178   -3.7918    5.3743 H       1  UNL1        0.0645
     31 H          10.6289   -1.3640    4.7323 H       1  UNL1        0.1549
     32 H           9.7029    2.1026    4.8950 H       1  UNL1        0.0592
     33 H           9.2278    0.1169    2.6091 H       1  UNL1        0.0252
     34 H           9.3036    1.8860    2.4766 H       1  UNL1        0.0252
     35 H           7.9815    1.1184    3.3595 H       1  UNL1        0.0252
     36 H          11.6816    1.1501    3.3007 H       1  UNL1        0.1510
     37 H          13.8000    1.3745    4.0948 H       1  UNL1        0.1564
     38 H          15.8054    2.6477    5.0464 H       1  UNL1        0.0636
     39 H          17.5747    2.5104    6.7713 H       1  UNL1        0.0618
     40 H          17.1840    1.2506    8.8684 H       1  UNL1        0.0618
     41 H          15.0879   -0.0479    9.1516 H       1  UNL1        0.0618
     42 H          13.3718   -0.0283    7.4042 H       1  UNL1        0.0636
     43 H           7.8778   -1.2194    7.2461 H       1  UNL1        0.0636
     44 H           7.1622   -2.9843    8.6297 H       1  UNL1        0.0633
@<TRIPOS>BOND
     1     1     2    1
     2     2     3    1
     3     3     4    2
     4     3     5    1
     5     5     6   ar
     6     6     7   ar
     7     7     8    1
     8     8     9   am
     9     9    10    2
    10    11    13    1
    11    13    14   am
    12    14    15    2
    13    14    16   am
    14    16    17    1
    15    17    18   ar
    16    18    19   ar
    17    19    20   ar
    18    20    21   ar
    19    21    22   ar
    20    17    22   ar
    21     7    23   ar
    22    23    24   ar
    23    24    25   ar
    24     5    25   ar
    25    25    26    1
    26    11    12    1
    27    11     9    1
    28     1    27    1
    29     1    28    1
    30     1    29    1
    31     6    30    1
    32     8    31    1
    33    11    32    1
    34    12    33    1
    35    12    34    1
    36    12    35    1
    37    13    36    1
    38    16    37    1
    39    18    38    1
    40    19    39    1
    41    20    40    1
    42    21    41    1
    43    22    42    1
    44    23    43    1
    45    24    44    1
