@<TRIPOS>MOLECULE
*****
 63 65 0 0 0
SMALL
GASTEIGER

@<TRIPOS>ATOM
      1 C           0.9473   -0.0920    0.1495 C.3     1  UNK1       -0.0471
      2 C           2.4471   -0.2862    0.2282 C.3     1  UNK1        0.0205
      3 N           2.9498   -1.2180   -0.7725 N.ar    1  UNK1       -0.3463
      4 C           3.7654   -0.8238   -1.7795 C.ar    1  UNK1        0.0129
      5 C           3.8577   -1.7076   -2.8193 C.ar    1  UNK1        0.0021
      6 C           4.4315   -1.4590   -4.1767 C.2     1  UNK1       -0.0262
      7 C           4.9687   -0.3510   -4.8016 C.2     1  UNK1        0.0967
      8 N           5.1501    0.9147   -4.2000 N.am    1  UNK1       -0.2773
      9 C           4.1973    1.3485   -3.3098 C.2     0  UNK0        0.2486
     10 O           3.0231    1.0619   -3.4642 O.2     0  UNK0       -0.2698
     11 C           4.4629    2.4152   -2.3140 C.ar    0  UNK0        0.0442
     12 C           4.8099    2.3439   -0.9421 C.ar    0  UNK0       -0.0039
     13 C           4.5837    3.4538   -0.0941 C.ar    0  UNK0        0.1659
     14 O           4.9265    3.2622    1.2337 O.3     0  UNK0       -0.4913
     15 C           4.9582    4.4172    2.0840 C.3     0  UNK0        0.0790
     16 C           4.0205    4.6238   -0.6493 C.ar    0  UNK0        0.2035
     17 O           3.9402    5.7149    0.1682 O.3     0  UNK0       -0.4885
     18 C           3.5528    6.9570   -0.3813 C.3     0  UNK0        0.0791
     19 C           3.5776    4.6196   -1.9834 C.ar    0  UNK0        0.1659
     20 O           2.9570    5.7116   -2.5116 O.3     0  UNK0       -0.4913
     21 C           2.5820    5.6681   -3.8801 C.3     0  UNK0        0.0790
     22 C           3.7653    3.5067   -2.7630 C.ar    0  UNK0       -0.0039
     23 C           5.4142   -0.4769   -6.2990 C.2     1  UNK1        0.2583
     24 O           5.4058   -1.5476   -6.9043 O.2     1  UNK1       -0.2688
     25 N           5.8364    0.6964   -6.9160 N.am    2  GLY2       -0.3081
     26 CA          6.3887    0.7555   -8.2673 C.3     2  GLY2        0.0351
     27 C           6.8207    2.1814   -8.6486 C.3     2  GLY2        0.0597
     28 O           7.3703    2.2340   -9.9569 O.3     2  GLY2       -0.3935
     29 C           3.2719   -2.8935   -2.2045 C.ar    1  UNK1        0.0071
     30 C           3.1261   -4.2387   -2.5901 C.ar    1  UNK1       -0.0520
     31 C           2.5678   -5.1580   -1.6811 C.ar    1  UNK1       -0.0611
     32 C           2.1187   -4.7706   -0.4170 C.ar    1  UNK1       -0.0598
     33 C           2.1987   -3.4491   -0.0160 C.ar    1  UNK1       -0.0376
     34 C           2.7693   -2.5521   -0.9174 C.ar    1  UNK1        0.0496
     35 H           0.6139    0.6306    0.9015 H       1  UNK1        0.0247
     36 H           0.4163   -1.0331    0.3012 H       1  UNK1        0.0247
     37 H           0.6707    0.3029   -0.8352 H       1  UNK1        0.0247
     38 H           2.8130   -0.5777    1.2170 H       1  UNK1        0.0489
     39 H           2.8817    0.6976    0.0212 H       1  UNK1        0.0489
     40 H           4.0619    0.1644   -1.6400 H       1  UNK1        0.0815
     41 H           4.3699   -2.3433   -4.8131 H       1  UNK1        0.0644
     42 H           5.3872    1.6728   -4.8198 H       1  UNK1        0.1553
     43 H           5.1541    1.4215   -0.4695 H       0  UNK0        0.0663
     44 H           5.3558    4.1485    3.0677 H       0  UNK0        0.0660
     45 H           3.9495    4.8121    2.2614 H       0  UNK0        0.0660
     46 H           5.6345    5.1785    1.6766 H       0  UNK0        0.0660
     47 H           3.6808    7.7156    0.3902 H       0  UNK0        0.0660
     48 H           2.4904    6.9274   -0.6378 H       0  UNK0        0.0660
     49 H           4.1932    7.2373   -1.2257 H       0  UNK0        0.0660
     50 H           2.2831    6.6766   -4.1600 H       0  UNK0        0.0660
     51 H           1.7267    4.9966   -4.0065 H       0  UNK0        0.0660
     52 H           3.4175    5.3776   -4.5304 H       0  UNK0        0.0660
     53 H           3.2694    3.4009   -3.7237 H       0  UNK0        0.0663
     54 H           5.8105    1.5766   -6.4461 H       2  GLY2        0.1491
     55 HA1         5.6487    0.3816   -8.9834 H       2  GLY2        0.0485
     56 HA2         7.2525    0.0830   -8.3174 H       2  GLY2        0.0485
     57 H1          7.5676    2.5692   -7.9457 H       2  GLY2        0.0573
     58 H2          5.9648    2.8652   -8.6148 H       2  GLY2        0.0573
     59 H           8.1369    1.6352   -9.9835 H       2  GLY2        0.2095
     60 H           3.4757   -4.5697   -3.5622 H       1  UNK1        0.0624
     61 H           2.4935   -6.2030   -1.9640 H       1  UNK1        0.0618
     62 H           1.6983   -5.4965    0.2727 H       1  UNK1        0.0618
     63 H           1.8580   -3.1206    0.9622 H       1  UNK1        0.0638
@<TRIPOS>BOND
     1     1     2    1
     2     2     3    1
     3     3     4   ar
     4     4     5   ar
     5     5     6    1
     6     6     7    2
     7     7     8    1
     8     8     9   am
     9     9    10    2
    10     9    11    1
    11    11    12   ar
    12    12    13   ar
    13    13    14    1
    14    14    15    1
    15    13    16   ar
    16    16    17    1
    17    17    18    1
    18    16    19   ar
    19    19    20    1
    20    20    21    1
    21    19    22   ar
    22    11    22   ar
    23     7    23    1
    24    23    24    2
    25    23    25   am
    26    25    26    1
    27    26    27    1
    28    27    28    1
    29     5    29   ar
    30    29    30   ar
    31    30    31   ar
    32    31    32   ar
    33    32    33   ar
    34    33    34   ar
    35    29    34   ar
    36     3    34   ar
    37     1    35    1
    38     1    36    1
    39     1    37    1
    40     2    38    1
    41     2    39    1
    42     4    40    1
    43     6    41    1
    44     8    42    1
    45    12    43    1
    46    15    44    1
    47    15    45    1
    48    15    46    1
    49    18    47    1
    50    18    48    1
    51    18    49    1
    52    21    50    1
    53    21    51    1
    54    21    52    1
    55    22    53    1
    56    25    54    1
    57    26    55    1
    58    26    56    1
    59    27    57    1
    60    27    58    1
    61    28    59    1
    62    30    60    1
    63    31    61    1
    64    32    62    1
    65    33    63    1
