@<TRIPOS>MOLECULE
*****
 51 54 0 0 0
SMALL
GASTEIGER

@<TRIPOS>ATOM
      1 C           1.1464   -0.0065   -0.0891 C.3     1  UNL1       -0.0216
      2 C           2.6218   -0.0028   -0.1428 C.3     1  UNL1       -0.0234
      3 C           3.0126    1.2423   -0.9469 C.3     1  UNL1       -0.0097
      4 C           4.5109    1.3722   -0.9715 C.3     1  UNL1       -0.0432
      5 C           4.9902    0.1924   -1.7711 C.3     1  UNL1       -0.0123
      6 C           4.5514   -1.0695   -1.0813 C.3     1  UNL1       -0.0313
      7 N           3.1142   -1.2965   -0.8143 N.4     1  UNL1        0.2416
      8 C           2.8740   -2.6348    0.0095 C.3     1  UNL1        0.0142
      9 C           3.3628   -3.9744   -0.5145 C.ar    1  UNL1        0.1234
     10 C           2.7097   -5.2139   -0.7865 C.ar    1  UNL1        0.1773
     11 C           1.3152   -5.7882   -0.6926 C.2     1  UNL1        0.2854
     12 O           1.1139   -6.9736   -1.0205 O.2     1  UNL1       -0.2666
     13 N           0.2698   -4.9901   -0.2418 N.am    1  UNL1       -0.2016
     14 N          -1.0361   -5.4674   -0.1694 N.2     1  UNL1       -0.1874
     15 C          -1.9913   -4.7157    0.2974 C.2     1  UNL1        0.0533
     16 C          -1.8326   -3.3281    0.6937 C.ar    1  UNL1        0.0015
     17 C          -1.2112   -2.3102   -0.0896 C.ar    1  UNL1       -0.0461
     18 C          -1.4287   -1.0696    0.4622 C.ar    1  UNL1       -0.0237
     19 S          -1.9754   -1.1494    2.0694 S.2     1  UNL1       -0.1044
     20 C          -2.3699   -2.7973    1.8531 C.ar    1  UNL1       -0.0157
     21 N           3.6667   -6.0735   -1.2899 N.ar    1  UNL1       -0.1239
     22 N           4.8256   -5.4609   -1.3880 N.ar    1  UNL1       -0.0581
     23 N           4.7470   -4.2698   -0.7756 N.ar    1  UNL1       -0.1868
     24 C           5.9407   -3.5127   -0.5096 C.ar    1  UNL1        0.2404
     25 N           6.7381   -3.1616   -1.5316 N.ar    1  UNL1       -0.0272
     26 O           7.5227   -2.1168   -1.0191 O.2     1  UNL1       -0.2388
     27 N           7.2129   -1.8711    0.3173 N.ar    1  UNL1       -0.0319
     28 C           6.2511   -2.7430    0.6251 C.ar    1  UNL1        0.2064
     29 N           5.5176   -2.7024    1.7554 N.pl3   1  UNL1       -0.3375
     30 H           0.7641    0.9338    0.3240 H       1  UNL1        0.0284
     31 H           0.8850   -0.8069    0.5928 H       1  UNL1        0.0284
     32 H           0.7121   -0.1518   -1.0863 H       1  UNL1        0.0284
     33 H           3.0345    0.0210    0.8737 H       1  UNL1        0.0848
     34 H           2.5747    2.1438   -0.5085 H       1  UNL1        0.0320
     35 H           2.6255    1.1622   -1.9734 H       1  UNL1        0.0320
     36 H           4.9054    1.3382    0.0548 H       1  UNL1        0.0269
     37 H           4.8366    2.3107   -1.4212 H       1  UNL1        0.0269
     38 H           6.0841    0.2083   -1.8253 H       1  UNL1        0.0317
     39 H           4.6044    0.1980   -2.7939 H       1  UNL1        0.0317
     40 H           4.9734   -1.0174   -0.0850 H       1  UNL1        0.0814
     41 H           4.8262   -1.8734   -1.7387 H       1  UNL1        0.0814
     42 H           2.6420   -1.4210   -1.7190 H       1  UNL1        0.2040
     43 H           1.7907   -2.6960    0.1095 H       1  UNL1        0.0883
     44 H           3.2411   -2.4574    1.0225 H       1  UNL1        0.0883
     45 H           0.4339   -4.0819    0.1419 H       1  UNL1        0.1776
     46 H          -3.0201   -5.1153    0.4007 H       1  UNL1        0.0851
     47 H          -0.7373   -2.4795   -1.0527 H       1  UNL1        0.0629
     48 H          -1.1937   -0.1018    0.0530 H       1  UNL1        0.0693
     49 H          -2.9567   -3.2774    2.6214 H       1  UNL1        0.0700
     50 H           5.9049   -2.1766    2.5394 H       1  UNL1        0.1439
     51 H           4.9974   -3.5194    2.0629 H       1  UNL1        0.1439
@<TRIPOS>UNITY_ATOM_ATTR
7 1
charge 1
@<TRIPOS>BOND
     1     1     2    1
     2     2     3    1
     3     3     4    1
     4     4     5    1
     5     5     6    1
     6     6     7    1
     7     2     7    1
     8     7     8    1
     9     8     9    1
    10     9    10   ar
    11    10    11    1
    12    11    12    2
    13    11    13   am
    14    13    14    1
    15    14    15    2
    16    15    16    1
    17    16    17   ar
    18    17    18   ar
    19    18    19   ar
    20    19    20   ar
    21    16    20   ar
    22    10    21   ar
    23    21    22   ar
    24    22    23   ar
    25     9    23   ar
    26    23    24    1
    27    24    25   ar
    28    25    26   ar
    29    26    27   ar
    30    27    28   ar
    31    24    28   ar
    32    28    29    1
    33     1    30    1
    34     1    31    1
    35     1    32    1
    36     2    33    1
    37     3    34    1
    38     3    35    1
    39     4    36    1
    40     4    37    1
    41     5    38    1
    42     5    39    1
    43     6    40    1
    44     6    41    1
    45     7    42    1
    46     8    43    1
    47     8    44    1
    48    13    45    1
    49    15    46    1
    50    17    47    1
    51    18    48    1
    52    20    49    1
    53    29    50    1
    54    29    51    1
