REMARK  12 active torsions:
REMARK  status: ('A' for Active; 'I' for Inactive)
REMARK    1  A    between atoms: C_2  and  O_3 
REMARK    2  A    between atoms: O_3  and  C_4 
REMARK    3  A    between atoms: C_8  and  C_7 
REMARK    4  A    between atoms: C_8  and  C_10 
REMARK    5  A    between atoms: C_8  and  O_9 
REMARK    6  A    between atoms: C_10  and  C_11 
REMARK    7  A    between atoms: C_11  and  C_12 
REMARK       I    between atoms: C_12  and  N_14 
REMARK    8  A    between atoms: N_14  and  N_15 
REMARK    9  A    between atoms: C_16  and  C_17 
REMARK   10  A    between atoms: C_20  and  C_21 
REMARK   11  A    between atoms: C_23  and  N_24 
REMARK   12  A    between atoms: C_29  and  O_30 
ROOT
ATOM      1  C   UNL d   1      11.477   2.278  -0.232  0.00  0.00     0.237 C 
ATOM      2  O   UNL d   1      10.802   2.437  -1.253  0.00  0.00    -0.272 OA
ATOM      3  N   UNL d   1      12.851   2.408  -0.173  0.00  0.00    -0.247 N 
ATOM      4  H   UNL d   1      13.323   2.306   0.719  0.00  0.00     0.192 HD
ENDROOT
BRANCH   3   5
ATOM      5  N   UNL d   1      13.558   2.833  -1.277  0.00  0.00    -0.182 NA
ATOM      6  C   UNL d   1      14.850   2.992  -1.184  0.00  0.00     0.175 C 
BRANCH   6   7
ATOM      7  C   UNL d   1      15.636   2.627  -0.034  0.00  0.00     0.095 A 
ATOM      8  C   UNL d   1      15.564   1.468   0.711  0.00  0.00     0.041 A 
ATOM      9  C   UNL d   1      16.375   1.658   1.833  0.00  0.00     0.041 A 
ATOM     10  C   UNL d   1      16.986   2.884   1.681  0.00  0.00     0.089 A 
ATOM     11  O   UNL d   1      16.548   3.491   0.528  0.00  0.00    -0.308 OA
BRANCH  10  12
ATOM     12  C   UNL d   1      18.014   3.524   2.492  0.00  0.00     0.033 A 
ATOM     13  C   UNL d   1      17.834   4.796   3.051  0.00  0.00     0.053 A 
ATOM     14  C   UNL d   1      18.866   5.364   3.820  0.00  0.00     0.103 A 
ATOM     15  C   UNL d   1      20.019   4.631   4.139  0.00  0.00     0.039 A 
ATOM     16  C   UNL d   1      20.182   3.349   3.621  0.00  0.00     0.040 A 
ATOM     17  C   UNL d   1      19.191   2.810   2.801  0.00  0.00     0.078 A 
BRANCH  14  18
ATOM     18  N   UNL d   1      18.794   6.780   4.207  0.00  0.00    -0.116 N 
ATOM     19  O   UNL d   1      17.781   7.414   3.891  0.00  0.00    -0.532 OA
ATOM     20  O   UNL d   1      19.776   7.264   4.793  0.00  0.00    -0.532 OA
ENDBRANCH  14  18
BRANCH  17  21
ATOM     21  O   UNL d   1      19.354   1.546   2.295  0.00  0.00    -0.360 OA
ATOM     22  H   UNL d   1      20.192   1.167   2.603  0.00  0.00     0.217 HD
ENDBRANCH  17  21
ENDBRANCH  10  12
ENDBRANCH   6   7
ENDBRANCH   3   5
BRANCH   1  23
ATOM     23  C   UNL d   1      10.857   1.878   1.095  0.00  0.00     0.107 C 
BRANCH  23  24
ATOM     24  C   UNL d   1       9.343   1.634   0.931  0.00  0.00     0.046 C 
BRANCH  24  25
ATOM     25  C   UNL d   1       8.653   1.054   2.172  0.00  0.00     0.151 C 
BRANCH  25  26
ATOM     26  O   UNL d   1       7.245   1.017   1.941  0.00  0.00    -0.391 OA
ATOM     27  H   UNL d   1       7.077   0.327   1.277  0.00  0.00     0.210 HD
ENDBRANCH  25  26
BRANCH  25  28
ATOM     28  C   UNL d   1       9.133  -0.326   2.577  0.00  0.00    -0.029 C 
ATOM     29  C   UNL d   1       8.671  -0.904   3.764  0.00  0.00     0.012 C 
ATOM     30  C   UNL d   1       9.249  -2.085   4.244  0.00  0.00     0.037 C 
ATOM     31  C   UNL d   1      10.271  -2.719   3.534  0.00  0.00     0.068 C 
ATOM     32  C   UNL d   1      10.695  -2.184   2.328  0.00  0.00     0.037 C 
ATOM     33  C   UNL d   1      10.091  -1.035   1.837  0.00  0.00     0.012 C 
BRANCH  31  34
ATOM     34  O   UNL d   1      10.708  -3.917   4.023  0.00  0.00    -0.352 OA
BRANCH  34  35
ATOM     35  C   UNL d   1      12.093  -4.198   3.823  0.00  0.00     0.171 C 
ATOM     36  C   UNL d   1      12.339  -5.633   4.247  0.00  0.00     0.034 C 
ENDBRANCH  34  35
ENDBRANCH  31  34
ENDBRANCH  25  28
ENDBRANCH  24  25
ENDBRANCH  23  24
ENDBRANCH   1  23
TORSDOF 12
