@<TRIPOS>MOLECULE
*****
 41 43 0 0 0
SMALL
GASTEIGER

@<TRIPOS>ATOM
      1 O          -0.1919   -2.6538   -0.0286 O.2     1  UNL1       -0.2467
      2 C          -0.1093   -1.4291    0.0185 C.ar    1  UNL1        0.3263
      3 N           1.0664   -0.7679    0.0401 N.ar    1  UNL1       -0.3208
      4 C           1.2374    0.5699    0.1099 C.ar    1  UNL1       -0.0260
      5 O           2.4733    0.7112    0.2053 O.co2   1  UNL1       -0.8612
      6 C           0.1547    1.3869    0.0462 C.ar    1  UNL1        0.0299
      7 C           0.1217    2.9036   -0.0108 C.3     1  UNL1        0.0035
      8 C           1.4639    3.5878   -0.1250 C.ar    1  UNL1       -0.0428
      9 C           1.9708    4.3979    0.8949 C.ar    1  UNL1       -0.0580
     10 C           3.2622    4.9154    0.7942 C.ar    1  UNL1       -0.0580
     11 C           4.1030    4.5117   -0.2510 C.ar    1  UNL1       -0.0443
     12 C           5.5550    4.9181   -0.2767 C.3     1  UNL1       -0.0158
     13 C           6.4941    3.7064   -0.1176 C.3     1  UNL1       -0.0462
     14 C           7.9585    4.1129   -0.2622 C.3     1  UNL1       -0.0525
     15 C           8.2031    4.8536   -1.5737 C.3     1  UNL1       -0.0530
     16 C           7.2944    6.0720   -1.6959 C.3     1  UNL1       -0.0525
     17 C           5.8330    5.6781   -1.5800 C.3     1  UNL1       -0.0462
     18 C           3.5934    3.6892   -1.2604 C.ar    1  UNL1       -0.0580
     19 C           2.2714    3.2863   -1.2299 C.ar    1  UNL1       -0.0580
     20 C          -1.1920    0.7330    0.0180 C.ar    1  UNL1        0.2568
     21 O          -2.2412    1.3779   -0.0288 O.2     1  UNL1       -0.2674
     22 N          -1.2167   -0.6347    0.0586 N.ar    1  UNL1       -0.2749
     23 H           1.9487   -1.2592    0.0290 H       1  UNL1        0.1692
     24 H          -0.4201    3.2972    0.8594 H       1  UNL1        0.0363
     25 H          -0.4560    3.2291   -0.8897 H       1  UNL1        0.0363
     26 H           1.3928    4.5691    1.7982 H       1  UNL1        0.0620
     27 H           3.6239    5.5898    1.5631 H       1  UNL1        0.0620
     28 H           5.7466    5.5977    0.5654 H       1  UNL1        0.0349
     29 H           6.2716    2.9384   -0.8696 H       1  UNL1        0.0271
     30 H           6.3399    3.2318    0.8600 H       1  UNL1        0.0271
     31 H           8.5954    3.2225   -0.2155 H       1  UNL1        0.0265
     32 H           8.2419    4.7571    0.5786 H       1  UNL1        0.0265
     33 H           8.0252    4.1736   -2.4169 H       1  UNL1        0.0265
     34 H           9.2491    5.1712   -1.6306 H       1  UNL1        0.0265
     35 H           7.4577    6.5656   -2.6591 H       1  UNL1        0.0265
     36 H           7.5368    6.7945   -0.9085 H       1  UNL1        0.0265
     37 H           5.5743    5.0622   -2.4510 H       1  UNL1        0.0271
     38 H           5.1964    6.5698   -1.6323 H       1  UNL1        0.0271
     39 H           4.2295    3.2847   -2.0425 H       1  UNL1        0.0620
     40 H           1.9347    2.5528   -1.9610 H       1  UNL1        0.0620
     41 H          -2.1047   -1.0970    0.0642 H       1  UNL1        0.1734
@<TRIPOS>UNITY_ATOM_ATTR
5 1
charge -1
@<TRIPOS>BOND
     1     1     2    2
     2     2     3   ar
     3     3     4   ar
     4     4     5    1
     5     4     6   ar
     6     6     7    1
     7     7     8    1
     8     8     9   ar
     9     9    10   ar
    10    10    11   ar
    11    11    12    1
    12    12    13    1
    13    13    14    1
    14    14    15    1
    15    15    16    1
    16    16    17    1
    17    12    17    1
    18    11    18   ar
    19    18    19   ar
    20     8    19   ar
    21     6    20   ar
    22    20    21    2
    23    20    22   ar
    24     2    22   ar
    25     3    23    1
    26     7    24    1
    27     7    25    1
    28     9    26    1
    29    10    27    1
    30    12    28    1
    31    13    29    1
    32    13    30    1
    33    14    31    1
    34    14    32    1
    35    15    33    1
    36    15    34    1
    37    16    35    1
    38    16    36    1
    39    17    37    1
    40    17    38    1
    41    18    39    1
    42    19    40    1
    43    22    41    1
