REMARK  8 active torsions:
REMARK  status: ('A' for Active; 'I' for Inactive)
REMARK    1  A    between atoms: C_8  and  N_9 
REMARK       I    between atoms: N_9  and  C_10 
REMARK    2  A    between atoms: C_10  and  C_12 
REMARK       I    between atoms: C_12  and  N_14 
REMARK    3  A    between atoms: N_14  and  C_15 
REMARK    4  A    between atoms: C_15  and  C_16 
REMARK    5  A    between atoms: C_20  and  C_21 
REMARK    6  A    between atoms: C_21  and  N_22 
REMARK       I    between atoms: N_22  and  C_23 
REMARK    7  A    between atoms: C_23  and  C_25 
REMARK       I    between atoms: C_25  and  N_27 
REMARK    8  A    between atoms: N_27  and  C_28 
ROOT
ATOM      1  C   UNL d   1       2.217   7.477   1.269  0.00  0.00    -0.040 A 
ATOM      2  C   UNL d   1       1.985   6.574   2.317  0.00  0.00     0.009 A 
ATOM      3  C   UNL d   1       1.607   7.018   3.569  0.00  0.00     0.001 A 
ATOM      4  C   UNL d   1       1.507   8.379   3.818  0.00  0.00     0.009 A 
ATOM      5  C   UNL d   1       1.786   9.336   2.831  0.00  0.00    -0.040 A 
ATOM      6  C   UNL d   1       2.137   8.862   1.544  0.00  0.00     0.017 A 
ENDROOT
BRANCH   1   7
ATOM      7  C   UNL d   1       2.518   6.979  -0.129  0.00  0.00     0.161 C 
BRANCH   7   8
ATOM      8  N   UNL d   1       2.332   5.558  -0.285  0.00  0.00    -0.349 N 
ATOM      9  C   UNL d   1       1.097   4.913  -0.222  0.00  0.00     0.309 C 
ATOM     10  O   UNL d   1      -0.013   5.423  -0.205  0.00  0.00    -0.262 OA
ATOM     11  H   UNL d   1       3.137   4.944  -0.128  0.00  0.00     0.163 HD
BRANCH   9  12
ATOM     12  C   UNL d   1       1.287   3.405  -0.069  0.00  0.00     0.314 C 
ATOM     13  N   UNL d   1       0.170   2.562  -0.049  0.00  0.00    -0.318 N 
ATOM     14  H   UNL d   1      -0.722   3.051  -0.072  0.00  0.00     0.169 HD
ATOM     15  O   UNL d   1       2.485   3.156   0.040  0.00  0.00    -0.262 OA
BRANCH  13  16
ATOM     16  C   UNL d   1       0.118   1.111  -0.011  0.00  0.00     0.047 A 
ATOM     17  C   UNL d   1      -1.143   0.436  -0.004  0.00  0.00    -0.035 A 
ATOM     18  C   UNL d   1      -1.200  -0.987  -0.002  0.00  0.00     0.009 A 
ATOM     19  C   UNL d   1      -2.487   1.123  -0.006  0.00  0.00     0.050 C 
ATOM     20  C   UNL d   1      -0.053  -1.763   0.001  0.00  0.00     0.001 A 
ATOM     21  C   UNL d   1       1.168  -1.130   0.005  0.00  0.00     0.009 A 
ATOM     22  C   UNL d   1       1.268   0.276  -0.000  0.00  0.00    -0.035 A 
ATOM     23  C   UNL d   1       2.682   0.752   0.005  0.00  0.00     0.050 C 
ENDBRANCH  13  16
ENDBRANCH   9  12
ENDBRANCH   7   8
ENDBRANCH   1   7
BRANCH   5  24
ATOM     24  C   UNL d   1       1.695  10.832   3.115  0.00  0.00     0.161 C 
BRANCH  24  25
ATOM     25  N   UNL d   1       1.347  11.180   4.486  0.00  0.00    -0.349 N 
ATOM     26  C   UNL d   1       1.157  12.460   4.963  0.00  0.00     0.309 C 
ATOM     27  O   UNL d   1       1.318  13.496   4.339  0.00  0.00    -0.262 OA
ATOM     28  H   UNL d   1       1.160  10.462   5.175  0.00  0.00     0.163 HD
BRANCH  26  29
ATOM     29  C   UNL d   1       0.699  12.476   6.450  0.00  0.00     0.314 C 
ATOM     30  O   UNL d   1       0.455  11.392   6.973  0.00  0.00    -0.262 OA
ATOM     31  N   UNL d   1       0.601  13.736   7.037  0.00  0.00    -0.318 N 
ATOM     32  H   UNL d   1       0.569  14.525   6.401  0.00  0.00     0.169 HD
BRANCH  31  33
ATOM     33  C   UNL d   1       0.295  13.944   8.413  0.00  0.00     0.047 A 
ATOM     34  C   UNL d   1       0.953  13.210   9.426  0.00  0.00    -0.035 A 
ATOM     35  C   UNL d   1       2.090  12.255   9.174  0.00  0.00     0.050 C 
ATOM     36  C   UNL d   1       0.599  13.406  10.777  0.00  0.00     0.009 A 
ATOM     37  C   UNL d   1      -0.375  14.326  11.139  0.00  0.00     0.001 A 
ATOM     38  C   UNL d   1      -0.992  15.086  10.153  0.00  0.00     0.009 A 
ATOM     39  C   UNL d   1      -0.655  14.925   8.791  0.00  0.00    -0.035 A 
ATOM     40  C   UNL d   1      -1.407  15.768   7.797  0.00  0.00     0.050 C 
ENDBRANCH  31  33
ENDBRANCH  26  29
ENDBRANCH  24  25
ENDBRANCH   5  24
TORSDOF 8
