@<TRIPOS>MOLECULE
*****
 50 52 0 0 0
SMALL
GASTEIGER

@<TRIPOS>ATOM
      1 C           1.8720    1.4837   -0.0149 C.3     1  UNL1       -0.0395
      2 C           0.5927    0.6935    0.0019 C.ar    1  UNL1       -0.0474
      3 C          -0.6128    1.3898    0.0238 C.ar    1  UNL1       -0.0568
      4 C          -1.8296    0.7131    0.0207 C.ar    1  UNL1       -0.0402
      5 C          -1.9013   -0.6792   -0.0192 C.ar    1  UNL1        0.0341
      6 N          -3.1531   -1.3577   -0.0635 N.am    1  UNL1       -0.2777
      7 C          -4.4001   -0.7343   -0.0834 C.2     1  UNL1        0.3031
      8 O          -4.6513    0.4683   -0.0530 O.2     1  UNL1       -0.2648
      9 C          -5.6331   -1.6611   -0.1619 C.2     1  UNL1        0.2996
     10 O          -5.5128   -2.8764   -0.2031 O.2     1  UNL1       -0.2652
     11 N          -6.8137   -0.9475   -0.1817 N.am    1  UNL1       -0.3035
     12 C          -8.1179   -1.5508   -0.2573 C.3     1  UNL1        0.0373
     13 C          -9.2787   -0.5788   -0.2320 C.ar    1  UNL1       -0.0286
     14 C          -9.1797    0.8087   -0.3111 C.ar    1  UNL1       -0.0570
     15 C         -10.3110    1.6075   -0.1165 C.ar    1  UNL1       -0.0597
     16 C         -11.5784    1.0299    0.0570 C.ar    1  UNL1       -0.0404
     17 C         -11.7150   -0.3623    0.0799 C.ar    1  UNL1        0.0341
     18 N         -12.9891   -0.9577    0.2908 N.am    1  UNL1       -0.2790
     19 C         -13.2267   -2.3271    0.4456 C.2     1  UNL1        0.2835
     20 O         -12.3552   -3.2001    0.4215 O.2     1  UNL1       -0.2665
     21 C         -14.6047   -2.7092    0.6415 C.ar    1  UNL1        0.1893
     22 C         -15.7780   -2.3085    0.0336 C.ar    1  UNL1       -0.0113
     23 C         -16.8066   -3.1315    0.5560 C.ar    1  UNL1       -0.0231
     24 C         -16.2058   -3.9795    1.4551 C.ar    1  UNL1        0.0928
     25 O         -14.8726   -3.7395    1.5066 O.2     1  UNL1       -0.4583
     26 C         -10.5583   -1.1332   -0.0780 C.ar    1  UNL1       -0.0358
     27 C          -0.6888   -1.3917   -0.0196 C.ar    1  UNL1       -0.0373
     28 C           0.5619   -0.7154   -0.0021 C.ar    1  UNL1       -0.0458
     29 C           1.8549   -1.4902    0.0199 C.3     1  UNL1       -0.0394
     30 H           1.6727    2.5621   -0.0263 H       1  UNL1        0.0278
     31 H           2.4516    1.2539   -0.9141 H       1  UNL1        0.0278
     32 H           2.4668    1.2711    0.8778 H       1  UNL1        0.0278
     33 H          -0.6309    2.4768    0.0423 H       1  UNL1        0.0621
     34 H          -2.7116    1.3384    0.0475 H       1  UNL1        0.0636
     35 H          -3.1559   -2.3737   -0.1045 H       1  UNL1        0.1553
     36 H          -6.7123    0.0563   -0.0719 H       1  UNL1        0.1495
     37 H          -8.2063   -2.2201    0.6090 H       1  UNL1        0.0512
     38 H          -8.1642   -2.1664   -1.1623 H       1  UNL1        0.0512
     39 H          -8.2324    1.2981   -0.5124 H       1  UNL1        0.0621
     40 H         -10.1870    2.6886   -0.0829 H       1  UNL1        0.0618
     41 H         -12.4304    1.6954    0.1711 H       1  UNL1        0.0636
     42 H         -13.7722   -0.3297    0.4296 H       1  UNL1        0.1552
     43 H         -15.8586   -1.5632   -0.7430 H       1  UNL1        0.0657
     44 H         -17.8539   -3.1272    0.2919 H       1  UNL1        0.0649
     45 H         -16.5635   -4.7795    2.0903 H       1  UNL1        0.1029
     46 H         -10.6020   -2.2152   -0.0737 H       1  UNL1        0.0639
     47 H          -0.6905   -2.4801   -0.0319 H       1  UNL1        0.0639
     48 H           1.6838   -2.5702    0.0263 H       1  UNL1        0.0278
     49 H           2.4296   -1.2408    0.9196 H       1  UNL1        0.0278
     50 H           2.4594   -1.2519   -0.8623 H       1  UNL1        0.0278
@<TRIPOS>BOND
     1     1     2    1
     2     2     3   ar
     3     3     4   ar
     4     4     5   ar
     5     5     6    1
     6     6     7   am
     7     7     8    2
     8     7     9    1
     9     9    10    2
    10     9    11   am
    11    11    12    1
    12    12    13    1
    13    13    14   ar
    14    14    15   ar
    15    15    16   ar
    16    16    17   ar
    17    17    18    1
    18    18    19   am
    19    19    20    2
    20    19    21    1
    21    21    22   ar
    22    22    23   ar
    23    23    24   ar
    24    24    25   ar
    25    21    25   ar
    26    17    26   ar
    27    13    26   ar
    28     5    27   ar
    29    27    28   ar
    30     2    28   ar
    31    28    29    1
    32     1    30    1
    33     1    31    1
    34     1    32    1
    35     3    33    1
    36     4    34    1
    37     6    35    1
    38    11    36    1
    39    12    37    1
    40    12    38    1
    41    14    39    1
    42    15    40    1
    43    16    41    1
    44    18    42    1
    45    22    43    1
    46    23    44    1
    47    24    45    1
    48    26    46    1
    49    27    47    1
    50    29    48    1
    51    29    49    1
    52    29    50    1
