@<TRIPOS>MOLECULE
*****
 46 46 0 0 0
SMALL
GASTEIGER

@<TRIPOS>ATOM
      1 C          13.1226   -6.9907  -16.8725 C.3     1  UNL1       -0.0653
      2 C          12.4337   -6.1974  -15.7751 C.3     1  UNL1       -0.0559
      3 C          12.9127   -6.6315  -14.3924 C.3     1  UNL1       -0.0519
      4 C          12.2131   -5.8239  -13.2917 C.3     1  UNL1       -0.0374
      5 C          12.6925   -6.2614  -11.9174 C.3     1  UNL1        0.0107
      6 N          12.0744   -5.5342  -10.7946 N.am    1  UNL1       -0.3255
      7 C          12.3308   -5.8506   -9.4760 C.2     1  UNL1        0.1468
      8 S          13.3321   -7.1232   -9.0623 S.2     1  UNL1       -0.0174
      9 N          11.7053   -5.0478   -8.5313 N.am    1  UNL1       -0.2458
     10 N          11.9117   -5.2911   -7.1400 N.am    1  UNL1       -0.2342
     11 C          11.3504   -4.4836   -6.1646 C.2     1  UNL1        0.2421
     12 O          10.5203   -3.6164   -6.4591 O.2     1  UNL1       -0.2731
     13 C          11.7548   -4.7898   -4.6970 C.3     1  UNL1        0.0846
     14 C          11.0002   -3.8717   -3.7169 C.3     1  UNL1       -0.0445
     15 S          13.5488   -4.4589   -4.3994 S.3     1  UNL1       -0.1127
     16 C          14.4023   -5.7108   -5.3352 C.ar    1  UNL1        0.0090
     17 C          14.0611   -7.0677   -5.2833 C.ar    1  UNL1       -0.0419
     18 C          14.7754   -8.0083   -6.0378 C.ar    1  UNL1        0.0166
     19 C          15.8041   -7.5801   -6.8930 C.ar    1  UNL1        0.2732
     20 N          16.3873   -8.5327   -7.8546 N.pl3   1  UNL1        0.0796
     21 O          15.9912   -9.7032   -7.8215 O.2     1  UNL1        0.0414
     22 O          17.2343   -8.0977   -8.6552 O.co2   1  UNL1       -0.5760
     23 C          16.1571   -6.2265   -6.9485 C.ar    1  UNL1        0.0166
     24 C          15.4610   -5.3018   -6.1609 C.ar    1  UNL1       -0.0419
     25 H          12.7674   -6.6658  -17.8552 H       1  UNL1        0.0230
     26 H          12.9144   -8.0605  -16.7706 H       1  UNL1        0.0230
     27 H          14.2071   -6.8467  -16.8365 H       1  UNL1        0.0230
     28 H          11.3495   -6.3381  -15.8528 H       1  UNL1        0.0263
     29 H          12.6359   -5.1298  -15.9187 H       1  UNL1        0.0263
     30 H          14.0001   -6.4984  -14.3222 H       1  UNL1        0.0266
     31 H          12.7157   -7.7030  -14.2560 H       1  UNL1        0.0266
     32 H          11.1291   -5.9656  -13.3639 H       1  UNL1        0.0280
     33 H          12.4158   -4.7566  -13.4305 H       1  UNL1        0.0280
     34 H          13.7796   -6.1239  -11.8487 H       1  UNL1        0.0462
     35 H          12.4839   -7.3317  -11.7927 H       1  UNL1        0.0462
     36 H          11.3988   -4.8136  -11.0079 H       1  UNL1        0.1478
     37 H          11.0384   -4.3129   -8.7546 H       1  UNL1        0.1718
     38 H          12.6164   -5.9919   -6.9368 H       1  UNL1        0.1728
     39 H          11.5050   -5.8264   -4.4453 H       1  UNL1        0.0508
     40 H          11.2084   -2.8114   -3.9096 H       1  UNL1        0.0245
     41 H          11.2556   -4.0774   -2.6685 H       1  UNL1        0.0245
     42 H           9.9166   -4.0042   -3.8122 H       1  UNL1        0.0245
     43 H          13.2089   -7.4104   -4.7015 H       1  UNL1        0.0631
     44 H          14.4740   -9.0535   -6.0051 H       1  UNL1        0.0686
     45 H          16.9271   -5.8699   -7.6306 H       1  UNL1        0.0686
     46 H          15.7248   -4.2469   -6.2330 H       1  UNL1        0.0631
@<TRIPOS>UNITY_ATOM_ATTR
20 1
charge 1
22 1
charge -1
@<TRIPOS>BOND
     1     1     2    1
     2     2     3    1
     3     3     4    1
     4     4     5    1
     5     5     6    1
     6     6     7    1
     7     7     8    2
     8     7     9    1
     9     9    10    1
    10    10    11   am
    11    11    12    2
    12    13    15    1
    13    15    16    1
    14    16    17   ar
    15    17    18   ar
    16    18    19   ar
    17    19    20    1
    18    20    21    2
    19    20    22    1
    20    19    23   ar
    21    23    24   ar
    22    16    24   ar
    23    13    14    1
    24    13    11    1
    25     1    25    1
    26     1    26    1
    27     1    27    1
    28     2    28    1
    29     2    29    1
    30     3    30    1
    31     3    31    1
    32     4    32    1
    33     4    33    1
    34     5    34    1
    35     5    35    1
    36     6    36    1
    37     9    37    1
    38    10    38    1
    39    13    39    1
    40    14    40    1
    41    14    41    1
    42    14    42    1
    43    17    43    1
    44    18    44    1
    45    23    45    1
    46    24    46    1
