@<TRIPOS>MOLECULE
*****
 65 67 0 0 0
SMALL
GASTEIGER

@<TRIPOS>ATOM
      1 C           1.0400   -0.0643    0.0712 C.3     1  UNL1       -0.0416
      2 C           2.5555   -0.0684    0.0568 C.3     1  UNL1        0.0450
      3 O           3.0430    0.3119    1.3438 O.3     1  UNL1       -0.3767
      4 C           4.4734    0.3366    1.3598 C.3     1  UNL1        0.0817
      5 C           4.9745    0.7577    2.7409 C.3     1  UNL1        0.1128
      6 O           6.4017    0.8588    2.7090 O.3     1  UNL1       -0.4897
      7 C           7.0298    1.0592    3.9085 C.ar    1  UNL1        0.1207
      8 C           8.2114    1.7917    3.8655 C.ar    1  UNL1       -0.0192
      9 C           8.9892    1.9365    5.0257 C.ar    1  UNL1       -0.0462
     10 C           8.5749    1.4147    6.2765 C.ar    1  UNL1        0.0373
     11 C           9.4205    1.7348    7.4852 C.2     1  UNL1        0.2495
     12 O          10.4269    2.4021    7.2408 O.2     1  UNL1       -0.2698
     13 N           9.0577    1.3196    8.7952 N.am    1  UNL1       -0.2627
     14 C           9.7542    1.6120    9.9962 C.2     1  UNL1        0.1533
     15 S          11.1699    2.5283   10.1018 S.2     1  UNL1       -0.0170
     16 N           9.1937    1.0734   11.1724 N.am    1  UNL1       -0.2453
     17 N           9.8516    1.3347   12.4445 N.am    1  UNL1       -0.2311
     18 C           9.4151    0.7804   13.6399 C.2     1  UNL1        0.2601
     19 O           8.4311    0.0399   13.7126 O.2     1  UNL1       -0.2687
     20 C          10.1754    1.1435   14.8937 C.ar    1  UNL1        0.0383
     21 C          10.3391    0.2304   15.9532 C.ar    1  UNL1       -0.0478
     22 C          10.9031    0.6297   17.1969 C.ar    1  UNL1       -0.0398
     23 C          11.3674    1.9388   17.3847 C.ar    1  UNL1        0.0337
     24 N          12.0195    2.3194   18.6015 N.am    1  UNL1       -0.2815
     25 C          12.5464    3.5844   18.8560 C.2     1  UNL1        0.2483
     26 O          12.4877    4.5620   18.1054 O.2     1  UNL1       -0.2699
     27 C          13.2804    3.8284   20.1219 C.ar    1  UNL1        0.0373
     28 C          13.1561    5.0977   20.7151 C.ar    1  UNL1       -0.0496
     29 C          14.0135    5.4903   21.7419 C.ar    1  UNL1       -0.0608
     30 C          14.9656    4.5963   22.2227 C.ar    1  UNL1       -0.0588
     31 C          15.0975    3.3250   21.6458 C.ar    1  UNL1       -0.0497
     32 C          16.1877    2.4004   22.0973 C.3     1  UNL1       -0.0397
     33 C          14.2515    2.9418   20.5896 C.ar    1  UNL1       -0.0467
     34 C          11.1844    2.8312   16.3222 C.ar    1  UNL1       -0.0398
     35 C          10.6096    2.4498   15.0976 C.ar    1  UNL1       -0.0478
     36 C           7.3949    0.6744    6.3015 C.ar    1  UNL1       -0.0462
     37 C           6.6344    0.4975    5.1249 C.ar    1  UNL1       -0.0192
     38 H           0.6460   -0.3540   -0.9075 H       1  UNL1        0.0252
     39 H           0.6569    0.9293    0.3250 H       1  UNL1        0.0252
     40 H           0.6568   -0.7595    0.8251 H       1  UNL1        0.0252
     41 H           2.9175    0.6402   -0.6961 H       1  UNL1        0.0557
     42 H           2.9188   -1.0720   -0.1897 H       1  UNL1        0.0557
     43 H           4.8434    1.0321    0.5980 H       1  UNL1        0.0594
     44 H           4.8577   -0.6621    1.1173 H       1  UNL1        0.0594
     45 H           4.6187    0.0158    3.4622 H       1  UNL1        0.0720
     46 H           4.5502    1.7320    3.0086 H       1  UNL1        0.0720
     47 H           8.5325    2.2602    2.9356 H       1  UNL1        0.0654
     48 H           9.9380    2.4690    4.9367 H       1  UNL1        0.0626
     49 H           8.2085    0.7853    8.8885 H       1  UNL1        0.1569
     50 H           8.3423    0.5187   11.2408 H       1  UNL1        0.1718
     51 H          10.7131    1.8792   12.3774 H       1  UNL1        0.1731
     52 H          10.0250   -0.8043   15.8218 H       1  UNL1        0.0626
     53 H          10.9465   -0.0994   18.0051 H       1  UNL1        0.0636
     54 H          12.1256    1.6073   19.3156 H       1  UNL1        0.1551
     55 H          12.4170    5.8046   20.3406 H       1  UNL1        0.0625
     56 H          13.9661    6.5023   22.1382 H       1  UNL1        0.0618
     57 H          15.6210    4.9081   23.0342 H       1  UNL1        0.0620
     58 H          16.7680    2.8342   22.9183 H       1  UNL1        0.0278
     59 H          16.8747    2.2062   21.2673 H       1  UNL1        0.0278
     60 H          15.7563    1.4576   22.4444 H       1  UNL1        0.0278
     61 H          14.4120    1.9893   20.0937 H       1  UNL1        0.0628
     62 H          11.4586    3.8757   16.4072 H       1  UNL1        0.0636
     63 H          10.4786    3.2192   14.3430 H       1  UNL1        0.0626
     64 H           7.0380    0.2014    7.2067 H       1  UNL1        0.0626
     65 H           5.7403   -0.1127    5.1882 H       1  UNL1        0.0654
@<TRIPOS>BOND
     1     1     2    1
     2     2     3    1
     3     3     4    1
     4     4     5    1
     5     5     6    1
     6     6     7    1
     7     7     8   ar
     8     8     9   ar
     9     9    10   ar
    10    10    11    1
    11    11    12    2
    12    11    13   am
    13    13    14    1
    14    14    15    2
    15    14    16    1
    16    16    17    1
    17    17    18   am
    18    18    19    2
    19    18    20    1
    20    20    21   ar
    21    21    22   ar
    22    22    23   ar
    23    23    24    1
    24    24    25   am
    25    25    26    2
    26    25    27    1
    27    27    28   ar
    28    28    29   ar
    29    29    30   ar
    30    30    31   ar
    31    31    32    1
    32    31    33   ar
    33    27    33   ar
    34    23    34   ar
    35    34    35   ar
    36    20    35   ar
    37    10    36   ar
    38    36    37   ar
    39     7    37   ar
    40     1    38    1
    41     1    39    1
    42     1    40    1
    43     2    41    1
    44     2    42    1
    45     4    43    1
    46     4    44    1
    47     5    45    1
    48     5    46    1
    49     8    47    1
    50     9    48    1
    51    13    49    1
    52    16    50    1
    53    17    51    1
    54    21    52    1
    55    22    53    1
    56    24    54    1
    57    28    55    1
    58    29    56    1
    59    30    57    1
    60    32    58    1
    61    32    59    1
    62    32    60    1
    63    33    61    1
    64    34    62    1
    65    35    63    1
    66    36    64    1
    67    37    65    1
