REMARK  9 active torsions:
REMARK  status: ('A' for Active; 'I' for Inactive)
REMARK    1  A    between atoms: C_2  and  O_3 
REMARK    2  A    between atoms: O_3  and  C_4 
REMARK    3  A    between atoms: C_4  and  C_6 
REMARK    4  A    between atoms: C_7  and  C_8 
REMARK    5  A    between atoms: C_11  and  O_12 
REMARK    6  A    between atoms: C_13  and  O_14 
REMARK    7  A    between atoms: O_14  and  C_15 
REMARK    8  A    between atoms: C_22  and  C_24 
REMARK    9  A    between atoms: C_22  and  O_23 
ROOT
ATOM      1  C   UNL d   1       4.779   1.780  -2.380  0.00  0.00     0.177 C 
ATOM      2  C   UNL d   1       5.312   3.065  -1.712  0.00  0.00     0.136 C 
ATOM      3  N   UNL d   1       4.197   3.925  -1.325  0.00  0.00    -0.358 N 
ATOM      4  C   UNL d   1       3.131   4.130  -2.153  0.00  0.00     0.170 C 
ATOM      5  S   UNL d   1       2.373   5.588  -2.317  0.00  0.00    -0.041 SA
ATOM      6  N   UNL d   1       2.701   2.990  -2.768  0.00  0.00    -0.328 N 
ATOM      7  C   UNL d   1       3.713   2.184  -3.416  0.00  0.00     0.249 C 
ATOM      8  H   UNL d   1       4.286   4.582  -0.559  0.00  0.00     0.162 HD
ATOM      9  H   UNL d   1       1.765   2.977  -3.153  0.00  0.00     0.165 HD
ENDROOT
BRANCH   2  10
ATOM     10  C   UNL d   1       6.364   2.818  -0.648  0.00  0.00    -0.032 A 
ATOM     11  C   UNL d   1       7.526   2.102  -0.996  0.00  0.00     0.012 A 
ATOM     12  C   UNL d   1       8.480   1.778  -0.035  0.00  0.00     0.040 A 
ATOM     13  C   UNL d   1       8.304   2.197   1.281  0.00  0.00     0.099 A 
ATOM     14  C   UNL d   1       7.168   2.928   1.651  0.00  0.00     0.102 A 
ATOM     15  C   UNL d   1       6.210   3.234   0.679  0.00  0.00     0.049 A 
BRANCH  13  16
ATOM     16  O   UNL d   1       9.269   1.874   2.194  0.00  0.00    -0.358 OA
ATOM     17  H   UNL d   1       9.986   1.381   1.770  0.00  0.00     0.217 HD
ENDBRANCH  13  16
BRANCH  14  18
ATOM     18  O   UNL d   1       6.839   3.396   2.899  0.00  0.00    -0.349 OA
BRANCH  18  19
ATOM     19  C   UNL d   1       7.768   3.096   3.934  0.00  0.00     0.171 C 
ATOM     20  C   UNL d   1       7.279   3.663   5.246  0.00  0.00     0.034 C 
ENDBRANCH  18  19
ENDBRANCH  14  18
ENDBRANCH   2  10
BRANCH   1  21
ATOM     21  C   UNL d   1       4.281   0.847  -1.278  0.00  0.00     0.270 C 
ATOM     22  O   UNL d   1       5.048   0.195  -0.555  0.00  0.00    -0.265 OA
BRANCH  21  23
ATOM     23  O   UNL d   1       2.930   0.785  -1.152  0.00  0.00    -0.321 OA
BRANCH  23  24
ATOM     24  C   UNL d   1       2.460  -0.009  -0.047  0.00  0.00     0.174 C 
ATOM     25  C   UNL d   1       0.942  -0.003  -0.034  0.00  0.00     0.034 C 
ENDBRANCH  23  24
ENDBRANCH  21  23
ENDBRANCH   1  21
BRANCH   7  26
ATOM     26  C   UNL d   1       4.343   2.954  -4.670  0.00  0.00     0.438 C 
ATOM     27  F   UNL d   1       5.418   3.712  -4.369  0.00  0.00    -0.166 F 
ATOM     28  F   UNL d   1       4.749   2.093  -5.633  0.00  0.00    -0.166 F 
ATOM     29  F   UNL d   1       3.432   3.784  -5.240  0.00  0.00    -0.166 F 
ENDBRANCH   7  26
BRANCH   7  30
ATOM     30  O   UNL d   1       3.027   1.023  -3.908  0.00  0.00    -0.363 OA
ATOM     31  H   UNL d   1       2.652   0.557  -3.141  0.00  0.00     0.213 HD
ENDBRANCH   7  30
TORSDOF 9
