@<TRIPOS>MOLECULE
*****
 27 28 0 0 0
SMALL
GASTEIGER

@<TRIPOS>ATOM
      1 O           0.9444   -0.1094    0.0283 O.2     1  UNL1       -0.2699
      2 C           2.1699   -0.0597    0.1325 C.2     1  UNL1        0.2483
      3 N           2.8726    0.9320    0.8143 N.am    1  UNL1       -0.2814
      4 C           2.2548    1.9872    1.5392 C.ar    1  UNL1        0.0367
      5 C           1.1186    1.7744    2.3279 C.ar    1  UNL1       -0.0185
      6 C           0.5636    2.8232    3.0767 C.ar    1  UNL1        0.0855
      7 CL         -0.7985    2.5036    4.0894 Cl      1  UNL1       -0.0797
      8 C           1.1144    4.1058    3.0252 C.ar    1  UNL1        0.1534
      9 O           0.5855    5.1479    3.7457 O.3     1  UNL1       -0.5038
     10 C           2.2365    4.3254    2.2244 C.ar    1  UNL1        0.0855
     11 CL          2.9373    5.9007    2.0944 Cl      1  UNL1       -0.0797
     12 C           2.8184    3.2690    1.5037 C.ar    1  UNL1       -0.0185
     13 C           2.9910   -1.0761   -0.5953 C.ar    1  UNL1        0.0370
     14 C           4.0786   -1.6942    0.0309 C.ar    1  UNL1       -0.0496
     15 C           4.8510   -2.6330   -0.6644 C.ar    1  UNL1       -0.0610
     16 C           4.5026   -3.0122   -1.9611 C.ar    1  UNL1       -0.0617
     17 C           3.4008   -2.4256   -2.5815 C.ar    1  UNL1       -0.0610
     18 C           2.6466   -1.4584   -1.9026 C.ar    1  UNL1       -0.0496
     19 H           3.8547    1.0403    0.5848 H       1  UNL1        0.1551
     20 H           0.6842    0.7802    2.3985 H       1  UNL1        0.0652
     21 H          -0.1834    4.8261    4.2510 H       1  UNL1        0.2923
     22 H           3.6780    3.4794    0.8728 H       1  UNL1        0.0652
     23 H           4.3079   -1.4849    1.0715 H       1  UNL1        0.0625
     24 H           5.7221   -3.0801   -0.1911 H       1  UNL1        0.0618
     25 H           5.0807   -3.7752   -2.4802 H       1  UNL1        0.0618
     26 H           3.1320   -2.7237   -3.5937 H       1  UNL1        0.0618
     27 H           1.7868   -1.0127   -2.3992 H       1  UNL1        0.0625
@<TRIPOS>BOND
     1     1     2    2
     2     2     3   am
     3     3     4    1
     4     4     5   ar
     5     5     6   ar
     6     6     7    1
     7     6     8   ar
     8     8     9    1
     9     8    10   ar
    10    10    11    1
    11    10    12   ar
    12     4    12   ar
    13     2    13    1
    14    13    14   ar
    15    14    15   ar
    16    15    16   ar
    17    16    17   ar
    18    17    18   ar
    19    13    18   ar
    20     3    19    1
    21     5    20    1
    22     9    21    1
    23    12    22    1
    24    14    23    1
    25    15    24    1
    26    16    25    1
    27    17    26    1
    28    18    27    1
