REMARK  6 active torsions:
REMARK  status: ('A' for Active; 'I' for Inactive)
REMARK    1  A    between atoms: C_5  and  N_6 
REMARK    2  A    between atoms: C_7  and  C_8 
REMARK    3  A    between atoms: C_13  and  O_14 
REMARK    4  A    between atoms: C_22  and  N_23 
REMARK    5  A    between atoms: C_24  and  C_25 
REMARK    6  A    between atoms: C_30  and  O_31 
ROOT
ATOM      1  C   UNL d   1       0.917  -0.434   0.977  0.00  0.00     0.269 C 
ATOM      2  N   UNL d   1       2.842  -0.322   0.473  0.00  0.00    -0.074 N 
ATOM      3  C   UNL d   1       3.700   0.423  -1.106  0.00  0.00     0.239 C 
ATOM      4  C   UNL d   1       4.370  -0.568  -2.002  0.00  0.00     0.091 C 
ATOM      5  C   UNL d   1       3.906  -1.876  -1.506  0.00  0.00     0.169 C 
ATOM      6  O   UNL d   1       4.805  -2.787  -2.256  0.00  0.00    -0.317 OA
ATOM      7  C   UNL d   1       4.598  -4.133  -2.107  0.00  0.00     0.080 C 
ATOM      8  C   UNL d   1       5.305  -5.048  -2.883  0.00  0.00     0.037 C 
ATOM      9  C   UNL d   1       4.966  -6.412  -2.831  0.00  0.00     0.003 C 
ATOM     10  C   UNL d   1       3.936  -6.864  -2.009  0.00  0.00     0.001 C 
ATOM     11  C   UNL d   1       3.282  -5.960  -1.201  0.00  0.00     0.012 C 
ATOM     12  C   UNL d   1       3.671  -4.619  -1.200  0.00  0.00     0.001 C 
ATOM     13  C   UNL d   1       3.074  -3.691  -0.203  0.00  0.00     0.153 C 
ATOM     14  C   UNL d   1       3.953  -2.410  -0.053  0.00  0.00     0.099 C 
ATOM     15  C   UNL d   1       3.358  -1.566   1.016  0.00  0.00     0.246 C 
ATOM     16  H   UNL d   1       3.228   0.389   1.122  0.00  0.00     0.279 HD
ENDROOT
BRANCH   5  17
ATOM     17  N   UNL d   1       2.425  -1.599  -1.940  0.00  0.00    -0.262 NA
ATOM     18  C   UNL d   1       1.615  -0.686  -1.330  0.00  0.00     0.128 C 
BRANCH  18  19
ATOM     19  C   UNL d   1       1.522   1.129  -0.618  0.00  0.00     0.014 C 
ATOM     20  C   UNL d   1       0.762   1.775  -1.460  0.00  0.00     0.015 C 
ATOM     21  C   UNL d   1       0.252   3.013  -1.018  0.00  0.00     0.001 C 
ATOM     22  C   UNL d   1       0.399   3.551   0.310  0.00  0.00     0.003 C 
ATOM     23  C   UNL d   1       1.105   2.978   1.325  0.00  0.00     0.037 C 
ATOM     24  C   UNL d   1       1.797   1.850   0.891  0.00  0.00     0.077 C 
BRANCH  24  25
ATOM     25  O   UNL d   1       2.554   1.311   1.994  0.00  0.00    -0.360 OA
ATOM     26  H   UNL d   1       2.520   1.781   2.861  0.00  0.00     0.217 HD
ENDBRANCH  24  25
ENDBRANCH  18  19
ENDBRANCH   5  17
BRANCH  13  27
ATOM     27  N   UNL d   1       2.750  -4.311   1.085  0.00  0.00    -0.290 NA
ATOM     28  C   UNL d   1       3.773  -4.809   1.680  0.00  0.00     0.125 C 
BRANCH  28  29
ATOM     29  C   UNL d   1       3.619  -5.416   2.984  0.00  0.00     0.014 A 
ATOM     30  C   UNL d   1       2.505  -6.212   3.246  0.00  0.00     0.015 A 
ATOM     31  C   UNL d   1       2.271  -6.617   4.551  0.00  0.00     0.001 A 
ATOM     32  C   UNL d   1       3.212  -6.326   5.541  0.00  0.00     0.003 A 
ATOM     33  C   UNL d   1       4.390  -5.632   5.233  0.00  0.00     0.037 A 
ATOM     34  C   UNL d   1       4.559  -5.113   3.960  0.00  0.00     0.077 A 
BRANCH  34  35
ATOM     35  O   UNL d   1       5.592  -4.268   3.660  0.00  0.00    -0.360 OA
ATOM     36  H   UNL d   1       6.140  -4.138   4.453  0.00  0.00     0.217 HD
ENDBRANCH  34  35
ENDBRANCH  28  29
ENDBRANCH  13  27
TORSDOF 6
