@<TRIPOS>MOLECULE
*****
 58 61 0 0 0
SMALL
GASTEIGER

@<TRIPOS>ATOM
      1 CG1         4.0079    2.5330   -2.2113 C.3     1  VAL1       -0.0606
      2 CB          2.9728    1.4573   -1.9542 C.3     1  VAL1       -0.0230
      3 CG2         2.1788    2.2525   -0.9896 C.3     1  VAL1       -0.0606
      4 CA          3.2886    0.0627   -1.3129 C.3     1  VAL1        0.0649
      5 N           2.6435   -0.1915    0.0265 N.am    1  VAL1       -0.3056
      6 C           2.6026   -1.4543    0.5614 C.2     0  UNK0        0.2345
      7 O           3.0623   -2.3945   -0.0814 O.2     0  UNK0       -0.2737
      8 C           1.9850   -1.5939    2.0030 C.3     0  UNK0        0.1103
      9 C           0.5358   -1.0264    2.1661 C.3     0  UNK0        0.0017
     10 C           0.2682    0.4289    1.8440 C.ar    0  UNK0       -0.0201
     11 C           0.4348    1.5311    2.6646 C.ar    0  UNK0        0.0060
     12 N           0.2495    2.6641    1.9049 N.ar    0  UNK0       -0.3604
     13 C          -0.2501    2.3342    0.6565 C.ar    0  UNK0        0.0467
     14 C          -0.4556    3.1451   -0.4940 C.ar    0  UNK0       -0.0378
     15 C          -0.5861    2.4986   -1.7541 C.ar    0  UNK0       -0.0598
     16 C          -0.5600    1.1002   -1.8550 C.ar    0  UNK0       -0.0611
     17 C          -0.4208    0.3091   -0.6924 C.ar    0  UNK0       -0.0523
     18 C          -0.2373    0.9297    0.5849 C.ar    0  UNK0        0.0029
     19 N           2.0307   -3.0338    2.4601 N.am    0  UNK0       -0.2445
     20 C           1.4509   -4.0427    1.7003 C.2     0  UNK0        0.2521
     21 O           1.5499   -4.2234    0.4756 O.2     0  UNK0       -0.2698
     22 C           0.5516   -4.9707    2.3927 C.ar    0  UNK0        0.0579
     23 C          -0.2390   -5.8545    1.6408 C.ar    0  UNK0       -0.0478
     24 C          -1.1621   -6.6650    2.2795 C.ar    0  UNK0       -0.0609
     25 C          -1.2776   -6.5927    3.6665 C.ar    0  UNK0       -0.0600
     26 C          -0.4929   -5.6897    4.4114 C.ar    0  UNK0       -0.0400
     27 C           0.4377   -4.8575    3.7817 C.ar    0  UNK0        0.0424
     28 N           1.1165   -3.8219    4.4534 N.pl3   0  UNK0       -0.3031
     29 C           2.3475   -3.4452    3.7961 C.3     0  UNK0        0.1965
     30 O           2.9600   -2.4473    4.5633 O.3     0  UNK0       -0.3588
     31 C           4.8241   -0.0410   -1.3381 C.2     1  VAL1        0.0622
     32 O           5.3884    0.0534   -0.2068 O.co2   1  VAL1       -0.5479
     33 OXT         5.3379   -0.0848   -2.4961 O.co2   1  VAL1       -0.5479
     34 HG11        3.4944    3.4167   -2.6280 H       1  VAL1        0.0233
     35 HG12        4.7819    2.2584   -2.9100 H       1  VAL1        0.0233
     36 HG13        4.4344    2.8490   -1.2498 H       1  VAL1        0.0233
     37 HB          2.3822    1.2716   -2.8692 H       1  VAL1        0.0317
     38 HG21        2.6152    2.4376   -0.0080 H       1  VAL1        0.0233
     39 HG22        1.3978    1.5739   -0.8396 H       1  VAL1        0.0233
     40 HG23        1.8268    3.1929   -1.4143 H       1  VAL1        0.0233
     41 HA          2.8617   -0.7204   -1.9621 H       1  VAL1        0.0562
     42 H           2.6374    0.5701    0.6869 H       1  VAL1        0.1494
     43 H           2.6585   -1.0190    2.6534 H       0  UNK0        0.0601
     44 H           0.2156   -1.1707    3.2095 H       0  UNK0        0.0337
     45 H          -0.1530   -1.6247    1.5607 H       0  UNK0        0.0337
     46 H           0.7359    1.6184    3.7014 H       0  UNK0        0.0810
     47 H           0.5175    3.5974    2.1931 H       0  UNK0        0.1653
     48 H          -0.1260    4.1883   -0.4847 H       0  UNK0        0.0638
     49 H          -0.3524    3.0730   -2.6586 H       0  UNK0        0.0618
     50 H          -0.3030    0.6445   -2.8180 H       0  UNK0        0.0618
     51 H          -0.0759   -0.7209   -0.8192 H       0  UNK0        0.0624
     52 H          -0.1478   -5.8764    0.5547 H       0  UNK0        0.0626
     53 H          -1.7866   -7.3354    1.6943 H       0  UNK0        0.0618
     54 H          -1.9967   -7.2354    4.1683 H       0  UNK0        0.0618
     55 H          -0.6232   -5.6569    5.4883 H       0  UNK0        0.0636
     56 H           1.1956   -3.9197    5.4566 H       0  UNK0        0.1501
     57 H           3.0520   -4.2887    3.7317 H       0  UNK0        0.1036
     58 H           2.2859   -1.7653    4.6656 H       0  UNK0        0.2134
@<TRIPOS>UNITY_ATOM_ATTR
33 1
charge -1
@<TRIPOS>BOND
     1     1     2    1
     2     2     3    1
     3     5     6   am
     4     6     7    2
     5     6     8    1
     6     8     9    1
     7     9    10    1
     8    10    11   ar
     9    11    12   ar
    10    12    13   ar
    11    13    14   ar
    12    14    15   ar
    13    15    16   ar
    14    16    17   ar
    15    17    18   ar
    16    10    18   ar
    17    13    18   ar
    18     8    19    1
    19    19    20   am
    20    20    21    2
    21    20    22    1
    22    22    23   ar
    23    23    24   ar
    24    24    25   ar
    25    25    26   ar
    26    26    27   ar
    27    22    27   ar
    28    27    28    1
    29    28    29    1
    30    19    29    1
    31    29    30    1
    32     4    31    1
    33    31    32   ar
    34    31    33   ar
    35     4     5    1
    36     4     2    1
    37     1    34    1
    38     1    35    1
    39     1    36    1
    40     2    37    1
    41     3    38    1
    42     3    39    1
    43     3    40    1
    44     4    41    1
    45     5    42    1
    46     8    43    1
    47     9    44    1
    48     9    45    1
    49    11    46    1
    50    12    47    1
    51    14    48    1
    52    15    49    1
    53    16    50    1
    54    17    51    1
    55    23    52    1
    56    24    53    1
    57    25    54    1
    58    26    55    1
    59    28    56    1
    60    29    57    1
    61    30    58    1
