@<TRIPOS>MOLECULE
*****
 56 59 0 0 0
SMALL
GASTEIGER

@<TRIPOS>ATOM
      1 C           0.9503   -0.0754    0.0461 C.3     0  UNK0       -0.0613
      2 C           2.4772   -0.0712    0.0640 C.3     0  UNK0       -0.0305
      3 C           2.9392    0.8461    1.1665 C.ar    0  UNK0       -0.0476
      4 C           3.2797    0.3622    2.4346 C.ar    0  UNK0       -0.0582
      5 C           3.4235    1.2474    3.5144 C.ar    0  UNK0       -0.0549
      6 C           3.3260    2.6372    3.3213 C.ar    0  UNK0       -0.0082
      7 C           3.6060    3.6276    4.4386 C.3     0  UNK0        0.1281
      8 N           2.5317    4.5586    4.7004 N.pl3   0  UNK0       -0.2424
      9 N           2.6458    5.7792    4.0904 N.2     0  UNK0       -0.1627
     10 C           3.8570    5.7911    3.6332 C.2     0  UNK0        0.1730
     11 S           4.6713    6.9492    2.6836 S.3     0  UNK0       -0.0798
     12 C           3.4169    8.2528    2.2290 C.3     0  UNK0        0.0774
     13 C           4.1118    9.2901    1.2998 C.2     0  UNK0        0.2238
     14 O           5.3623    9.2312    1.0773 O.2     0  UNK0       -0.2749
     15 N           3.3963   10.2479    0.6641 N.am    1  TRP1       -0.3063
     16 CA          4.0351   11.3555   -0.2039 C.3     1  TRP1        0.0666
     17 CB          4.7994   10.9569   -1.7598 C.3     1  TRP1       -0.0019
     18 CG          6.0835    9.7595   -2.1612 C.ar    1  TRP1       -0.0203
     19 CD1         5.2899    8.6275   -2.1664 C.ar    1  TRP1        0.0060
     20 NE1         6.1795    7.8968   -1.4218 N.ar    1  TRP1       -0.3604
     21 CE2         7.0557    7.5179   -2.3946 C.ar    1  TRP1        0.0467
     22 CZ2         7.4567    6.1888   -2.6249 C.ar    1  TRP1       -0.0378
     23 CH2         8.0755    5.8113   -3.7847 C.ar    1  TRP1       -0.0598
     24 CZ3         8.2550    6.8281   -4.7067 C.ar    1  TRP1       -0.0611
     25 CE3         7.8359    8.2798   -4.4329 C.ar    1  TRP1       -0.0523
     26 CD2         7.1555    8.7230   -3.1377 C.ar    1  TRP1        0.0029
     27 C           2.8475   12.5136   -0.3311 C.2     1  TRP1        0.0623
     28 O           1.7859   12.2457    0.3316 O.co2   1  TRP1       -0.5479
     29 OXT         3.1382   13.5493   -0.9885 O.co2   1  TRP1       -0.5479
     30 N           4.5783    4.5985    3.9476 N.pl3   0  UNK0       -0.2996
     31 C           3.0149    3.0973    2.0284 C.ar    0  UNK0       -0.0549
     32 C           2.8417    2.2219    0.9656 C.ar    0  UNK0       -0.0582
     33 H           0.5709   -0.7185   -0.7510 H       0  UNK0        0.0233
     34 H           0.5495    0.9331   -0.1164 H       0  UNK0        0.0233
     35 H           0.5486   -0.4316    1.0019 H       0  UNK0        0.0233
     36 H           2.8623    0.2815   -0.9007 H       0  UNK0        0.0311
     37 H           2.8591   -1.0870    0.2108 H       0  UNK0        0.0311
     38 H           3.4014   -0.7087    2.5922 H       0  UNK0        0.0620
     39 H           3.5885    0.8256    4.5043 H       0  UNK0        0.0621
     40 H           3.9794    3.1366    5.3446 H       0  UNK0        0.0772
     41 H           1.7165    4.2969    5.2414 H       0  UNK0        0.1705
     42 H           3.0581    8.7352    3.1455 H       0  UNK0        0.0475
     43 H           2.5695    7.8018    1.6990 H       0  UNK0        0.0475
     44 H           2.4860   10.5691    1.0578 H       1  TRP1        0.1494
     45 HA          4.7629   11.8569    0.4555 H       1  TRP1        0.0563
     46 HB1         4.9566   11.8929   -2.2866 H       1  TRP1        0.0335
     47 HB2         3.9082   10.4579   -2.1863 H       1  TRP1        0.0335
     48 HD1         4.8275    8.3399   -3.1168 H       1  TRP1        0.0810
     49 HE1         6.5813    8.2420   -0.5605 H       1  TRP1        0.1653
     50 HZ2         7.1148    5.4413   -1.9209 H       1  TRP1        0.0638
     51 HH2         8.3297    4.7556   -3.9305 H       1  TRP1        0.0618
     52 HZ3         8.6898    6.4771   -5.6604 H       1  TRP1        0.0618
     53 HE3         8.0980    8.9078   -5.2917 H       1  TRP1        0.0624
     54 H           5.5605    4.4649    3.7852 H       0  UNK0        0.1501
     55 H           2.8724    4.1544    1.8250 H       0  UNK0        0.0621
     56 H           2.5806    2.6202   -0.0132 H       0  UNK0        0.0620
@<TRIPOS>UNITY_ATOM_ATTR
29 1
charge -1
@<TRIPOS>BOND
     1     1     2    1
     2     2     3    1
     3     3     4   ar
     4     4     5   ar
     5     5     6   ar
     6     6     7    1
     7     7     8    1
     8     8     9    1
     9     9    10    2
    10    10    11    1
    11    11    12    1
    12    12    13    1
    13    13    14    2
    14    13    15   am
    15    15    16    1
    16    16    17    1
    17    17    18    1
    18    18    19   ar
    19    19    20   ar
    20    20    21   ar
    21    21    22   ar
    22    22    23   ar
    23    23    24   ar
    24    24    25   ar
    25    25    26   ar
    26    18    26   ar
    27    21    26   ar
    28    16    27    1
    29    27    28   ar
    30    27    29   ar
    31    10    30    1
    32     7    30    1
    33     6    31   ar
    34    31    32   ar
    35     3    32   ar
    36     1    33    1
    37     1    34    1
    38     1    35    1
    39     2    36    1
    40     2    37    1
    41     4    38    1
    42     5    39    1
    43     7    40    1
    44     8    41    1
    45    12    42    1
    46    12    43    1
    47    15    44    1
    48    16    45    1
    49    17    46    1
    50    17    47    1
    51    19    48    1
    52    20    49    1
    53    22    50    1
    54    23    51    1
    55    24    52    1
    56    25    53    1
    57    30    54    1
    58    31    55    1
    59    32    56    1
