@<TRIPOS>MOLECULE
*****
 56 59 0 0 0
SMALL
GASTEIGER

@<TRIPOS>ATOM
      1 O           1.2804    4.6535    0.7862 O.2     1  UNL1       -0.2717
      2 C           0.3561    5.1751    0.1468 C.2     1  UNL1        0.2549
      3 C          -0.1954    4.5182   -1.2580 C.3     1  UNL1        0.1684
      4 O           0.5513    3.4725   -1.9631 O.3     1  UNL1       -0.4539
      5 C           0.2663    3.2788   -3.3240 C.2     1  UNL1        0.3284
      6 O          -0.7503    3.7379   -3.8225 O.2     1  UNL1       -0.2487
      7 C           1.4936    2.5719   -4.1957 C.3     1  UNL1        0.1246
      8 C           2.6334    2.1391   -3.2426 C.3     1  UNL1        0.0041
      9 C           3.1833    3.2857   -2.4072 C.2     1  UNL1        0.0099
     10 C           2.9324    4.6154   -2.4970 C.ar    1  UNL1        0.0509
     11 C           2.1060    5.4280   -3.3571 C.ar    1  UNL1       -0.0482
     12 C           1.5564    6.5665   -2.9301 C.ar    1  UNL1       -0.0608
     13 C           1.9000    7.1011   -1.6451 C.ar    1  UNL1       -0.0555
     14 C           2.7613    6.4919   -0.8023 C.ar    1  UNL1        0.0098
     15 C           3.2740    5.1353   -1.1572 C.ar    1  UNL1        0.2086
     16 N           3.8011    4.2398   -0.4068 N.2     1  UNL1       -0.2369
     17 C           3.8776    2.9465   -1.1115 C.3     1  UNL1        0.1661
     18 N           2.1955    3.2865   -5.3412 N.am    1  UNL1       -0.2976
     19 C           1.5825    3.9255   -6.3987 C.2     1  UNL1        0.2513
     20 O           0.3420    4.0159   -6.4343 O.2     1  UNL1       -0.2696
     21 C           2.4642    4.5547   -7.3758 C.ar    1  UNL1        0.0738
     22 C           3.5602    4.0191   -8.0323 C.ar    1  UNL1       -0.0425
     23 C           4.1557    4.9280   -8.9618 C.ar    1  UNL1       -0.0540
     24 C           3.5124    6.1453   -8.9808 C.ar    1  UNL1       -0.0236
     25 S           2.1761    6.1680   -7.9041 S.2     1  UNL1       -0.0921
     26 N          -0.0895    6.4496    0.5546 N.am    1  UNL1       -0.2827
     27 C          -1.3025    7.0387    0.1726 C.ar    1  UNL1        0.0339
     28 C          -2.3066    6.1729   -0.2243 C.ar    1  UNL1       -0.0341
     29 C          -3.4257    6.6094   -0.8847 C.ar    1  UNL1        0.0173
     30 C          -3.6914    7.9682   -0.8867 C.ar    1  UNL1        0.2733
     31 N          -4.9311    8.4151   -1.5174 N.pl3   1  UNL1        0.0796
     32 O          -5.6225    7.5565   -2.0849 O.2     1  UNL1        0.0414
     33 O          -5.2049    9.6179   -1.4498 O.co2   1  UNL1       -0.5760
     34 C          -2.8066    8.8715   -0.2686 C.ar    1  UNL1        0.0173
     35 C          -1.5636    8.4119    0.2084 C.ar    1  UNL1       -0.0341
     36 H          -0.3635    5.3607   -1.9400 H       1  UNL1        0.0796
     37 H          -1.1518    4.0542   -1.0618 H       1  UNL1        0.0796
     38 H           1.0526    1.6831   -4.6626 H       1  UNL1        0.0618
     39 H           2.2571    1.3223   -2.6084 H       1  UNL1        0.0336
     40 H           3.4768    1.7089   -3.8027 H       1  UNL1        0.0336
     41 H           1.6302    5.0773   -4.2507 H       1  UNL1        0.0626
     42 H           0.6928    6.9578   -3.4795 H       1  UNL1        0.0618
     43 H           1.2824    7.9437   -1.3358 H       1  UNL1        0.0620
     44 H           2.8606    6.8622    0.2098 H       1  UNL1        0.0683
     45 H           3.9146    4.3610    0.5991 H       1  UNL1        0.4459
     46 H           3.3694    2.1766   -0.5151 H       1  UNL1        0.1077
     47 H           4.9251    2.6838   -1.2716 H       1  UNL1        0.1077
     48 H           3.2132    3.3021   -5.3531 H       1  UNL1        0.1499
     49 H           3.8892    2.9989   -7.8982 H       1  UNL1        0.0630
     50 H           5.0023    4.6957   -9.5993 H       1  UNL1        0.0623
     51 H           3.7545    7.0074   -9.5940 H       1  UNL1        0.0693
     52 H           0.4883    6.9732    1.2110 H       1  UNL1        0.1549
     53 H          -2.2398    5.1193   -0.0017 H       1  UNL1        0.0638
     54 H          -4.0743    5.8671   -1.3396 H       1  UNL1        0.0686
     55 H          -3.0735    9.9234   -0.1714 H       1  UNL1        0.0686
     56 H          -0.8416    9.1443    0.5690 H       1  UNL1        0.0638
@<TRIPOS>UNITY_ATOM_ATTR
16 1
charge 1
31 1
charge 1
33 1
charge -1
@<TRIPOS>BOND
     1     1     2    2
     2     2     3    1
     3     3     4    1
     4     4     5    1
     5     5     6    2
     6     8     9    1
     7     9    10    2
     8    10    11   ar
     9    11    12   ar
    10    12    13   ar
    11    13    14   ar
    12    14    15   ar
    13    10    15   ar
    14    15    16    2
    15    16    17    1
    16     9    17    1
    17     7    18    1
    18    18    19   am
    19    19    20    2
    20    19    21    1
    21    21    22   ar
    22    22    23   ar
    23    23    24   ar
    24    24    25   ar
    25    21    25   ar
    26     2    26   am
    27    26    27    1
    28    27    28   ar
    29    28    29   ar
    30    29    30   ar
    31    30    31    1
    32    31    32    2
    33    31    33    1
    34    30    34   ar
    35    34    35   ar
    36    27    35   ar
    37     7     8    1
    38     7     5    1
    39     3    36    1
    40     3    37    1
    41     7    38    1
    42     8    39    1
    43     8    40    1
    44    11    41    1
    45    12    42    1
    46    13    43    1
    47    14    44    1
    48    16    45    1
    49    17    46    1
    50    17    47    1
    51    18    48    1
    52    22    49    1
    53    23    50    1
    54    24    51    1
    55    26    52    1
    56    28    53    1
    57    29    54    1
    58    34    55    1
    59    35    56    1
