REMARK  13 active torsions:
REMARK  status: ('A' for Active; 'I' for Inactive)
REMARK    1  A    between atoms: C_2  and  C_3 
REMARK    2  A    between atoms: C_3  and  N_4 
REMARK       I    between atoms: N_4  and  C_5 
REMARK    3  A    between atoms: C_21  and  N_4 
REMARK    4  A    between atoms: C_5  and  C_7 
REMARK    5  A    between atoms: C_7  and  O_8 
REMARK    6  A    between atoms: C_7  and  C_9 
REMARK    7  A    between atoms: C_7  and  C_15 
REMARK    8  A    between atoms: C_21  and  C_31 
REMARK    9  A    between atoms: C_21  and  C_22 
REMARK       I    between atoms: C_22  and  N_24 
REMARK   10  A    between atoms: N_24  and  C_25 
REMARK   11  A    between atoms: C_32  and  O_33 
REMARK   12  A    between atoms: C_35  and  O_36 
REMARK   13  A    between atoms: C_38  and  O_39 
ROOT
ATOM      1  C   UNL d   1       5.119  -0.613   2.588  0.00  0.00     0.218 C 
ENDROOT
BRANCH   1   2
ATOM      2  C   UNL d   1       6.660  -0.508   2.478  0.00  0.00     0.040 A 
ATOM      3  C   UNL d   1       7.553  -1.583   2.403  0.00  0.00     0.080 A 
ATOM      4  C   UNL d   1       8.932  -1.486   2.318  0.00  0.00     0.073 A 
ATOM      5  C   UNL d   1       9.481  -0.240   2.175  0.00  0.00     0.071 A 
ATOM      6  C   UNL d   1       8.666   0.888   2.204  0.00  0.00     0.073 A 
ATOM      7  C   UNL d   1       7.272   0.751   2.358  0.00  0.00     0.080 A 
BRANCH   3   8
ATOM      8  O   UNL d   1       7.145  -2.833   2.111  0.00  0.00    -0.360 OA
ATOM      9  H   UNL d   1       6.546  -2.609   1.376  0.00  0.00     0.217 HD
ENDBRANCH   3   8
BRANCH   5  10
ATOM     10  O   UNL d   1      10.816  -0.120   1.938  0.00  0.00    -0.361 OA
ATOM     11  H   UNL d   1      11.177  -1.019   1.825  0.00  0.00     0.217 HD
ENDBRANCH   5  10
BRANCH   7  12
ATOM     12  O   UNL d   1       6.473   1.866   2.338  0.00  0.00    -0.360 OA
ATOM     13  H   UNL d   1       7.042   2.651   2.251  0.00  0.00     0.217 HD
ENDBRANCH   7  12
ENDBRANCH   1   2
BRANCH   1  14
ATOM     14  C   UNL d   1       4.485  -0.233   1.220  0.00  0.00     0.245 C 
ATOM     15  O   UNL d   1       4.473  -1.017   0.297  0.00  0.00    -0.271 OA
ATOM     16  N   UNL d   1       3.940   1.028   1.052  0.00  0.00    -0.354 N 
ATOM     17  H   UNL d   1       4.295   1.778   1.636  0.00  0.00     0.162 HD
BRANCH  16  18
ATOM     18  C   UNL d   1       3.296   1.332  -0.230  0.00  0.00     0.084 C 
ATOM     19  C   UNL d   1       4.279   1.256  -1.420  0.00  0.00     0.025 C 
ATOM     20  C   UNL d   1       3.580   1.440  -2.763  0.00  0.00     0.002 C 
ATOM     21  C   UNL d   1       2.414   0.470  -2.932  0.00  0.00     0.000 C 
ATOM     22  C   UNL d   1       1.408   0.625  -1.797  0.00  0.00     0.002 C 
ATOM     23  C   UNL d   1       2.070   0.416  -0.446  0.00  0.00     0.025 C 
ENDBRANCH  16  18
ENDBRANCH   1  14
BRANCH   1  24
ATOM     24  N   UNL d   1       4.496  -1.953   3.048  0.00  0.00    -0.331 N 
ATOM     25  C   UNL d   1       4.175  -2.027   4.447  0.00  0.00     0.265 C 
ATOM     26  O   UNL d   1       4.380  -1.021   5.147  0.00  0.00    -0.269 OA
BRANCH  24  27
ATOM     27  C   UNL d   1       4.357  -3.042   2.004  0.00  0.00     0.127 C 
BRANCH  27  28
ATOM     28  C   UNL d   1       3.596  -4.249   2.311  0.00  0.00     0.015 C 
ATOM     29  C   UNL d   1       3.709  -5.452   1.430  0.00  0.00     0.006 C 
ENDBRANCH  27  28
ENDBRANCH  24  27
BRANCH  25  30
ATOM     30  C   UNL d   1       3.394  -3.326   5.137  0.00  0.00     0.194 C 
BRANCH  30  31
ATOM     31  O   UNL d   1       2.176  -3.546   4.402  0.00  0.00    -0.371 OA
ATOM     32  H   UNL d   1       2.101  -2.802   3.767  0.00  0.00     0.212 HD
ENDBRANCH  30  31
BRANCH  30  33
ATOM     33  C   UNL d   1       4.383  -4.604   5.290  0.00  0.00    -0.010 C 
ATOM     34  C   UNL d   1       5.515  -4.596   6.123  0.00  0.00     0.011 C 
ATOM     35  C   UNL d   1       6.433  -5.656   6.120  0.00  0.00     0.001 C 
ATOM     36  C   UNL d   1       6.454  -6.540   5.057  0.00  0.00     0.000 C 
ATOM     37  C   UNL d   1       5.399  -6.510   4.180  0.00  0.00     0.001 C 
ATOM     38  C   UNL d   1       4.251  -5.792   4.546  0.00  0.00     0.011 C 
ENDBRANCH  30  33
BRANCH  30  39
ATOM     39  C   UNL d   1       2.763  -2.947   6.492  0.00  0.00    -0.010 C 
ATOM     40  C   UNL d   1       1.697  -2.040   6.628  0.00  0.00     0.011 C 
ATOM     41  C   UNL d   1       1.251  -1.677   7.903  0.00  0.00     0.001 C 
ATOM     42  C   UNL d   1       1.860  -2.206   9.043  0.00  0.00     0.000 C 
ATOM     43  C   UNL d   1       2.872  -3.132   8.921  0.00  0.00     0.001 C 
ATOM     44  C   UNL d   1       3.217  -3.558   7.662  0.00  0.00     0.011 C 
ENDBRANCH  30  39
ENDBRANCH  25  30
ENDBRANCH   1  24
TORSDOF 13
