REMARK  3 active torsions:
REMARK  status: ('A' for Active; 'I' for Inactive)
REMARK    1  A    between atoms: C_6  and  C_7 
REMARK       I    between atoms: C_7  and  N_9 
REMARK    2  A    between atoms: N_9  and  N_10 
REMARK       I    between atoms: N_10  and  C_11 
REMARK    3  A    between atoms: C_11  and  C_13 
ROOT
ATOM      1  C   UNL d   1      -1.896   2.580   0.141  0.00  0.00     0.270 C 
ATOM      2  O   UNL d   1      -3.124   2.571   0.019  0.00  0.00    -0.266 OA
ATOM      3  N   UNL d   1      -1.181   3.763   0.346  0.00  0.00    -0.263 N 
ATOM      4  H   UNL d   1      -0.186   3.755   0.170  0.00  0.00     0.190 HD
ENDROOT
BRANCH   3   5
ATOM      5  N   UNL d   1      -1.832   4.996  -0.011  0.00  0.00    -0.263 N 
ATOM      6  C   UNL d   1      -1.109   6.183   0.001  0.00  0.00     0.271 C 
ATOM      7  O   UNL d   1      -1.484   7.135   0.688  0.00  0.00    -0.266 OA
ATOM      8  H   UNL d   1      -2.776   5.051   0.372  0.00  0.00     0.190 HD
BRANCH   6   9
ATOM      9  C   UNL d   1       0.083   6.349  -0.909  0.00  0.00     0.055 A 
ATOM     10  C   UNL d   1       0.798   7.573  -0.834  0.00  0.00     0.019 A 
ATOM     11  C   UNL d   1       1.882   7.841  -1.687  0.00  0.00     0.001 A 
ATOM     12  C   UNL d   1       2.298   6.884  -2.602  0.00  0.00     0.002 A 
ATOM     13  C   UNL d   1       1.611   5.684  -2.689  0.00  0.00     0.025 A 
ATOM     14  C   UNL d   1       0.486   5.433  -1.897  0.00  0.00     0.049 A 
ATOM     15 CL   UNL d   1      -0.335   3.996  -2.389  0.00  0.00    -0.083 Cl
ENDBRANCH   6   9
ENDBRANCH   3   5
BRANCH   1  16
ATOM     16  C   UNL d   1      -1.114   1.288   0.061  0.00  0.00     0.034 A 
ATOM     17  C   UNL d   1      -1.815   0.072   0.013  0.00  0.00     0.017 A 
ATOM     18  C   UNL d   1      -1.134  -1.154  -0.004  0.00  0.00     0.002 A 
ATOM     19  C   UNL d   1       0.259  -1.183   0.000  0.00  0.00     0.007 A 
ATOM     20  C   UNL d   1       0.981   0.012   0.007  0.00  0.00    -0.061 A 
ATOM     21  C   UNL d   1       2.482   0.004  -0.014  0.00  0.00     0.048 C 
ATOM     22  C   UNL d   1       0.290   1.239   0.037  0.00  0.00     0.024 A 
ENDBRANCH   1  16
TORSDOF 3
