@<TRIPOS>MOLECULE
*****
 65 68 0 0 0
SMALL
GASTEIGER

@<TRIPOS>ATOM
      1 C           6.6425   -3.4853   -6.7960 C.3     1  UNL1        0.0788
      2 O           6.8818   -2.0749   -6.7885 O.3     1  UNL1       -0.4950
      3 C           5.9842   -1.3174   -7.4898 C.ar    1  UNL1        0.1221
      4 C           6.4276   -0.1567   -8.0937 C.ar    1  UNL1       -0.0164
      5 C           5.5029    0.6957   -8.7151 C.ar    1  UNL1       -0.0147
      6 C           4.1264    0.3760   -8.7961 C.ar    1  UNL1        0.1414
      7 O           3.4279    1.3046   -9.5275 O.3     1  UNL1       -0.4933
      8 C           2.0696    1.0664   -9.8468 C.3     1  UNL1        0.0789
      9 C           3.6703   -0.7927   -8.1551 C.ar    1  UNL1        0.0791
     10 N           2.3053   -1.1848   -8.0678 N.am    1  UNL1       -0.2797
     11 C           1.7955   -2.2935   -7.4177 C.2     1  UNL1        0.2550
     12 O           2.4324   -3.1369   -6.7879 O.2     1  UNL1       -0.2717
     13 C           0.2899   -2.4151   -7.5219 C.3     1  UNL1        0.1684
     14 O           0.0519   -3.6506   -6.8386 O.3     1  UNL1       -0.4539
     15 C          -1.2368   -4.0284   -6.7677 C.2     1  UNL1        0.3284
     16 O          -2.1495   -3.3229   -7.1333 O.2     1  UNL1       -0.2487
     17 C          -1.3209   -5.4842   -6.2401 C.3     1  UNL1        0.1245
     18 C          -0.2139   -5.8868   -5.2109 C.3     1  UNL1        0.0041
     19 C          -0.5291   -5.5040   -3.7555 C.2     1  UNL1        0.0099
     20 C          -1.6544   -4.9438   -3.2685 C.ar    1  UNL1        0.0509
     21 C          -2.9160   -4.5363   -3.8102 C.ar    1  UNL1       -0.0482
     22 C          -3.7741   -3.8138   -3.1006 C.ar    1  UNL1       -0.0608
     23 C          -3.5665   -3.6082   -1.6997 C.ar    1  UNL1       -0.0555
     24 C          -2.4632   -4.0274   -1.0492 C.ar    1  UNL1        0.0098
     25 C          -1.4030   -4.7167   -1.8295 C.ar    1  UNL1        0.2086
     26 N          -0.2653   -5.1678   -1.4588 N.2     1  UNL1       -0.2369
     27 C           0.4804   -5.7147   -2.6291 C.3     1  UNL1        0.1661
     28 N          -1.7435   -6.4477   -7.2357 N.am    1  UNL1       -0.2981
     29 C          -3.0268   -6.2947   -7.7772 C.2     1  UNL1        0.2447
     30 O          -3.7901   -5.3675   -7.5676 O.2     1  UNL1       -0.2702
     31 C          -3.4752   -7.3957   -8.6331 C.ar    1  UNL1        0.0369
     32 C          -3.8679   -7.1382   -9.9514 C.ar    1  UNL1       -0.0469
     33 C          -4.2898   -8.2016  -10.7477 C.ar    1  UNL1       -0.0257
     34 C          -4.2598   -9.4954  -10.2327 C.ar    1  UNL1        0.1234
     35 F          -4.5730  -10.5272  -11.0249 F       1  UNL1       -0.2055
     36 C          -3.8935   -9.7424   -8.9125 C.ar    1  UNL1       -0.0257
     37 C          -3.5179   -8.6833   -8.0969 C.ar    1  UNL1       -0.0469
     38 C           4.6282   -1.6024   -7.5269 C.ar    1  UNL1        0.0049
     39 H           7.3576   -3.9526   -6.1131 H       1  UNL1        0.0660
     40 H           6.8107   -3.8802   -7.8018 H       1  UNL1        0.0660
     41 H           5.6521   -3.7817   -6.4333 H       1  UNL1        0.0660
     42 H           7.4878    0.0823   -8.0910 H       1  UNL1        0.0655
     43 H           5.8684    1.6318   -9.1376 H       1  UNL1        0.0656
     44 H           1.7078    1.8139  -10.5566 H       1  UNL1        0.0660
     45 H           1.4618    1.1905   -8.9447 H       1  UNL1        0.0660
     46 H           1.9356    0.0871  -10.3225 H       1  UNL1        0.0660
     47 H           1.6111   -0.5872   -8.4726 H       1  UNL1        0.1550
     48 H          -0.0157   -2.4989   -8.5696 H       1  UNL1        0.0796
     49 H          -0.1959   -1.5759   -7.0130 H       1  UNL1        0.0796
     50 H          -2.1967   -5.5428   -5.6574 H       1  UNL1        0.0618
     51 H          -0.0680   -6.9726   -5.2431 H       1  UNL1        0.0336
     52 H           0.7491   -5.4377   -5.4836 H       1  UNL1        0.0336
     53 H          -3.3343   -4.7576   -4.7773 H       1  UNL1        0.0626
     54 H          -4.6711   -3.4629   -3.6082 H       1  UNL1        0.0618
     55 H          -4.4168   -3.1550   -1.1988 H       1  UNL1        0.0620
     56 H          -2.3807   -3.8713    0.0169 H       1  UNL1        0.0683
     57 H           0.0379   -5.1391   -0.4848 H       1  UNL1        0.4459
     58 H           0.7072   -6.7696   -2.4371 H       1  UNL1        0.1077
     59 H           1.4096   -5.1438   -2.7430 H       1  UNL1        0.1077
     60 H          -1.4056   -7.3969   -7.1578 H       1  UNL1        0.1498
     61 H          -3.8318   -6.1296  -10.3596 H       1  UNL1        0.0626
     62 H          -4.6358   -8.0373  -11.7638 H       1  UNL1        0.0646
     63 H          -3.9097  -10.7558   -8.5273 H       1  UNL1        0.0646
     64 H          -3.2697   -8.8576   -7.0550 H       1  UNL1        0.0626
     65 H           4.3200   -2.4856   -7.0048 H       1  UNL1        0.0674
@<TRIPOS>UNITY_ATOM_ATTR
26 1
charge 1
@<TRIPOS>BOND
     1     1     2    1
     2     2     3    1
     3     3     4   ar
     4     4     5   ar
     5     5     6   ar
     6     6     7    1
     7     7     8    1
     8     6     9   ar
     9     9    10    1
    10    10    11   am
    11    11    12    2
    12    11    13    1
    13    13    14    1
    14    14    15    1
    15    15    16    2
    16    18    19    1
    17    19    20    2
    18    20    21   ar
    19    21    22   ar
    20    22    23   ar
    21    23    24   ar
    22    24    25   ar
    23    20    25   ar
    24    25    26    2
    25    26    27    1
    26    19    27    1
    27    17    28    1
    28    28    29   am
    29    29    30    2
    30    29    31    1
    31    31    32   ar
    32    32    33   ar
    33    33    34   ar
    34    34    35    1
    35    34    36   ar
    36    36    37   ar
    37    31    37   ar
    38     9    38   ar
    39     3    38   ar
    40    17    18    1
    41    17    15    1
    42     1    39    1
    43     1    40    1
    44     1    41    1
    45     4    42    1
    46     5    43    1
    47     8    44    1
    48     8    45    1
    49     8    46    1
    50    10    47    1
    51    13    48    1
    52    13    49    1
    53    17    50    1
    54    18    51    1
    55    18    52    1
    56    21    53    1
    57    22    54    1
    58    23    55    1
    59    24    56    1
    60    26    57    1
    61    27    58    1
    62    27    59    1
    63    28    60    1
    64    32    61    1
    65    33    62    1
    66    36    63    1
    67    37    64    1
    68    38    65    1
