@<TRIPOS>MOLECULE
*****
 59 62 0 0 0
SMALL
GASTEIGER

@<TRIPOS>ATOM
      1 C           2.5229   -0.0307   -0.0136 C.3     1  UNL1       -0.0397
      2 C           1.0294   -0.0039    0.0032 C.ar    1  UNL1       -0.0503
      3 C           0.2487   -1.1631    0.0051 C.ar    1  UNL1       -0.0571
      4 C          -1.1502   -1.0548    0.0080 C.ar    1  UNL1       -0.0402
      5 C          -1.7656    0.2177    0.0148 C.ar    1  UNL1        0.0348
      6 N          -3.1683    0.3247    0.0277 N.am    1  UNL1       -0.2678
      7 C          -3.9912    1.4276   -0.0585 C.2     1  UNL1        0.3291
      8 O          -3.5154    2.5671   -0.0326 O.2     1  UNL1       -0.2503
      9 N          -5.4088    1.2228   -0.1117 N.am    1  UNL1       -0.1460
     10 N          -6.1615   -0.0883    0.0569 N.am    1  UNL1       -0.2081
     11 C          -5.6120   -1.3183   -0.2167 C.2     1  UNL1        0.3167
     12 O          -4.4281   -1.5090   -0.5012 O.2     1  UNL1       -0.2513
     13 N          -6.3396   -2.4634   -0.0386 N.am    1  UNL1       -0.2954
     14 C          -5.5435   -3.7281   -0.0374 C.3     1  UNL1        0.0246
     15 C          -4.6848   -3.7992    1.2526 C.3     1  UNL1       -0.0345
     16 C          -3.8275   -5.0547    1.3424 C.3     1  UNL1       -0.0514
     17 C          -4.6819   -6.3017    1.2020 C.3     1  UNL1       -0.0529
     18 C          -5.4781   -6.2618   -0.0995 C.3     1  UNL1       -0.0514
     19 C          -6.3641   -5.0074   -0.2003 C.3     1  UNL1       -0.0345
     20 C          -6.1369    2.4532   -0.2211 C.ar    1  UNL1        0.1860
     21 N          -5.8217    3.4973   -0.9729 N.ar    1  UNL1       -0.2232
     22 C          -6.6616    4.5874   -0.7535 C.ar    1  UNL1        0.0803
     23 C          -6.5157    5.8407   -1.5073 C.ar    1  UNL1        0.0011
     24 C          -6.6066    5.8213   -2.9101 C.ar    1  UNL1       -0.0498
     25 C          -6.3909    6.9835   -3.6658 C.ar    1  UNL1       -0.0258
     26 C          -6.0902    8.1763   -3.0222 C.ar    1  UNL1        0.1234
     27 F          -5.8559    9.2805   -3.7456 F       1  UNL1       -0.2055
     28 C          -6.0239    8.2324   -1.6351 C.ar    1  UNL1       -0.0258
     29 C          -6.2417    7.0683   -0.8768 C.ar    1  UNL1       -0.0498
     30 C          -7.6501    4.3537    0.1816 C.ar    1  UNL1        0.0049
     31 S          -7.5371    2.7136    0.7495 S.2     1  UNL1       -0.0582
     32 C          -0.9729    1.3472    0.0093 C.ar    1  UNL1       -0.0402
     33 C           0.4054    1.2432    0.0059 C.ar    1  UNL1       -0.0571
     34 H           2.9140   -1.0501   -0.0002 H       1  UNL1        0.0278
     35 H           2.9061    0.5020    0.8633 H       1  UNL1        0.0278
     36 H           2.8823    0.4699   -0.9190 H       1  UNL1        0.0278
     37 H           0.7223   -2.1441    0.0028 H       1  UNL1        0.0621
     38 H          -1.7343   -1.9760    0.0001 H       1  UNL1        0.0636
     39 H          -3.6037   -0.5752   -0.0177 H       1  UNL1        0.1564
     40 H          -7.1549    0.0259   -0.1182 H       1  UNL1        0.1751
     41 H          -7.3480   -2.4808   -0.1028 H       1  UNL1        0.1506
     42 H          -4.8599   -3.6955   -0.9029 H       1  UNL1        0.0499
     43 H          -5.3541   -3.7453    2.1192 H       1  UNL1        0.0283
     44 H          -4.0072   -2.9434    1.3422 H       1  UNL1        0.0283
     45 H          -3.2997   -5.0674    2.3033 H       1  UNL1        0.0266
     46 H          -3.0584   -5.0389    0.5593 H       1  UNL1        0.0266
     47 H          -5.3682   -6.3727    2.0544 H       1  UNL1        0.0265
     48 H          -4.0408   -7.1903    1.2300 H       1  UNL1        0.0265
     49 H          -6.0988   -7.1607   -0.1721 H       1  UNL1        0.0266
     50 H          -4.7755   -6.2899   -0.9437 H       1  UNL1        0.0266
     51 H          -7.1399   -5.0438    0.5703 H       1  UNL1        0.0283
     52 H          -6.8679   -5.0062   -1.1741 H       1  UNL1        0.0283
     53 H          -6.8349    4.8924   -3.4272 H       1  UNL1        0.0625
     54 H          -6.4364    6.9603   -4.7506 H       1  UNL1        0.0646
     55 H          -5.7813    9.1776   -1.1566 H       1  UNL1        0.0646
     56 H          -6.1575    7.1317    0.2051 H       1  UNL1        0.0625
     57 H          -8.4283    5.0298    0.5176 H       1  UNL1        0.0716
     58 H          -1.4023    2.3372    0.0094 H       1  UNL1        0.0636
     59 H           0.9789    2.1635    0.0039 H       1  UNL1        0.0621
@<TRIPOS>BOND
     1     1     2    1
     2     2     3   ar
     3     3     4   ar
     4     4     5   ar
     5     5     6    1
     6     6     7   am
     7     7     8    2
     8     7     9   am
     9     9    10    1
    10    10    11   am
    11    11    12    2
    12    11    13   am
    13    13    14    1
    14    14    15    1
    15    15    16    1
    16    16    17    1
    17    17    18    1
    18    18    19    1
    19    14    19    1
    20     9    20    1
    21    20    21   ar
    22    21    22   ar
    23    22    23    1
    24    23    24   ar
    25    24    25   ar
    26    25    26   ar
    27    26    27    1
    28    26    28   ar
    29    28    29   ar
    30    23    29   ar
    31    22    30   ar
    32    30    31   ar
    33    20    31   ar
    34     5    32   ar
    35    32    33   ar
    36     2    33   ar
    37     1    34    1
    38     1    35    1
    39     1    36    1
    40     3    37    1
    41     4    38    1
    42     6    39    1
    43    10    40    1
    44    13    41    1
    45    14    42    1
    46    15    43    1
    47    15    44    1
    48    16    45    1
    49    16    46    1
    50    17    47    1
    51    17    48    1
    52    18    49    1
    53    18    50    1
    54    19    51    1
    55    19    52    1
    56    24    53    1
    57    25    54    1
    58    28    55    1
    59    29    56    1
    60    30    57    1
    61    32    58    1
    62    33    59    1
