@<TRIPOS>MOLECULE
*****
 49 51 0 0 0
SMALL
GASTEIGER

@<TRIPOS>ATOM
      1 C           0.9807   -0.0653    0.0820 C.3     1  UNL1        0.0788
      2 O           2.4036    0.0365    0.1819 O.3     1  UNL1       -0.4949
      3 C           3.0653   -1.1021    0.5623 C.ar    1  UNL1        0.1268
      4 C           4.2882   -0.9208    1.2521 C.ar    1  UNL1        0.0188
      5 C           5.0902   -2.0204    1.5878 C.ar    1  UNL1        0.1068
      6 N           6.4286   -1.9003    2.0591 N.pl3   1  UNL1       -0.2457
      7 C           7.4387   -2.9059    2.1990 C.cat   1  UNL1        0.3552
      8 N           7.1806   -4.2096    1.9030 N.pl3   1  UNL1       -0.2910
      9 N           8.7150   -2.6622    2.6753 N.pl3   1  UNL1       -0.2150
     10 C           9.7095   -3.6870    2.7983 C.ar    1  UNL1        0.2727
     11 N           9.7192   -4.6925    1.9707 N.ar    1  UNL1       -0.2037
     12 C          10.6929   -5.6752    2.1411 C.ar    1  UNL1        0.0617
     13 C          10.7408   -6.8227    1.0865 C.3     1  UNL1        0.0429
     14 S          11.9828   -8.0919    1.5199 S.3     1  UNL1       -0.0908
     15 C          11.8899   -9.3205    0.3008 C.ar    1  UNL1        0.1588
     16 N          12.0035   -9.0794   -0.9841 N.ar    1  UNL1       -0.1348
     17 N          12.0350  -10.2516   -1.7250 N.ar    1  UNL1       -0.1457
     18 C          11.9407  -11.3273   -0.9689 C.ar    1  UNL1        0.0999
     19 C          11.9107  -12.7286   -1.4649 C.3     1  UNL1       -0.0140
     20 S          11.8239  -10.9880    0.7092 S.2     1  UNL1       -0.0445
     21 C          11.5357   -5.6273    3.1861 C.ar    1  UNL1        0.0251
     22 C          11.4267   -4.5468    4.1666 C.ar    1  UNL1        0.2540
     23 O          12.0877   -4.5460    5.1858 O.2     1  UNL1       -0.2677
     24 N          10.5257   -3.5712    3.8684 N.ar    1  UNL1       -0.2800
     25 C           4.5048   -3.2697    1.3853 C.ar    1  UNL1        0.0188
     26 C           3.3802   -3.4731    0.5974 C.ar    1  UNL1        0.1268
     27 O           3.1513   -4.7841    0.2892 O.3     1  UNL1       -0.4949
     28 C           2.0132   -5.0404   -0.5244 C.3     1  UNL1        0.0788
     29 C           2.6442   -2.3800    0.1945 C.ar    1  UNL1        0.0220
     30 H           0.6099    0.8646   -0.3582 H       1  UNL1        0.0660
     31 H           0.5496   -0.1734    1.0816 H       1  UNL1        0.0660
     32 H           0.6330   -0.8713   -0.5724 H       1  UNL1        0.0660
     33 H           4.5642    0.0950    1.5289 H       1  UNL1        0.0689
     34 H           6.7385   -0.9373    2.1530 H       1  UNL1        0.2647
     35 H           6.4340   -4.4962    1.2980 H       1  UNL1        0.2546
     36 H           7.8848   -4.9251    2.0621 H       1  UNL1        0.2546
     37 H           8.9632   -1.7217    2.9542 H       1  UNL1        0.2678
     38 H          10.9587   -6.4015    0.0981 H       1  UNL1        0.0444
     39 H           9.7535   -7.2991    1.0430 H       1  UNL1        0.0444
     40 H          11.9877  -12.7471   -2.5563 H       1  UNL1        0.0298
     41 H          10.9709  -13.2184   -1.1877 H       1  UNL1        0.0298
     42 H          12.7411  -13.3152   -1.0580 H       1  UNL1        0.0298
     43 H          12.3098   -6.3511    3.4017 H       1  UNL1        0.0690
     44 H          10.3850   -2.9014    4.6088 H       1  UNL1        0.1731
     45 H           4.8600   -4.1577    1.8823 H       1  UNL1        0.0689
     46 H           1.9755   -6.1133   -0.7310 H       1  UNL1        0.0660
     47 H           2.0801   -4.5171   -1.4850 H       1  UNL1        0.0660
     48 H           1.1060   -4.7633    0.0190 H       1  UNL1        0.0660
     49 H           1.7464   -2.5281   -0.3878 H       1  UNL1        0.0691
@<TRIPOS>UNITY_ATOM_ATTR
8 1
charge 1
@<TRIPOS>BOND
     1     1     2    1
     2     2     3    1
     3     3     4   ar
     4     4     5   ar
     5     5     6    1
     6     6     7    1
     7     7     8    2
     8     7     9    1
     9     9    10    1
    10    10    11   ar
    11    11    12   ar
    12    12    13    1
    13    13    14    1
    14    14    15    1
    15    15    16   ar
    16    16    17   ar
    17    17    18   ar
    18    18    19    1
    19    18    20   ar
    20    15    20   ar
    21    12    21   ar
    22    21    22   ar
    23    22    23    2
    24    22    24   ar
    25    10    24   ar
    26     5    25   ar
    27    25    26   ar
    28    26    27    1
    29    27    28    1
    30    26    29   ar
    31     3    29   ar
    32     1    30    1
    33     1    31    1
    34     1    32    1
    35     4    33    1
    36     6    34    1
    37     8    35    1
    38     8    36    1
    39     9    37    1
    40    13    38    1
    41    13    39    1
    42    19    40    1
    43    19    41    1
    44    19    42    1
    45    21    43    1
    46    24    44    1
    47    25    45    1
    48    28    46    1
    49    28    47    1
    50    28    48    1
    51    29    49    1
