REMARK  9 active torsions:
REMARK  status: ('A' for Active; 'I' for Inactive)
REMARK    1  A    between atoms: C_2  and  C_3 
REMARK       I    between atoms: C_2  and  N_25 
REMARK    2  A    between atoms: C_3  and  O_4 
REMARK    3  A    between atoms: O_4  and  C_5 
REMARK    4  A    between atoms: C_5  and  C_7 
REMARK    5  A    between atoms: C_12  and  S_13 
REMARK    6  A    between atoms: S_13  and  N_16 
REMARK    7  A    between atoms: N_16  and  C_17 
REMARK    8  A    between atoms: C_17  and  C_18 
REMARK       I    between atoms: N_25  and  C_26 
REMARK       I    between atoms: C_26  and  N_28 
REMARK    9  A    between atoms: N_28  and  C_29 
ROOT
ATOM      1  C   UNL d   1       1.613   2.365   4.076  0.00  0.00     0.041 A 
ATOM      2  C   UNL d   1       0.533   1.575   4.470  0.00  0.00     0.019 A 
ATOM      3  C   UNL d   1      -0.422   2.088   5.353  0.00  0.00     0.026 A 
ATOM      4  C   UNL d   1      -0.328   3.391   5.866  0.00  0.00     0.057 A 
ATOM      5 CL   UNL d   1      -1.642   3.824   6.895  0.00  0.00    -0.083 Cl
ATOM      6  C   UNL d   1       0.767   4.186   5.521  0.00  0.00     0.097 A 
ATOM      7  C   UNL d   1       1.747   3.659   4.632  0.00  0.00     0.044 A 
ENDROOT
BRANCH   1   8
ATOM      8  C   UNL d   1       2.641   1.810   3.141  0.00  0.00     0.293 C 
ATOM      9  O   UNL d   1       3.840   1.972   3.330  0.00  0.00    -0.259 OA
BRANCH   8  10
ATOM     10  O   UNL d   1       2.079   1.152   2.085  0.00  0.00    -0.308 OA
BRANCH  10  11
ATOM     11  C   UNL d   1       3.018   0.628   1.111  0.00  0.00     0.282 C 
BRANCH  11  12
ATOM     12  C   UNL d   1       2.369  -0.062  -0.125  0.00  0.00     0.249 C 
ATOM     13  O   UNL d   1       1.145  -0.144  -0.262  0.00  0.00    -0.271 OA
ATOM     14  N   UNL d   1       3.192  -0.615  -1.112  0.00  0.00    -0.277 N 
ATOM     15  C   UNL d   1       4.572  -0.621  -1.140  0.00  0.00     0.323 C 
ATOM     16  H   UNL d   1       2.677  -1.042  -1.867  0.00  0.00     0.173 HD
ATOM     17  O   UNL d   1       5.249  -0.101  -0.261  0.00  0.00    -0.247 OA
ATOM     18  N   UNL d   1       5.162  -1.273  -2.209  0.00  0.00    -0.338 N 
ATOM     19  H   UNL d   1       4.614  -1.616  -2.986  0.00  0.00     0.164 HD
BRANCH  18  20
ATOM     20  C   UNL d   1       6.631  -1.292  -2.325  0.00  0.00     0.086 C 
ATOM     21  C   UNL d   1       7.209  -2.455  -3.135  0.00  0.00     0.025 C 
ATOM     22  C   UNL d   1       8.650  -2.030  -3.431  0.00  0.00     0.002 C 
ATOM     23  C   UNL d   1       8.623  -0.504  -3.498  0.00  0.00     0.002 C 
ATOM     24  C   UNL d   1       7.217  -0.080  -3.059  0.00  0.00     0.025 C 
ENDBRANCH  18  20
ENDBRANCH  11  12
ENDBRANCH  10  11
ENDBRANCH   8  10
ENDBRANCH   1   8
BRANCH   6  25
ATOM     25  S   UNL d   1       1.047   5.845   6.132  0.00  0.00     0.243 S 
ATOM     26  O   UNL d   1       2.214   5.782   6.979  0.00  0.00    -0.206 OA
ATOM     27  O   UNL d   1       0.980   6.737   4.994  0.00  0.00    -0.206 OA
BRANCH  25  28
ATOM     28  N   UNL d   1      -0.229   6.237   7.151  0.00  0.00    -0.211 NA
ATOM     29  H   UNL d   1      -0.297   5.532   7.883  0.00  0.00     0.140 HD
BRANCH  28  30
ATOM     30  C   UNL d   1      -0.225   7.595   7.728  0.00  0.00     0.143 C 
BRANCH  30  31
ATOM     31  C   UNL d   1      -1.413   7.873   8.638  0.00  0.00    -0.044 A 
ATOM     32  C   UNL d   1      -1.718   9.198   8.991  0.00  0.00     0.008 A 
ATOM     33  C   UNL d   1      -2.680   9.475   9.969  0.00  0.00     0.001 A 
ATOM     34  C   UNL d   1      -3.410   8.440  10.548  0.00  0.00     0.000 A 
ATOM     35  C   UNL d   1      -3.150   7.125  10.184  0.00  0.00     0.001 A 
ATOM     36  C   UNL d   1      -2.153   6.846   9.248  0.00  0.00     0.008 A 
ENDBRANCH  30  31
ENDBRANCH  28  30
ENDBRANCH  25  28
ENDBRANCH   6  25
TORSDOF 9
