@<TRIPOS>MOLECULE
*****
 67 70 0 0 0
SMALL
GASTEIGER

@<TRIPOS>ATOM
      1 C           1.1184    0.0792    0.0016 C.3     1  UNL1       -0.0306
      2 C           2.6365    0.0976   -0.0572 C.3     1  UNL1        0.0896
      3 O           3.2058    0.3069    1.2334 O.3     1  UNL1       -0.4649
      4 C           4.5794    0.3702    1.2178 C.2     1  UNL1        0.3086
      5 O           5.2966    0.2090    0.2311 O.2     1  UNL1       -0.2508
      6 C           5.0620    0.4981    2.6125 C.3     1  UNL1        0.0611
      7 C           6.5214    0.4104    2.9618 C.3     1  UNL1        0.0315
      8 N           6.8820    0.4300    4.4290 N.am    1  UNL1       -0.2516
      9 C           6.0248    0.3924    5.5776 C.2     1  UNL1        0.2520
     10 O           6.4071    0.5777    6.7351 O.2     1  UNL1       -0.2696
     11 C           4.5303    0.2701    5.4663 C.ar    1  UNL1        0.0394
     12 C           3.9398   -0.8261    4.8311 C.ar    1  UNL1       -0.0475
     13 C           2.6365   -0.7377    4.3254 C.ar    1  UNL1       -0.0353
     14 C           1.8513    0.3097    4.7933 C.ar    1  UNL1        0.0686
     15 C           2.3341    1.2933    5.6377 C.ar    1  UNL1        0.0901
     16 C           3.7090    1.3108    5.9528 C.ar    1  UNL1       -0.0221
     17 N           1.3076    2.1254    6.0021 N.ar    1  UNL1       -0.2307
     18 C           0.2019    1.6452    5.4428 C.ar    1  UNL1        0.1277
     19 C          -1.1635    2.2082    5.7526 C.3     1  UNL1        0.0674
     20 N          -2.2746    1.4501    5.1990 N.pl3   1  UNL1       -0.3367
     21 C          -3.5729    1.9185    5.1492 C.ar    1  UNL1        0.0275
     22 C          -4.5546    0.9380    5.0076 C.ar    1  UNL1       -0.0400
     23 C          -5.8872    1.2718    4.8141 C.ar    1  UNL1       -0.0453
     24 C          -6.2877    2.6140    4.8110 C.ar    1  UNL1        0.0609
     25 C          -7.7227    2.9784    4.8497 C.2     1  UNL1        0.2662
     26 N          -8.6593    2.0502    4.8745 N.pl3   1  UNL1       -0.2497
     27 N          -8.0845    4.2424    4.9146 N.2     1  UNL1       -0.2884
     28 C          -5.2721    3.5928    4.8367 C.ar    1  UNL1       -0.0453
     29 C          -3.9273    3.2467    4.9805 C.ar    1  UNL1       -0.0400
     30 N           0.5109    0.5879    4.6056 N.ar    1  UNL1       -0.3294
     31 C          -0.2672   -0.2849    3.7560 C.3     1  UNL1        0.0136
     32 C           8.3194    0.4294    4.6732 C.ar    1  UNL1        0.1277
     33 C           9.1810    1.1865    3.8671 C.ar    1  UNL1       -0.0213
     34 C          10.5601    1.1892    4.1032 C.ar    1  UNL1       -0.0571
     35 C          11.0711    0.4168    5.1296 C.ar    1  UNL1       -0.0435
     36 C          10.1710   -0.3225    5.8751 C.ar    1  UNL1        0.0297
     37 N           8.8270   -0.3346    5.6668 N.ar    1  UNL1       -0.2399
     38 H           0.7098   -0.0001   -1.0110 H       1  UNL1        0.0262
     39 H           0.7254    0.9892    0.4663 H       1  UNL1        0.0262
     40 H           0.7476   -0.7710    0.5835 H       1  UNL1        0.0262
     41 H           2.9550    0.9236   -0.6966 H       1  UNL1        0.0694
     42 H           2.9912   -0.8568   -0.4599 H       1  UNL1        0.0694
     43 H           4.7127   -0.4665    2.9233 H       1  UNL1        0.0393
     44 H           4.5826    1.3556    3.0941 H       1  UNL1        0.0393
     45 H           7.0290    1.2208    2.4371 H       1  UNL1        0.0474
     46 H           6.9181   -0.5364    2.5680 H       1  UNL1        0.0474
     47 H           4.5558   -1.6649    4.5099 H       1  UNL1        0.0626
     48 H           2.2741   -1.4220    3.5632 H       1  UNL1        0.0639
     49 H           4.1227    2.1117    6.5571 H       1  UNL1        0.0647
     50 H          -1.1671    3.2545    5.4222 H       1  UNL1        0.0541
     51 H          -1.2781    2.2201    6.8441 H       1  UNL1        0.0541
     52 H          -2.0704    1.2623    4.2313 H       1  UNL1        0.1465
     53 H          -4.2651   -0.1109    5.0774 H       1  UNL1        0.0636
     54 H          -6.5752    0.4420    4.6984 H       1  UNL1        0.0627
     55 H          -8.4365    1.0631    4.8671 H       1  UNL1        0.2883
     56 H          -9.6418    2.2741    4.9410 H       1  UNL1        0.2883
     57 H          -7.3996    4.9858    4.9372 H       1  UNL1        0.3009
     58 H          -9.0501    4.5288    4.9763 H       1  UNL1        0.3009
     59 H          -5.4775    4.6556    4.7596 H       1  UNL1        0.0627
     60 H          -3.1762    4.0331    4.9625 H       1  UNL1        0.0636
     61 H          -1.3303   -0.1203    3.6967 H       1  UNL1        0.0456
     62 H          -0.1487   -1.3079    4.1211 H       1  UNL1        0.0456
     63 H           0.1157   -0.1883    2.7376 H       1  UNL1        0.0456
     64 H           8.8142    1.8399    3.0867 H       1  UNL1        0.0652
     65 H          11.2206    1.8075    3.5001 H       1  UNL1        0.0619
     66 H          12.1339    0.4011    5.3487 H       1  UNL1        0.0633
     67 H          10.5205   -0.9445    6.6955 H       1  UNL1        0.0830
@<TRIPOS>UNITY_ATOM_ATTR
27 1
charge 1
@<TRIPOS>BOND
     1     1     2    1
     2     2     3    1
     3     3     4    1
     4     4     5    2
     5     4     6    1
     6     6     7    1
     7     7     8    1
     8     8     9   am
     9     9    10    2
    10     9    11    1
    11    11    12   ar
    12    12    13   ar
    13    13    14   ar
    14    14    15   ar
    15    15    16   ar
    16    11    16   ar
    17    15    17   ar
    18    17    18   ar
    19    18    19    1
    20    19    20    1
    21    20    21    1
    22    21    22   ar
    23    22    23   ar
    24    23    24   ar
    25    24    25    1
    26    25    26    1
    27    25    27    2
    28    24    28   ar
    29    28    29   ar
    30    21    29   ar
    31    18    30   ar
    32    14    30   ar
    33    30    31    1
    34     8    32    1
    35    32    33   ar
    36    33    34   ar
    37    34    35   ar
    38    35    36   ar
    39    36    37   ar
    40    32    37   ar
    41     1    38    1
    42     1    39    1
    43     1    40    1
    44     2    41    1
    45     2    42    1
    46     6    43    1
    47     6    44    1
    48     7    45    1
    49     7    46    1
    50    12    47    1
    51    13    48    1
    52    16    49    1
    53    19    50    1
    54    19    51    1
    55    20    52    1
    56    22    53    1
    57    23    54    1
    58    26    55    1
    59    26    56    1
    60    27    57    1
    61    27    58    1
    62    28    59    1
    63    29    60    1
    64    31    61    1
    65    31    62    1
    66    31    63    1
    67    33    64    1
    68    34    65    1
    69    35    66    1
    70    36    67    1
