@<TRIPOS>MOLECULE
*****
 60 62 0 0 0
SMALL
GASTEIGER

@<TRIPOS>ATOM
      1 C           6.5753   -4.8103    3.9442 C.3     1  UNL1       -0.0639
      2 C           6.1333   -4.5308    2.5185 C.3     1  UNL1       -0.0402
      3 C           7.0273   -3.4806    1.8756 C.3     1  UNL1        0.0114
      4 N           6.6299   -3.1934    0.5178 N.am    1  UNL1       -0.3138
      5 C           7.2792   -2.2051   -0.1970 C.2     1  UNL1        0.2331
      6 O           8.2056   -1.5587    0.2874 O.2     1  UNL1       -0.2738
      7 C           6.8075   -2.0076   -1.6565 C.3     1  UNL1        0.0969
      8 C           5.2810   -1.9636   -1.7370 C.3     1  UNL1       -0.0381
      9 N           7.3535   -3.0625   -2.5009 N.am    1  UNL1       -0.2999
     10 C           8.7192   -3.1538   -2.7205 C.2     1  UNL1        0.2516
     11 O           9.5175   -2.4193   -2.1496 O.2     1  UNL1       -0.2696
     12 C           9.1359   -4.1607   -3.6804 C.ar    1  UNL1        0.0795
     13 S          10.5261   -5.0950   -3.3122 S.2     1  UNL1       -0.0636
     14 C          10.5124   -5.8505   -4.8342 C.ar    1  UNL1        0.1163
     15 N          11.4736   -6.7482   -5.1891 N.ar    1  UNL1       -0.2257
     16 C          11.3587   -7.2141   -6.3959 C.ar    1  UNL1        0.1212
     17 C          12.3688   -8.2250   -6.9341 C.3     1  UNL1        0.0565
     18 S          11.9928   -8.6090   -8.6826 S.3     1  UNL1       -0.1172
     19 C          13.1855   -9.8705   -9.0667 C.ar    1  UNL1        0.0114
     20 C          14.3251   -9.4758   -9.7758 C.ar    1  UNL1       -0.0451
     21 C          15.1119  -10.4203  -10.4409 C.ar    1  UNL1       -0.0494
     22 C          16.3255  -10.0000  -11.2115 C.3     1  UNL1       -0.0397
     23 C          14.7733  -11.7702  -10.3469 C.ar    1  UNL1       -0.0585
     24 C          13.7808  -12.1779   -9.4579 C.ar    1  UNL1       -0.0575
     25 C          12.9223  -11.2362   -8.8751 C.ar    1  UNL1       -0.0370
     26 C          11.6865  -11.7129   -8.1661 C.3     1  UNL1       -0.0387
     27 N          10.3362   -6.8451   -7.2474 N.ar    1  UNL1       -0.3096
     28 C           9.3476   -5.9556   -6.9400 C.ar    1  UNL1        0.2601
     29 O           8.4678   -5.6637   -7.7521 O.2     1  UNL1       -0.2671
     30 C           9.4495   -5.4155   -5.6041 C.ar    1  UNL1        0.0756
     31 C           8.6194   -4.4504   -4.9360 C.ar    1  UNL1       -0.0168
     32 C           7.4311   -3.7704   -5.5332 C.3     1  UNL1       -0.0377
     33 H           5.9317   -5.5661    4.4033 H       1  UNL1        0.0230
     34 H           6.5238   -3.9014    4.5526 H       1  UNL1        0.0230
     35 H           7.6060   -5.1789    3.9662 H       1  UNL1        0.0230
     36 H           5.0912   -4.1890    2.5170 H       1  UNL1        0.0278
     37 H           6.1632   -5.4588    1.9350 H       1  UNL1        0.0278
     38 H           8.0701   -3.8171    1.8553 H       1  UNL1        0.0462
     39 H           6.9890   -2.5431    2.4422 H       1  UNL1        0.0462
     40 H           5.8809   -3.7258    0.1014 H       1  UNL1        0.1487
     41 H           7.2019   -1.0469   -2.0113 H       1  UNL1        0.0592
     42 H           4.8278   -2.9192   -1.4508 H       1  UNL1        0.0252
     43 H           4.9381   -1.7494   -2.7542 H       1  UNL1        0.0252
     44 H           4.8833   -1.1944   -1.0662 H       1  UNL1        0.0252
     45 H           6.7234   -3.6560   -3.0162 H       1  UNL1        0.1498
     46 H          12.3253   -9.1209   -6.3057 H       1  UNL1        0.0459
     47 H          13.3708   -7.7919   -6.8609 H       1  UNL1        0.0459
     48 H          14.5738   -8.4200   -9.8576 H       1  UNL1        0.0631
     49 H          16.5009   -8.9237  -11.1147 H       1  UNL1        0.0278
     50 H          16.2247  -10.2397  -12.2737 H       1  UNL1        0.0278
     51 H          17.2038  -10.5116  -10.8039 H       1  UNL1        0.0278
     52 H          15.2865  -12.5132  -10.9538 H       1  UNL1        0.0620
     53 H          13.6618  -13.2395   -9.2535 H       1  UNL1        0.0621
     54 H          11.6539  -12.8044   -8.0952 H       1  UNL1        0.0278
     55 H          10.7980  -11.3972   -8.7241 H       1  UNL1        0.0278
     56 H          11.6443  -11.3094   -7.1509 H       1  UNL1        0.0278
     57 H          10.3074   -7.2387   -8.1802 H       1  UNL1        0.1701
     58 H           7.2365   -4.0581   -6.5652 H       1  UNL1        0.0278
     59 H           7.5734   -2.6850   -5.5103 H       1  UNL1        0.0278
     60 H           6.5306   -4.0233   -4.9673 H       1  UNL1        0.0278
@<TRIPOS>BOND
     1     1     2    1
     2     2     3    1
     3     3     4    1
     4     4     5   am
     5     5     6    2
     6     7     9    1
     7     9    10   am
     8    10    11    2
     9    10    12    1
    10    12    13   ar
    11    13    14   ar
    12    14    15   ar
    13    15    16   ar
    14    16    17    1
    15    17    18    1
    16    18    19    1
    17    19    20   ar
    18    20    21   ar
    19    21    22    1
    20    21    23   ar
    21    23    24   ar
    22    24    25   ar
    23    19    25   ar
    24    25    26    1
    25    16    27   ar
    26    27    28   ar
    27    28    29    2
    28    28    30   ar
    29    14    30   ar
    30    30    31   ar
    31    12    31   ar
    32    31    32    1
    33     7     8    1
    34     7     5    1
    35     1    33    1
    36     1    34    1
    37     1    35    1
    38     2    36    1
    39     2    37    1
    40     3    38    1
    41     3    39    1
    42     4    40    1
    43     7    41    1
    44     8    42    1
    45     8    43    1
    46     8    44    1
    47     9    45    1
    48    17    46    1
    49    17    47    1
    50    20    48    1
    51    22    49    1
    52    22    50    1
    53    22    51    1
    54    23    52    1
    55    24    53    1
    56    26    54    1
    57    26    55    1
    58    26    56    1
    59    27    57    1
    60    32    58    1
    61    32    59    1
    62    32    60    1
