REMARK  7 active torsions:
REMARK  status: ('A' for Active; 'I' for Inactive)
REMARK    1  A    between atoms: N_2  and  C_4 
REMARK    2  A    between atoms: C_5  and  N_6 
REMARK    3  A    between atoms: N_6  and  C_7 
REMARK    4  A    between atoms: C_7  and  C_8 
REMARK    5  A    between atoms: C_8  and  O_9 
REMARK    6  A    between atoms: C_11  and  N_12 
REMARK    7  A    between atoms: N_15  and  C_16 
ROOT
ATOM      1  C   UNL d   1       3.008  -1.093  -0.715  0.00  0.00     0.162 A 
ATOM      2  C   UNL d   1       2.675  -1.471  -2.037  0.00  0.00     0.066 A 
ATOM      3  C   UNL d   1       3.400  -2.556  -2.635  0.00  0.00     0.063 A 
ATOM      4  C   UNL d   1       4.417  -3.348  -2.030  0.00  0.00     0.066 A 
ATOM      5  C   UNL d   1       4.707  -2.928  -0.702  0.00  0.00     0.146 A 
ATOM      6  N   UNL d   1       5.604  -3.423   0.164  0.00  0.00    -0.101 NA
ATOM      7  O   UNL d   1       5.506  -2.647   1.304  0.00  0.00    -0.106 OA
ATOM      8  N   UNL d   1       4.523  -1.687   1.187  0.00  0.00    -0.100 NA
ATOM      9  C   UNL d   1       4.019  -1.809  -0.049  0.00  0.00     0.155 A 
ENDROOT
BRANCH   4  10
ATOM     10  N   UNL d   1       4.949  -4.430  -2.710  0.00  0.00    -0.376 N 
ATOM     11  C   UNL d   1       4.973  -5.774  -2.121  0.00  0.00     0.143 C 
ATOM     12  C   UNL d   1       4.404  -6.782  -3.173  0.00  0.00     0.144 C 
ATOM     13  N   UNL d   1       5.130  -6.673  -4.460  0.00  0.00    -0.364 N 
ATOM     14  C   UNL d   1       5.211  -5.289  -5.001  0.00  0.00     0.144 C 
ATOM     15  C   UNL d   1       5.733  -4.280  -3.944  0.00  0.00     0.143 C 
BRANCH  13  16
ATOM     16  C   UNL d   1       5.763  -7.715  -5.081  0.00  0.00     0.102 A 
ATOM     17  C   UNL d   1       7.130  -7.722  -5.389  0.00  0.00     0.048 A 
ATOM     18  C   UNL d   1       7.659  -8.689  -6.248  0.00  0.00     0.005 A 
ATOM     19  C   UNL d   1       6.839  -9.700  -6.727  0.00  0.00     0.017 A 
ATOM     20  C   UNL d   1       5.522  -9.741  -6.296  0.00  0.00     0.089 A 
ATOM     21  N   UNL d   1       5.030  -8.751  -5.529  0.00  0.00    -0.352 N 
ATOM     22  H   UNL d   1       4.038  -8.733  -5.316  0.00  0.00     0.166 HD
ENDBRANCH  13  16
ENDBRANCH   4  10
BRANCH   2  23
ATOM     23  N   UNL d   1       1.751  -0.742  -2.795  0.00  0.00    -0.386 N 
ATOM     24  H   UNL d   1       1.104  -0.136  -2.281  0.00  0.00     0.159 HD
BRANCH  23  25
ATOM     25  C   UNL d   1       1.304  -1.179  -4.110  0.00  0.00     0.146 C 
BRANCH  25  26
ATOM     26  C   UNL d   1       0.191  -0.292  -4.665  0.00  0.00     0.183 C 
BRANCH  26  27
ATOM     27  O   UNL d   1      -0.155  -0.718  -5.980  0.00  0.00    -0.399 OA
ATOM     28  H   UNL d   1       0.614  -0.556  -6.555  0.00  0.00     0.209 HD
ENDBRANCH  26  27
ENDBRANCH  25  26
ENDBRANCH  23  25
ENDBRANCH   2  23
BRANCH   1  29
ATOM     29  N   UNL d   1       2.309  -0.059   0.003  0.00  0.00    -0.111 N 
ATOM     30  O   UNL d   1       1.074  -0.078  -0.046  0.00  0.00    -0.532 OA
ATOM     31  O   UNL d   1       2.987   0.806   0.581  0.00  0.00    -0.532 OA
ENDBRANCH   1  29
TORSDOF 7
