REMARK  7 active torsions:
REMARK  status: ('A' for Active; 'I' for Inactive)
REMARK    1  A    between atoms: C_5  and  N_6 
REMARK       I    between atoms: N_6  and  C_7 
REMARK    2  A    between atoms: C_7  and  C_9 
REMARK    3  A    between atoms: C_9  and  S_10 
REMARK    4  A    between atoms: S_10  and  C_11 
REMARK    5  A    between atoms: C_13  and  N_14 
REMARK    6  A    between atoms: C_15  and  N_16 
REMARK       I    between atoms: N_16  and  C_17 
REMARK    7  A    between atoms: C_17  and  C_19 
ROOT
ATOM      1  C   UNL d   1      -5.016  -6.627  -0.066  0.00  0.00     0.171 A 
ATOM      2  N   UNL d   1      -4.904  -7.900  -0.071  0.00  0.00    -0.205 NA
ATOM      3  C   UNL d   1      -6.006  -8.693  -0.137  0.00  0.00     0.156 A 
ATOM      4  C   UNL d   1      -7.281  -8.218  -0.099  0.00  0.00     0.149 A 
ATOM      5  C   UNL d   1      -7.374  -6.699  -0.117  0.00  0.00     0.278 A 
ATOM      6  O   UNL d   1      -8.457  -6.118  -0.182  0.00  0.00    -0.265 OA
ATOM      7  N   UNL d   1      -6.201  -5.988  -0.084  0.00  0.00    -0.300 N 
ATOM      8  H   UNL d   1      -6.249  -4.984  -0.100  0.00  0.00     0.171 HD
ENDROOT
BRANCH   1   9
ATOM      9  S   UNL d   1      -3.531  -5.776  -0.043  0.00  0.00    -0.083 SA
BRANCH   9  10
ATOM     10  C   UNL d   1      -3.804  -3.992  -0.039  0.00  0.00     0.185 C 
BRANCH  10  11
ATOM     11  C   UNL d   1      -2.420  -3.325  -0.028  0.00  0.00     0.231 C 
ATOM     12  N   UNL d   1      -2.407  -1.932  -0.014  0.00  0.00    -0.326 N 
ATOM     13  H   UNL d   1      -3.293  -1.450  -0.017  0.00  0.00     0.169 HD
ATOM     14  O   UNL d   1      -1.405  -4.020  -0.033  0.00  0.00    -0.272 OA
BRANCH  12  15
ATOM     15  C   UNL d   1      -1.218  -1.131  -0.005  0.00  0.00     0.040 A 
ATOM     16  C   UNL d   1       0.048  -1.735   0.001  0.00  0.00     0.030 A 
ATOM     17  C   UNL d   1       1.235  -1.015   0.005  0.00  0.00     0.009 A 
ATOM     18  C   UNL d   1       1.210   0.367   0.000  0.00  0.00    -0.061 A 
ATOM     19  C   UNL d   1       2.512   1.109   0.008  0.00  0.00     0.048 C 
ATOM     20  C   UNL d   1      -0.037   1.010  -0.006  0.00  0.00     0.015 A 
ATOM     21  C   UNL d   1      -1.262   0.279  -0.004  0.00  0.00    -0.035 A 
ATOM     22  C   UNL d   1      -2.538   1.080  -0.005  0.00  0.00     0.050 C 
ENDBRANCH  12  15
ENDBRANCH  10  11
ENDBRANCH   9  10
ENDBRANCH   1   9
BRANCH   3  23
ATOM     23  N   UNL d   1      -5.670  -9.998  -0.311  0.00  0.00    -0.382 N 
ATOM     24  H   UNL d   1      -4.734 -10.269  -0.051  0.00  0.00     0.157 HD
ATOM     25  H   UNL d   1      -6.391 -10.704  -0.201  0.00  0.00     0.157 HD
ENDBRANCH   3  23
BRANCH   4  26
ATOM     26  N   UNL d   1      -8.485  -8.966  -0.101  0.00  0.00    -0.315 N 
ATOM     27  C   UNL d   1      -8.631 -10.351   0.022  0.00  0.00     0.263 C 
ATOM     28  O   UNL d   1      -7.683 -11.139   0.146  0.00  0.00    -0.267 OA
ATOM     29  H   UNL d   1      -9.335  -8.404  -0.109  0.00  0.00     0.169 HD
BRANCH  27  30
ATOM     30  C   UNL d   1      -9.943 -10.949  -0.001  0.00  0.00     0.072 A 
ATOM     31  C   UNL d   1     -11.006 -10.754  -0.853  0.00  0.00     0.025 A 
ATOM     32  C   UNL d   1     -12.034 -11.727  -0.649  0.00  0.00     0.009 A 
ATOM     33  C   UNL d   1     -11.719 -12.636   0.336  0.00  0.00     0.050 A 
ATOM     34  S   UNL d   1     -10.191 -12.327   1.014  0.00  0.00    -0.097 SA
ENDBRANCH  27  30
ENDBRANCH   4  26
TORSDOF 7
