@<TRIPOS>MOLECULE
*****
 64 66 0 0 0
SMALL
GASTEIGER

@<TRIPOS>ATOM
      1 C           1.0537    0.0803    0.0090 C.3     1  UNL1       -0.0652
      2 C           2.5730    0.0930    0.0133 C.3     1  UNL1       -0.0528
      3 C           3.1185    1.5082    0.2056 C.3     1  UNL1       -0.0189
      4 C           4.6488    1.5102    0.2177 C.3     1  UNL1        0.0896
      5 O           5.1194    2.8301    0.5024 O.3     1  UNL1       -0.4920
      6 C           6.4712    3.0333    0.3957 C.ar    1  UNL1        0.1205
      7 C           7.0215    3.9822    1.2571 C.ar    1  UNL1       -0.0192
      8 C           8.3423    4.4304    1.0682 C.ar    1  UNL1       -0.0443
      9 C           9.1530    3.8986    0.0430 C.ar    1  UNL1        0.0596
     10 C          10.5444    4.4432   -0.1816 C.2     1  UNL1        0.3446
     11 O          10.8902    5.5539    0.2242 O.2     1  UNL1       -0.2445
     12 O          11.4013    3.4738   -0.7018 O.3     1  UNL1       -0.4186
     13 C          12.8064    3.6414   -0.5308 C.ar    1  UNL1        0.1734
     14 C          13.5789    3.7176   -1.7090 C.ar    1  UNL1       -0.0150
     15 C          14.9922    3.7770   -1.6600 C.ar    1  UNL1       -0.0494
     16 C          15.6552    3.8315   -0.4307 C.ar    1  UNL1       -0.0018
     17 C          17.1518    4.0632   -0.3866 C.2     1  UNL1        0.0529
     18 N          17.7782    4.1713    0.7418 N.2     1  UNL1       -0.1885
     19 N          19.1454    4.4340    0.8202 N.am    1  UNL1       -0.2182
     20 C          19.7025    4.6034    2.1103 C.2     1  UNL1        0.1542
     21 S          18.7079    4.5558    3.4846 S.2     1  UNL1       -0.0169
     22 N          21.0956    4.8511    2.1312 N.am    1  UNL1       -0.2956
     23 C          21.9004    4.9261    3.3212 C.ar    1  UNL1        0.0329
     24 C          22.9099    5.8853    3.4833 C.ar    1  UNL1       -0.0405
     25 C          23.6894    5.9093    4.6595 C.ar    1  UNL1       -0.0598
     26 C          23.4471    5.0041    5.6949 C.ar    1  UNL1       -0.0587
     27 C          22.4719    4.0249    5.5333 C.ar    1  UNL1       -0.0487
     28 C          22.2094    2.9827    6.5764 C.3     1  UNL1       -0.0397
     29 C          21.7308    3.9878    4.3442 C.ar    1  UNL1       -0.0376
     30 C          14.8782    3.7214    0.7386 C.ar    1  UNL1       -0.0076
     31 C          13.4582    3.6004    0.7119 C.ar    1  UNL1        0.1628
     32 O          12.9274    3.4510    1.9677 O.3     1  UNL1       -0.4914
     33 C          11.5534    3.1620    2.1554 C.3     1  UNL1        0.0790
     34 C           8.6306    2.8613   -0.7313 C.ar    1  UNL1       -0.0443
     35 C           7.2905    2.4574   -0.5767 C.ar    1  UNL1       -0.0192
     36 H           0.6812   -0.9406   -0.1209 H       1  UNL1        0.0230
     37 H           0.6608    0.6933   -0.8082 H       1  UNL1        0.0230
     38 H           0.6588    0.4697    0.9526 H       1  UNL1        0.0230
     39 H           2.9398   -0.3267   -0.9311 H       1  UNL1        0.0264
     40 H           2.9361   -0.5568    0.8182 H       1  UNL1        0.0264
     41 H           2.7373    1.9390    1.1391 H       1  UNL1        0.0298
     42 H           2.7550    2.1615   -0.5987 H       1  UNL1        0.0298
     43 H           4.9887    1.1499   -0.7576 H       1  UNL1        0.0696
     44 H           5.0126    0.8418    1.0049 H       1  UNL1        0.0696
     45 H           6.4129    4.3938    2.0622 H       1  UNL1        0.0654
     46 H           8.7256    5.2067    1.7304 H       1  UNL1        0.0627
     47 H          13.0874    3.7473   -2.6798 H       1  UNL1        0.0656
     48 H          15.5563    3.7890   -2.5904 H       1  UNL1        0.0625
     49 H          17.6761    4.1667   -1.3529 H       1  UNL1        0.0851
     50 H          19.6826    4.5385   -0.0328 H       1  UNL1        0.1762
     51 H          21.5564    5.1475    1.2805 H       1  UNL1        0.1539
     52 H          23.0717    6.6714    2.7512 H       1  UNL1        0.0636
     53 H          24.4885    6.6388    4.7818 H       1  UNL1        0.0618
     54 H          24.0229    5.0586    6.6170 H       1  UNL1        0.0620
     55 H          22.8669    3.1021    7.4420 H       1  UNL1        0.0278
     56 H          22.3891    1.9910    6.1483 H       1  UNL1        0.0278
     57 H          21.1715    3.0409    6.9211 H       1  UNL1        0.0278
     58 H          21.0138    3.1811    4.2227 H       1  UNL1        0.0639
     59 H          15.3792    3.7242    1.7071 H       1  UNL1        0.0662
     60 H          11.3617    2.9159    3.2018 H       1  UNL1        0.0660
     61 H          11.2150    2.3226    1.5381 H       1  UNL1        0.0660
     62 H          10.9581    4.0595    2.0225 H       1  UNL1        0.0660
     63 H           9.2356    2.3827   -1.4949 H       1  UNL1        0.0627
     64 H           6.9012    1.7259   -1.2756 H       1  UNL1        0.0654
@<TRIPOS>BOND
     1     1     2    1
     2     2     3    1
     3     3     4    1
     4     4     5    1
     5     5     6    1
     6     6     7   ar
     7     7     8   ar
     8     8     9   ar
     9     9    10    1
    10    10    11    2
    11    10    12    1
    12    12    13    1
    13    13    14   ar
    14    14    15   ar
    15    15    16   ar
    16    16    17    1
    17    17    18    2
    18    18    19    1
    19    19    20    1
    20    20    21    2
    21    20    22    1
    22    22    23    1
    23    23    24   ar
    24    24    25   ar
    25    25    26   ar
    26    26    27   ar
    27    27    28    1
    28    27    29   ar
    29    23    29   ar
    30    16    30   ar
    31    30    31   ar
    32    13    31   ar
    33    31    32    1
    34    32    33    1
    35     9    34   ar
    36    34    35   ar
    37     6    35   ar
    38     1    36    1
    39     1    37    1
    40     1    38    1
    41     2    39    1
    42     2    40    1
    43     3    41    1
    44     3    42    1
    45     4    43    1
    46     4    44    1
    47     7    45    1
    48     8    46    1
    49    14    47    1
    50    15    48    1
    51    17    49    1
    52    19    50    1
    53    22    51    1
    54    24    52    1
    55    25    53    1
    56    26    54    1
    57    28    55    1
    58    28    56    1
    59    28    57    1
    60    29    58    1
    61    30    59    1
    62    33    60    1
    63    33    61    1
    64    33    62    1
    65    34    63    1
    66    35    64    1
