@<TRIPOS>MOLECULE
*****
 34 35 0 0 0
SMALL
GASTEIGER

@<TRIPOS>ATOM
      1 C           1.0644   -0.0931    0.0856 C.3     1  UNL1        0.0125
      2 C           2.5636   -0.1001   -0.0256 C.2     1  UNL1        0.2141
      3 O           3.0965   -0.1602   -1.1328 O.2     1  UNL1       -0.2758
      4 N           3.2467   -0.0588    1.1813 N.am    1  UNL1       -0.2857
      5 C           4.6570    0.0117    1.2456 C.ar    1  UNL1        0.0341
      6 C           5.3612   -0.6484    2.2559 C.ar    1  UNL1       -0.0404
      7 C           6.7522   -0.5198    2.3338 C.ar    1  UNL1       -0.0593
      8 C           7.4348    0.2571    1.3964 C.ar    1  UNL1       -0.0495
      9 C           6.7326    0.9450    0.3954 C.ar    1  UNL1        0.0388
     10 C           7.4888    1.8398   -0.5193 C.2     1  UNL1        0.2483
     11 O           8.7163    1.8896   -0.3702 O.2     1  UNL1       -0.2699
     12 N           6.7855    2.6249   -1.4272 N.am    1  UNL1       -0.2814
     13 C           7.4454    3.4357   -2.3717 C.ar    1  UNL1        0.0371
     14 C           6.9590    4.7032   -2.7022 C.ar    1  UNL1       -0.0402
     15 C           7.6483    5.4826   -3.6420 C.ar    1  UNL1       -0.0566
     16 C           8.8188    5.0011   -4.2388 C.ar    1  UNL1       -0.0201
     17 C           9.2628    3.7222   -3.9305 C.ar    1  UNL1        0.1186
     18 O          10.3590    3.1638   -4.5153 O.3     1  UNL1       -0.5067
     19 C           8.5845    2.9455   -3.0084 C.ar    1  UNL1        0.0011
     20 C           5.3494    0.7998    0.3216 C.ar    1  UNL1       -0.0284
     21 H           0.6478   -0.1803   -0.9250 H       1  UNL1        0.0323
     22 H           0.7152    0.8479    0.5165 H       1  UNL1        0.0323
     23 H           0.7134   -0.9435    0.6734 H       1  UNL1        0.0323
     24 H           2.7424   -0.2073    2.0469 H       1  UNL1        0.1548
     25 H           4.8598   -1.3187    2.9488 H       1  UNL1        0.0636
     26 H           7.3124   -1.0175    3.1228 H       1  UNL1        0.0618
     27 H           8.5211    0.3335    1.4534 H       1  UNL1        0.0625
     28 H           5.7794    2.7066   -1.3856 H       1  UNL1        0.1551
     29 H           6.1003    5.1308   -2.1900 H       1  UNL1        0.0636
     30 H           7.2818    6.4726   -3.9042 H       1  UNL1        0.0619
     31 H           9.3679    5.6305   -4.9309 H       1  UNL1        0.0654
     32 H          10.7310    3.7894   -5.1539 H       1  UNL1        0.2921
     33 H           8.9386    1.9398   -2.8041 H       1  UNL1        0.0673
     34 H           4.7811    1.3256   -0.4328 H       1  UNL1        0.0644
@<TRIPOS>BOND
     1     1     2    1
     2     2     3    2
     3     2     4   am
     4     4     5    1
     5     5     6   ar
     6     6     7   ar
     7     7     8   ar
     8     8     9   ar
     9     9    10    1
    10    10    11    2
    11    10    12   am
    12    12    13    1
    13    13    14   ar
    14    14    15   ar
    15    15    16   ar
    16    16    17   ar
    17    17    18    1
    18    17    19   ar
    19    13    19   ar
    20     9    20   ar
    21     5    20   ar
    22     1    21    1
    23     1    22    1
    24     1    23    1
    25     4    24    1
    26     6    25    1
    27     7    26    1
    28     8    27    1
    29    12    28    1
    30    14    29    1
    31    15    30    1
    32    16    31    1
    33    18    32    1
    34    19    33    1
    35    20    34    1
