REMARK  9 active torsions:
REMARK  status: ('A' for Active; 'I' for Inactive)
REMARK    1  A    between atoms: C_2  and  C_3 
REMARK       I    between atoms: C_2  and  N_30 
REMARK    2  A    between atoms: C_3  and  S_4 
REMARK    3  A    between atoms: C_5  and  S_4 
REMARK    4  A    between atoms: N_15  and  N_16 
REMARK       I    between atoms: N_16  and  C_17 
REMARK    5  A    between atoms: C_17  and  C_19 
REMARK    6  A    between atoms: C_19  and  C_20 
REMARK    7  A    between atoms: C_20  and  C_21 
REMARK    8  A    between atoms: N_30  and  C_31 
REMARK    9  A    between atoms: C_31  and  C_32 
ROOT
ATOM      1  C   UNL d   1       2.802  -0.940   4.125  0.00  0.00     0.274 C 
ATOM      2  N   UNL d   1       2.306   0.063   5.062  0.00  0.00    -0.358 N 
ATOM      3  C   UNL d   1       2.513  -0.147   6.426  0.00  0.00     0.046 A 
ATOM      4  C   UNL d   1       2.511   0.892   7.361  0.00  0.00     0.030 A 
ATOM      5  C   UNL d   1       2.624   0.626   8.740  0.00  0.00     0.002 A 
ATOM      6  C   UNL d   1       2.706  -0.682   9.211  0.00  0.00     0.001 A 
ATOM      7  C   UNL d   1       2.735  -1.719   8.298  0.00  0.00     0.019 A 
ATOM      8  C   UNL d   1       2.670  -1.440   6.925  0.00  0.00     0.060 A 
ATOM      9  C   UNL d   1       2.739  -2.556   5.982  0.00  0.00     0.277 C 
ATOM     10  O   UNL d   1       3.053  -3.653   6.448  0.00  0.00    -0.266 OA
ATOM     11  N   UNL d   1       2.442  -2.262   4.649  0.00  0.00    -0.221 N 
ATOM     12  H   UNL d   1       2.232   1.018   4.738  0.00  0.00     0.162 HD
ENDROOT
BRANCH  11  13
ATOM     13  N   UNL d   1       2.200  -3.327   3.697  0.00  0.00    -0.262 N 
ATOM     14  C   UNL d   1       1.646  -4.528   4.139  0.00  0.00     0.236 C 
ATOM     15  O   UNL d   1       1.373  -4.845   5.291  0.00  0.00    -0.272 OA
ATOM     16  H   UNL d   1       2.006  -3.030   2.748  0.00  0.00     0.190 HD
BRANCH  14  17
ATOM     17  C   UNL d   1       1.286  -5.511   3.058  0.00  0.00     0.109 C 
BRANCH  17  18
ATOM     18  C   UNL d   1       0.970  -6.841   3.765  0.00  0.00     0.046 C 
BRANCH  18  19
ATOM     19  C   UNL d   1       0.608  -7.945   2.848  0.00  0.00    -0.050 A 
ATOM     20  C   UNL d   1       0.858  -9.237   3.065  0.00  0.00    -0.006 A 
ATOM     21  C   UNL d   1       1.435  -9.960   4.147  0.00  0.00     0.014 A 
ATOM     22  C   UNL d   1       0.419  -9.906   1.832  0.00  0.00     0.038 A 
ATOM     23  C   UNL d   1       1.595 -11.284   4.008  0.00  0.00     0.001 A 
ATOM     24  C   UNL d   1       1.200 -11.973   2.787  0.00  0.00     0.002 A 
ATOM     25  C   UNL d   1       0.637 -11.357   1.728  0.00  0.00     0.030 A 
ATOM     26  N   UNL d   1      -0.082  -9.086   0.987  0.00  0.00    -0.385 N 
ATOM     27  C   UNL d   1      -0.061  -7.719   1.532  0.00  0.00     0.155 A 
ATOM     28  H   UNL d   1      -0.415  -9.358   0.066  0.00  0.00     0.160 HD
ENDBRANCH  18  19
ENDBRANCH  17  18
ENDBRANCH  14  17
ENDBRANCH  11  13
BRANCH   1  29
ATOM     29  S   UNL d   1       4.606  -0.725   3.906  0.00  0.00    -0.112 SA
BRANCH  29  30
ATOM     30  C   UNL d   1       4.918  -1.148   2.144  0.00  0.00     0.180 C 
BRANCH  30  31
ATOM     31  C   UNL d   1       6.425  -1.050   1.828  0.00  0.00     0.227 C 
ATOM     32  O   UNL d   1       7.289  -0.723   2.640  0.00  0.00    -0.273 OA
ATOM     33  N   UNL d   1       6.847  -1.352   0.562  0.00  0.00    -0.358 N 
ATOM     34  H   UNL d   1       7.838  -1.169   0.420  0.00  0.00     0.162 HD
BRANCH  33  35
ATOM     35  C   UNL d   1       6.054  -1.712  -0.600  0.00  0.00     0.154 C 
BRANCH  35  36
ATOM     36  C   UNL d   1       6.910  -1.971  -1.849  0.00  0.00     0.139 C 
ATOM     37  C   UNL d   1       7.852  -3.156  -1.706  0.00  0.00     0.035 C 
ATOM     38  C   UNL d   1       9.034  -2.753  -2.550  0.00  0.00     0.029 C 
ATOM     39  C   UNL d   1       9.065  -1.248  -2.398  0.00  0.00     0.168 C 
ATOM     40  O   UNL d   1       7.718  -0.821  -2.149  0.00  0.00    -0.384 OA
ENDBRANCH  35  36
ENDBRANCH  33  35
ENDBRANCH  30  31
ENDBRANCH  29  30
ENDBRANCH   1  29
TORSDOF 9
