@<TRIPOS>MOLECULE
*****
 60 63 0 0 0
SMALL
GASTEIGER

@<TRIPOS>ATOM
      1 C           1.3300   -0.7061    0.0174 C.3     1  UNL1        0.0790
      2 O           2.6682   -0.2023    0.0227 O.3     1  UNL1       -0.4914
      3 C           3.0927    0.6150   -1.0068 C.ar    1  UNL1        0.1623
      4 C           4.2310    0.1224   -1.7093 C.ar    1  UNL1       -0.0023
      5 C           4.9695    0.9246   -2.6131 C.ar    1  UNL1        0.0627
      6 C           6.2995    0.4292   -3.1385 C.2     1  UNL1        0.3397
      7 O           6.7776   -0.6426   -2.8663 O.2     1  UNL1       -0.2449
      8 O           6.9299    1.3623   -3.9149 O.3     1  UNL1       -0.4531
      9 C           8.2303    0.9682   -4.4128 C.3     1  UNL1        0.1550
     10 C           8.7559    2.0657   -5.3233 C.2     1  UNL1        0.2034
     11 O           8.1186    3.1148   -5.4342 O.2     1  UNL1       -0.2885
     12 C          10.0502    1.9035   -6.0775 C.2     1  UNL1        0.0786
     13 C          10.5523    3.0054   -6.6886 C.ar    1  UNL1        0.0586
     14 C          10.0903    4.3400   -6.9439 C.ar    1  UNL1       -0.0477
     15 C          10.7654    5.1286   -7.7913 C.ar    1  UNL1       -0.0608
     16 C          12.0528    4.7395   -8.3276 C.ar    1  UNL1       -0.0555
     17 C          12.6374    3.5612   -8.0409 C.ar    1  UNL1        0.0098
     18 C          11.8981    2.6309   -7.1540 C.ar    1  UNL1        0.2092
     19 N          12.2411    1.4825   -6.7259 N.2     1  UNL1       -0.2341
     20 C          11.1297    0.8264   -5.9628 C.3     1  UNL1        0.1801
     21 C          11.6313   -0.6155   -5.6696 C.3     1  UNL1        0.0021
     22 C           4.4902    2.1969   -2.9114 C.ar    1  UNL1       -0.0441
     23 C           3.3792    2.6963   -2.2205 C.ar    1  UNL1       -0.0155
     24 C           2.6991    1.9499   -1.2360 C.ar    1  UNL1        0.1626
     25 O           1.7799    2.7492   -0.5876 O.3     1  UNL1       -0.4791
     26 C           0.8620    2.0950    0.2425 C.3     1  UNL1        0.1656
     27 C          -0.3000    2.7918    0.9331 C.2     1  UNL1        0.2548
     28 O          -0.6013    3.9415    0.6256 O.2     1  UNL1       -0.2717
     29 N          -0.9977    2.0030    1.8708 N.am    1  UNL1       -0.2827
     30 C          -2.1919    2.4869    2.4495 C.ar    1  UNL1        0.0337
     31 C          -2.4870    2.3016    3.8046 C.ar    1  UNL1       -0.0378
     32 C          -3.6725    2.8411    4.3270 C.ar    1  UNL1       -0.0247
     33 C          -4.5273    3.5718    3.5035 C.ar    1  UNL1        0.1235
     34 F          -5.6213    4.1458    4.0189 F       1  UNL1       -0.2055
     35 C          -4.2558    3.7280    2.1554 C.ar    1  UNL1       -0.0247
     36 C          -3.0971    3.1728    1.6326 C.ar    1  UNL1       -0.0378
     37 H           1.2451   -1.5451    0.7123 H       1  UNL1        0.0660
     38 H           0.9508   -0.9361   -0.9794 H       1  UNL1        0.0660
     39 H           0.6287   -0.0492    0.5150 H       1  UNL1        0.0660
     40 H           4.5759   -0.8925   -1.5112 H       1  UNL1        0.0663
     41 H           8.1353    0.0635   -5.0147 H       1  UNL1        0.0782
     42 H           8.9214    0.8477   -3.5723 H       1  UNL1        0.0782
     43 H           9.1692    4.7098   -6.5083 H       1  UNL1        0.0626
     44 H          10.3374    6.0828   -8.0942 H       1  UNL1        0.0618
     45 H          12.5437    5.4805   -8.9588 H       1  UNL1        0.0620
     46 H          13.6034    3.3118   -8.4667 H       1  UNL1        0.0683
     47 H          13.1326    1.0655   -6.9993 H       1  UNL1        0.4462
     48 H          11.1642    1.0349   -4.8979 H       1  UNL1        0.1115
     49 H          12.6323   -0.8094   -6.0999 H       1  UNL1        0.0297
     50 H          10.9820   -1.4432   -5.9428 H       1  UNL1        0.0297
     51 H          11.8466   -0.7027   -4.5859 H       1  UNL1        0.0297
     52 H           4.9848    2.8384   -3.6384 H       1  UNL1        0.0627
     53 H           3.0622    3.7224   -2.4082 H       1  UNL1        0.0655
     54 H           1.4323    1.6367    1.0568 H       1  UNL1        0.0795
     55 H           0.3074    1.4484   -0.4458 H       1  UNL1        0.0795
     56 H          -0.6116    1.1440    2.2525 H       1  UNL1        0.1549
     57 H          -1.7840    1.8299    4.4868 H       1  UNL1        0.0637
     58 H          -3.9336    2.7206    5.3745 H       1  UNL1        0.0647
     59 H          -4.9290    4.2813    1.5115 H       1  UNL1        0.0647
     60 H          -2.9004    3.2857    0.5698 H       1  UNL1        0.0637
@<TRIPOS>UNITY_ATOM_ATTR
19 1
charge 1
@<TRIPOS>BOND
     1     1     2    1
     2     2     3    1
     3     3     4   ar
     4     4     5   ar
     5     5     6    1
     6     6     7    2
     7     6     8    1
     8     8     9    1
     9     9    10    1
    10    10    11    2
    11    10    12    1
    12    12    13    2
    13    13    14   ar
    14    14    15   ar
    15    15    16   ar
    16    16    17   ar
    17    17    18   ar
    18    13    18   ar
    19    18    19    2
    20    19    20    1
    21    12    20    1
    22     5    22   ar
    23    22    23   ar
    24    23    24   ar
    25     3    24   ar
    26    24    25    1
    27    25    26    1
    28    26    27    1
    29    27    28    2
    30    27    29   am
    31    29    30    1
    32    30    31   ar
    33    31    32   ar
    34    32    33   ar
    35    33    34    1
    36    33    35   ar
    37    35    36   ar
    38    30    36   ar
    39    20    21    1
    40     1    37    1
    41     1    38    1
    42     1    39    1
    43     4    40    1
    44     9    41    1
    45     9    42    1
    46    14    43    1
    47    15    44    1
    48    16    45    1
    49    17    46    1
    50    19    47    1
    51    20    48    1
    52    21    49    1
    53    21    50    1
    54    21    51    1
    55    22    52    1
    56    23    53    1
    57    26    54    1
    58    26    55    1
    59    29    56    1
    60    31    57    1
    61    32    58    1
    62    35    59    1
    63    36    60    1
