@<TRIPOS>MOLECULE
*****
 35 36 0 0 0
SMALL
GASTEIGER

@<TRIPOS>ATOM
      1 C           0.9365    0.0125    0.0084 C.3     1  UNL1       -0.0463
      2 C           2.4729    0.0939   -0.0710 C.3     1  UNL1        0.0261
      3 C           2.8833    1.4244   -0.7123 C.3     1  UNL1        0.0432
      4 C           2.3870    1.6472   -2.1119 C.2     1  UNL1        0.2281
      5 O           1.7592    0.8170   -2.7718 O.2     1  UNL1       -0.2745
      6 N           2.7841    2.8681   -2.6440 N.am    1  UNL1       -0.2535
      7 N           2.3452    3.2057   -3.9385 N.3     1  UNL1       -0.2544
      8 N           3.0049   -0.0226    1.3186 N.pl3   1  UNL1       -0.3403
      9 C           4.3735   -0.2038    1.5866 C.ar    1  UNL1        0.0351
     10 C           5.2898    0.7428    1.1086 C.ar    1  UNL1       -0.0402
     11 C           6.6637    0.6280    1.2597 C.ar    1  UNL1       -0.0594
     12 C           7.1745   -0.4201    1.9965 C.ar    1  UNL1       -0.0539
     13 C           6.3119   -1.3516    2.5826 C.ar    1  UNL1       -0.0161
     14 C           6.8623   -2.3494    3.3986 C.ar    1  UNL1       -0.0540
     15 C           6.0492   -3.2991    4.0069 C.ar    1  UNL1       -0.0612
     16 C           4.6766   -3.2676    3.7933 C.ar    1  UNL1       -0.0611
     17 C           4.1105   -2.2785    2.9788 C.ar    1  UNL1       -0.0523
     18 C           4.8995   -1.2775    2.3665 C.ar    1  UNL1        0.0030
     19 H           0.4573    0.1441   -0.9657 H       1  UNL1        0.0248
     20 H           0.5388    0.7893    0.6703 H       1  UNL1        0.0248
     21 H           0.6079   -0.9608    0.3856 H       1  UNL1        0.0248
     22 H           2.8283   -0.7439   -0.6868 H       1  UNL1        0.0499
     23 H           3.9606    1.4392   -0.8678 H       1  UNL1        0.0377
     24 H           2.6036    2.2619   -0.0596 H       1  UNL1        0.0377
     25 H           3.3260    3.5401   -2.1012 H       1  UNL1        0.1687
     26 H           1.7773    2.4054   -4.2612 H       1  UNL1        0.1405
     27 H           3.1502    3.2038   -4.5684 H       1  UNL1        0.1405
     28 H           2.3852   -0.4981    1.9670 H       1  UNL1        0.1464
     29 H           4.9459    1.6681    0.6740 H       1  UNL1        0.0636
     30 H           7.3128    1.3868    0.8347 H       1  UNL1        0.0618
     31 H           8.2511   -0.4774    2.1361 H       1  UNL1        0.0624
     32 H           7.9353   -2.3835    3.5799 H       1  UNL1        0.0624
     33 H           6.4905   -4.0615    4.6430 H       1  UNL1        0.0618
     34 H           4.0400   -4.0105    4.2667 H       1  UNL1        0.0618
     35 H           3.0343   -2.2947    2.8376 H       1  UNL1        0.0624
@<TRIPOS>BOND
     1     1     2    1
     2     2     3    1
     3     3     4    1
     4     4     5    2
     5     4     6   am
     6     6     7    1
     7     2     8    1
     8     8     9    1
     9     9    10   ar
    10    10    11   ar
    11    11    12   ar
    12    12    13   ar
    13    13    14   ar
    14    14    15   ar
    15    15    16   ar
    16    16    17   ar
    17    17    18   ar
    18     9    18   ar
    19    13    18   ar
    20     1    19    1
    21     1    20    1
    22     1    21    1
    23     2    22    1
    24     3    23    1
    25     3    24    1
    26     6    25    1
    27     7    26    1
    28     7    27    1
    29     8    28    1
    30    10    29    1
    31    11    30    1
    32    12    31    1
    33    14    32    1
    34    15    33    1
    35    16    34    1
    36    17    35    1
