REMARK  4 active torsions:
REMARK  status: ('A' for Active; 'I' for Inactive)
REMARK    1  A    between atoms: C_5  and  C_6 
REMARK       I    between atoms: C_6  and  N_8 
REMARK    2  A    between atoms: N_8  and  C_9 
REMARK    3  A    between atoms: C_13  and  C_14 
REMARK    4  A    between atoms: C_20  and  O_21 
ROOT
ATOM      1  C   UNL d   1       3.115   1.628   0.040  0.00  0.00     0.256 C 
ATOM      2  O   UNL d   1       2.947   2.851   0.083  0.00  0.00    -0.267 OA
ATOM      3  N   UNL d   1       4.368   1.024  -0.034  0.00  0.00    -0.323 N 
ATOM      4  H   UNL d   1       4.453   0.043  -0.252  0.00  0.00     0.169 HD
ENDROOT
BRANCH   3   5
ATOM      5  C   UNL d   1       5.582   1.743   0.053  0.00  0.00     0.035 A 
ATOM      6  C   UNL d   1       6.699   1.339  -0.685  0.00  0.00     0.029 A 
ATOM      7  C   UNL d   1       7.919   2.014  -0.545  0.00  0.00     0.003 A 
ATOM      8  C   UNL d   1       8.022   3.102   0.322  0.00  0.00     0.016 A 
ATOM      9  C   UNL d   1       6.917   3.497   1.087  0.00  0.00     0.050 A 
ATOM     10  C   UNL d   1       5.701   2.818   0.932  0.00  0.00     0.045 A 
BRANCH   9  11
ATOM     11  C   UNL d   1       7.037   4.600   2.103  0.00  0.00     0.417 C 
ATOM     12  F   UNL d   1       7.998   4.333   3.031  0.00  0.00    -0.166 F 
ATOM     13  F   UNL d   1       7.372   5.795   1.547  0.00  0.00    -0.166 F 
ATOM     14  F   UNL d   1       5.894   4.819   2.812  0.00  0.00    -0.166 F 
ENDBRANCH   9  11
ENDBRANCH   3   5
BRANCH   1  15
ATOM     15  C   UNL d   1       1.891   0.762   0.010  0.00  0.00     0.035 A 
ATOM     16  C   UNL d   1       1.951  -0.635  -0.004  0.00  0.00     0.018 A 
ATOM     17  C   UNL d   1       0.774  -1.393  -0.009  0.00  0.00     0.010 A 
ATOM     18  C   UNL d   1      -0.481  -0.774  -0.001  0.00  0.00    -0.029 A 
ATOM     19  C   UNL d   1      -1.737  -1.597   0.004  0.00  0.00     0.051 C 
ATOM     20  C   UNL d   1      -0.542   0.620   0.002  0.00  0.00     0.072 A 
ATOM     21  C   UNL d   1       0.625   1.387   0.010  0.00  0.00     0.054 A 
BRANCH  20  22
ATOM     22  O   UNL d   1      -1.779   1.202  -0.003  0.00  0.00    -0.360 OA
ATOM     23  H   UNL d   1      -1.692   2.169  -0.013  0.00  0.00     0.217 HD
ENDBRANCH  20  22
ENDBRANCH   1  15
TORSDOF 4
