REMARK  9 active torsions:
REMARK  status: ('A' for Active; 'I' for Inactive)
REMARK    1  A    between atoms: C_2  and  C_11 
REMARK    2  A    between atoms: C_2  and  S_3 
REMARK    3  A    between atoms: S_3  and  C_4 
REMARK    4  A    between atoms: C_4  and  C_5 
REMARK       I    between atoms: C_11  and  N_13 
REMARK    5  A    between atoms: N_13  and  N_14 
REMARK    6  A    between atoms: C_15  and  C_16 
REMARK    7  A    between atoms: C_17  and  O_18 
REMARK    8  A    between atoms: C_20  and  O_21 
REMARK    9  A    between atoms: C_23  and  O_24 
ROOT
ATOM      1  C   UNL d   1       3.084  -1.400   0.752  0.00  0.00     0.251 C 
ATOM      2  O   UNL d   1       2.269  -2.249   1.135  0.00  0.00    -0.270 OA
ATOM      3  N   UNL d   1       4.470  -1.569   0.880  0.00  0.00    -0.246 N 
ATOM      4  H   UNL d   1       5.136  -0.909   0.493  0.00  0.00     0.192 HD
ENDROOT
BRANCH   3   5
ATOM      5  N   UNL d   1       4.930  -2.720   1.473  0.00  0.00    -0.184 NA
ATOM      6  C   UNL d   1       6.205  -2.915   1.571  0.00  0.00     0.155 C 
BRANCH   6   7
ATOM      7  C   UNL d   1       6.774  -4.167   2.146  0.00  0.00     0.049 A 
ATOM      8  C   UNL d   1       7.948  -4.131   2.916  0.00  0.00     0.082 A 
ATOM      9  C   UNL d   1       8.599  -5.312   3.293  0.00  0.00     0.074 A 
ATOM     10  C   UNL d   1       8.030  -6.539   2.968  0.00  0.00     0.071 A 
ATOM     11  C   UNL d   1       6.846  -6.601   2.242  0.00  0.00     0.074 A 
ATOM     12  C   UNL d   1       6.226  -5.418   1.825  0.00  0.00     0.082 A 
BRANCH   8  13
ATOM     13  O   UNL d   1       8.516  -2.968   3.366  0.00  0.00    -0.360 OA
ATOM     14  H   UNL d   1       7.833  -2.276   3.412  0.00  0.00     0.217 HD
ENDBRANCH   8  13
BRANCH  10  15
ATOM     15  O   UNL d   1       8.600  -7.720   3.346  0.00  0.00    -0.361 OA
ATOM     16  H   UNL d   1       9.341  -7.541   3.949  0.00  0.00     0.217 HD
ENDBRANCH  10  15
BRANCH  12  17
ATOM     17  O   UNL d   1       5.110  -5.499   1.042  0.00  0.00    -0.360 OA
ATOM     18  H   UNL d   1       4.752  -6.401   1.057  0.00  0.00     0.217 HD
ENDBRANCH  12  17
ENDBRANCH   6   7
ENDBRANCH   3   5
BRANCH   1  19
ATOM     19  C   UNL d   1       2.648  -0.090   0.066  0.00  0.00     0.137 C 
ATOM     20  C   UNL d   1       3.150   1.130   0.845  0.00  0.00     0.031 C 
BRANCH  19  21
ATOM     21  S   UNL d   1       0.832   0.173   0.043  0.00  0.00    -0.150 SA
BRANCH  21  22
ATOM     22  C   UNL d   1       0.220  -1.086  -1.132  0.00  0.00     0.113 C 
BRANCH  22  23
ATOM     23  C   UNL d   1      -1.304  -1.194  -1.152  0.00  0.00    -0.049 A 
ATOM     24  C   UNL d   1      -2.108  -0.755  -0.084  0.00  0.00     0.008 A 
ATOM     25  C   UNL d   1      -3.467  -1.058  -0.021  0.00  0.00     0.001 A 
ATOM     26  C   UNL d   1      -4.071  -1.750  -1.062  0.00  0.00     0.000 A 
ATOM     27  C   UNL d   1      -3.311  -2.146  -2.160  0.00  0.00     0.001 A 
ATOM     28  C   UNL d   1      -1.936  -1.878  -2.204  0.00  0.00     0.008 A 
ENDBRANCH  22  23
ENDBRANCH  21  22
ENDBRANCH  19  21
ENDBRANCH   1  19
TORSDOF 9
