@<TRIPOS>MOLECULE
*****
 28 29 0 0 0
SMALL
GASTEIGER

@<TRIPOS>ATOM
      1 C           3.0549    1.5814    0.0344 C.3     1  UNL1       -0.0394
      2 C           2.5568    0.1274    0.0849 C.3     1  UNL1        0.0826
      3 C           1.0364    0.0423    0.0439 C.ar    1  UNL1        0.0135
      4 C           0.2523   -1.0951    0.0789 C.ar    1  UNL1       -0.0419
      5 C          -1.1524   -0.8221    0.0919 C.ar    1  UNL1       -0.0105
      6 C          -2.2482   -1.7054    0.1813 C.ar    1  UNL1       -0.0535
      7 C          -3.5524   -1.2092    0.1438 C.ar    1  UNL1       -0.0611
      8 C          -3.7840    0.1558    0.0330 C.ar    1  UNL1       -0.0607
      9 C          -2.7191    1.0542   -0.0371 C.ar    1  UNL1       -0.0474
     10 C          -1.4092    0.5441   -0.0041 C.ar    1  UNL1        0.0196
     11 S           0.0440    1.4403   -0.0674 S.2     1  UNL1       -0.0912
     12 N           3.1606   -0.6007    1.2426 N.am    1  UNL1       -0.1601
     13 O           2.3321   -1.0969    2.2828 O.3     1  UNL1       -0.2907
     14 C           4.4991   -0.7761    1.5189 C.2     1  UNL1        0.3230
     15 N           5.3870   -0.3330    0.5930 N.am    1  UNL1       -0.3116
     16 O           4.9511   -1.2923    2.5437 O.2     1  UNL1       -0.2507
     17 H           4.1396    1.6802    0.0241 H       1  UNL1        0.0252
     18 H           2.7111    2.1382    0.9120 H       1  UNL1        0.0252
     19 H           2.7040    2.0808   -0.8752 H       1  UNL1        0.0252
     20 H           2.9330   -0.3933   -0.8071 H       1  UNL1        0.0578
     21 H           0.6683   -2.0938    0.1589 H       1  UNL1        0.0632
     22 H          -2.0724   -2.7737    0.2731 H       1  UNL1        0.0624
     23 H          -4.3879   -1.9015    0.1966 H       1  UNL1        0.0618
     24 H          -4.8035    0.5312    0.0009 H       1  UNL1        0.0618
     25 H          -2.8988    2.1229   -0.1192 H       1  UNL1        0.0629
     26 H           1.4290   -0.8047    2.0969 H       1  UNL1        0.2417
     27 H           5.1523    0.0505   -0.3055 H       1  UNL1        0.1465
     28 H           6.3648   -0.4028    0.8377 H       1  UNL1        0.1465
@<TRIPOS>BOND
     1     3     4   ar
     2     4     5   ar
     3     5     6   ar
     4     6     7   ar
     5     7     8   ar
     6     8     9   ar
     7     9    10   ar
     8     5    10   ar
     9    10    11   ar
    10     3    11   ar
    11     2    12    1
    12    12    13    1
    13    12    14   am
    14    14    15   am
    15    14    16    2
    16     2     3    1
    17     2     1    1
    18     1    17    1
    19     1    18    1
    20     1    19    1
    21     2    20    1
    22     4    21    1
    23     6    22    1
    24     7    23    1
    25     8    24    1
    26     9    25    1
    27    13    26    1
    28    15    27    1
    29    15    28    1
