@<TRIPOS>MOLECULE
*****
 57 59 0 0 0
SMALL
GASTEIGER

@<TRIPOS>ATOM
      1 C           1.1078    0.5039    0.0969 C.3     1  UNL1        0.0790
      2 O           2.4520    0.0273    0.0416 O.3     1  UNL1       -0.4915
      3 C           2.9903   -0.8686    0.9417 C.ar    1  UNL1        0.1615
      4 C           4.2164   -0.4149    1.4771 C.ar    1  UNL1       -0.0155
      5 C           5.1084   -1.2772    2.1465 C.ar    1  UNL1       -0.0444
      6 C           4.7679   -2.6121    2.3773 C.ar    1  UNL1        0.0598
      7 C           5.6851   -3.4964    3.1830 C.2     1  UNL1        0.3407
      8 O           6.7170   -3.0136    3.6201 O.2     1  UNL1       -0.2483
      9 N           5.2643   -4.8018    3.3936 N.am    1  UNL1        0.0006
     10 C           5.9494   -5.5825    4.1836 C.2     1  UNL1        0.3844
     11 N           5.5306   -6.8653    4.4230 N.pl3   1  UNL1       -0.2729
     12 C           4.3095   -7.4769    3.9552 C.3     1  UNL1        0.0912
     13 C           4.1500   -8.9241    4.3877 C.ar    1  UNL1        0.0040
     14 C           3.2832   -9.7779    3.6877 C.ar    1  UNL1       -0.0527
     15 C           3.1248  -11.1070    4.0862 C.ar    1  UNL1       -0.0432
     16 C           3.8368  -11.5535    5.1841 C.ar    1  UNL1        0.0276
     17 N           4.6513  -10.7644    5.9089 N.ar    1  UNL1       -0.2629
     18 C           4.7710   -9.4750    5.5078 C.ar    1  UNL1        0.0337
     19 N           7.0751   -5.2231    4.8948 N.pl3   1  UNL1       -0.2450
     20 C           8.0690   -5.9752    5.5537 C.ar    1  UNL1        0.1001
     21 C           8.7483   -5.4042    6.6378 C.ar    1  UNL1       -0.0229
     22 C           9.7538   -6.1075    7.3125 C.ar    1  UNL1       -0.0553
     23 C          10.0400   -7.4380    6.9827 C.ar    1  UNL1       -0.0473
     24 C          11.0158   -8.2210    7.8143 C.3     1  UNL1       -0.0395
     25 C           9.3735   -8.0249    5.8967 C.ar    1  UNL1       -0.0443
     26 C           9.6673   -9.4163    5.4121 C.3     1  UNL1       -0.0394
     27 C           8.4085   -7.2824    5.1944 C.ar    1  UNL1       -0.0200
     28 C           3.5524   -3.0685    1.8731 C.ar    1  UNL1       -0.0027
     29 C           2.6624   -2.2268    1.1581 C.ar    1  UNL1        0.1623
     30 O           1.5894   -2.9818    0.7483 O.3     1  UNL1       -0.4914
     31 C           0.5583   -2.2740    0.1248 C.3     1  UNL1        0.0790
     32 H           1.0299    1.4312   -0.4787 H       1  UNL1        0.0660
     33 H           0.7392    0.6524    1.1142 H       1  UNL1        0.0660
     34 H           0.4158   -0.1116   -0.4769 H       1  UNL1        0.0660
     35 H           4.5105    0.6272    1.3509 H       1  UNL1        0.0655
     36 H           6.0803   -0.9017    2.4647 H       1  UNL1        0.0627
     37 H           6.0620   -7.3703    5.1087 H       1  UNL1        0.2580
     38 H           4.3120   -7.4447    2.8592 H       1  UNL1        0.0707
     39 H           3.4441   -6.9115    4.3178 H       1  UNL1        0.0707
     40 H           2.7222   -9.4169    2.8281 H       1  UNL1        0.0622
     41 H           2.4628  -11.7810    3.5535 H       1  UNL1        0.0633
     42 H           3.7649  -12.5822    5.5253 H       1  UNL1        0.0829
     43 H           5.4116   -8.8928    6.1623 H       1  UNL1        0.0833
     44 H           7.3926   -4.2723    4.6885 H       1  UNL1        0.2646
     45 H           8.4870   -4.4063    6.9849 H       1  UNL1        0.0652
     46 H          10.3091   -5.6090    8.1049 H       1  UNL1        0.0621
     47 H          11.4401   -7.6181    8.6223 H       1  UNL1        0.0278
     48 H          11.8428   -8.5872    7.1986 H       1  UNL1        0.0278
     49 H          10.4987   -9.0708    8.2749 H       1  UNL1        0.0278
     50 H          10.4617   -9.9050    5.9797 H       1  UNL1        0.0278
     51 H           9.9965   -9.3702    4.3690 H       1  UNL1        0.0278
     52 H           8.7717  -10.0405    5.4859 H       1  UNL1        0.0278
     53 H           7.9409   -7.7447    4.3279 H       1  UNL1        0.0655
     54 H           3.2802   -4.1156    1.9990 H       1  UNL1        0.0663
     55 H          -0.2907   -2.8979   -0.1547 H       1  UNL1        0.0660
     56 H           0.9588   -1.8786   -0.8128 H       1  UNL1        0.0660
     57 H           0.1595   -1.5553    0.8483 H       1  UNL1        0.0660
@<TRIPOS>BOND
     1     1     2    1
     2     2     3    1
     3     3     4   ar
     4     4     5   ar
     5     5     6   ar
     6     6     7    1
     7     7     8    2
     8     7     9    1
     9     9    10    2
    10    10    11    1
    11    11    12    1
    12    12    13    1
    13    13    14   ar
    14    14    15   ar
    15    15    16   ar
    16    16    17   ar
    17    17    18   ar
    18    13    18   ar
    19    10    19    1
    20    19    20    1
    21    20    21   ar
    22    21    22   ar
    23    22    23   ar
    24    23    24    1
    25    23    25   ar
    26    25    26    1
    27    25    27   ar
    28    20    27   ar
    29     6    28   ar
    30    28    29   ar
    31     3    29   ar
    32    29    30    1
    33    30    31    1
    34     1    32    1
    35     1    33    1
    36     1    34    1
    37     4    35    1
    38     5    36    1
    39    11    37    1
    40    12    38    1
    41    12    39    1
    42    14    40    1
    43    15    41    1
    44    16    42    1
    45    18    43    1
    46    19    44    1
    47    21    45    1
    48    22    46    1
    49    24    47    1
    50    24    48    1
    51    24    49    1
    52    26    50    1
    53    26    51    1
    54    26    52    1
    55    27    53    1
    56    28    54    1
    57    31    55    1
    58    31    56    1
    59    31    57    1
