@<TRIPOS>MOLECULE
*****
 24 24 0 0 0
SMALL
GASTEIGER

@<TRIPOS>ATOM
      1 C           1.0700    0.0078   -0.0225 C.3     1  UNL1       -0.0650
      2 C           2.5867    0.0251   -0.0227 C.3     1  UNL1       -0.0514
      3 C           3.1622   -1.3549   -0.3275 C.3     1  UNL1       -0.0216
      4 C           4.6662   -1.4307   -0.3206 C.ar    1  UNL1       -0.0095
      5 C           5.4185   -2.5890   -0.2716 C.ar    1  UNL1       -0.0394
      6 C           6.8369   -2.3580   -0.2792 C.ar    1  UNL1        0.0452
      7 C           7.9189   -3.3457   -0.2460 C.2     1  UNL1        0.2579
      8 O           9.1082   -3.0245   -0.2544 O.2     1  UNL1       -0.2689
      9 N           7.5141   -4.6798   -0.2232 N.am    1  UNL1       -0.2495
     10 N           8.4737   -5.7149   -0.1134 N.3     1  UNL1       -0.2541
     11 C           7.0894   -0.9977   -0.3300 C.ar    1  UNL1       -0.0119
     12 S           5.6745   -0.0527   -0.4021 S.2     1  UNL1       -0.1008
     13 H           0.6874    1.0104    0.1903 H       1  UNL1        0.0230
     14 H           0.6867   -0.6767    0.7400 H       1  UNL1        0.0230
     15 H           0.6855   -0.3062   -0.9978 H       1  UNL1        0.0230
     16 H           2.9426    0.3725    0.9547 H       1  UNL1        0.0266
     17 H           2.9225    0.7500   -0.7733 H       1  UNL1        0.0266
     18 H           2.7998   -1.7018   -1.3040 H       1  UNL1        0.0318
     19 H           2.7825   -2.0692    0.4163 H       1  UNL1        0.0318
     20 H           4.9449   -3.5610   -0.2316 H       1  UNL1        0.0633
     21 H           6.5330   -4.9238   -0.1432 H       1  UNL1        0.1690
     22 H           9.4018   -5.2678   -0.1404 H       1  UNL1        0.1405
     23 H           8.4355   -6.2828   -0.9629 H       1  UNL1        0.1405
     24 H           8.0535   -0.5053   -0.3404 H       1  UNL1        0.0701
@<TRIPOS>BOND
     1     1     2    1
     2     2     3    1
     3     3     4    1
     4     4     5   ar
     5     5     6   ar
     6     6     7    1
     7     7     8    2
     8     7     9   am
     9     9    10    1
    10     6    11   ar
    11    11    12   ar
    12     4    12   ar
    13     1    13    1
    14     1    14    1
    15     1    15    1
    16     2    16    1
    17     2    17    1
    18     3    18    1
    19     3    19    1
    20     5    20    1
    21     9    21    1
    22    10    22    1
    23    10    23    1
    24    11    24    1
