@<TRIPOS>MOLECULE
*****
 51 52 0 0 0
SMALL
GASTEIGER

@<TRIPOS>ATOM
      1 C           1.0582    0.0602   -0.1006 C.3     1  UNL1       -0.0495
      2 C           2.5741    0.0083   -0.0924 C.3     1  UNL1        0.0089
      3 N           3.2108    0.9309   -1.0049 N.am    1  UNL1       -0.3128
      4 C           4.6123    0.8862   -1.1252 C.2     1  UNL1        0.2507
      5 O           5.3053    0.1880   -0.4030 O.2     1  UNL1       -0.2721
      6 C           5.1842    1.9100   -2.1237 C.3     1  UNL1        0.1653
      7 O           6.5450    2.3024   -2.0231 O.3     1  UNL1       -0.4791
      8 C           6.9723    3.4524   -2.6595 C.ar    1  UNL1        0.1626
      9 C           8.1098    3.2481   -3.4770 C.ar    1  UNL1       -0.0160
     10 C           8.8034    4.3182   -4.0947 C.ar    1  UNL1       -0.0534
     11 C           8.3374    5.6348   -3.9824 C.ar    1  UNL1       -0.0266
     12 C           8.9658    6.7810   -4.7700 C.3     1  UNL1        0.0385
     13 N           8.3450    8.1030   -4.5820 N.am    1  UNL1       -0.2941
     14 C           8.7514    9.2306   -5.2702 C.2     1  UNL1        0.3162
     15 O           9.6413    9.2220   -6.0980 O.2     1  UNL1       -0.2513
     16 N           8.0670   10.3960   -4.8698 N.am    1  UNL1       -0.2203
     17 N           8.1465   11.4883   -5.7725 N.pl3   1  UNL1       -0.2633
     18 C           7.6229   12.7499   -5.3962 C.ar    1  UNL1        0.0446
     19 C           7.3600   13.6763   -6.4274 C.ar    1  UNL1       -0.0367
     20 C           6.8423   14.9525   -6.1647 C.ar    1  UNL1       -0.0247
     21 C           6.5229   15.2998   -4.8628 C.ar    1  UNL1        0.1235
     22 F           5.9591   16.4900   -4.6124 F       1  UNL1       -0.2055
     23 C           6.7692   14.4144   -3.8204 C.ar    1  UNL1       -0.0247
     24 C           7.3235   13.1465   -4.0853 C.ar    1  UNL1       -0.0367
     25 C           7.2495    5.8251   -3.1298 C.ar    1  UNL1       -0.0116
     26 C           6.5778    4.7866   -2.4484 C.ar    1  UNL1        0.1618
     27 O           5.6657    5.3875   -1.6117 O.3     1  UNL1       -0.4914
     28 C           4.7314    4.5674   -0.9829 C.3     1  UNL1        0.0790
     29 H           0.6634   -0.7509    0.5220 H       1  UNL1        0.0245
     30 H           0.6605   -0.0640   -1.1122 H       1  UNL1        0.0245
     31 H           0.6800    1.0064    0.3003 H       1  UNL1        0.0245
     32 H           2.9034   -0.9848   -0.4076 H       1  UNL1        0.0459
     33 H           2.9537    0.1894    0.9194 H       1  UNL1        0.0459
     34 H           2.6611    1.6795   -1.4144 H       1  UNL1        0.1488
     35 H           4.5919    2.6778   -1.7285 H       1  UNL1        0.0795
     36 H           4.8197    1.8326   -3.1515 H       1  UNL1        0.0795
     37 H           8.4822    2.2338   -3.6327 H       1  UNL1        0.0655
     38 H           9.7133    4.1006   -4.6565 H       1  UNL1        0.0622
     39 H           8.9039    6.5328   -5.8375 H       1  UNL1        0.0512
     40 H          10.0263    6.8756   -4.5095 H       1  UNL1        0.0512
     41 H           7.5213    8.1880   -4.0200 H       1  UNL1        0.1506
     42 H           7.1736   10.3217   -4.4010 H       1  UNL1        0.1743
     43 H           9.0524   11.5389   -6.2539 H       1  UNL1        0.1700
     44 H           7.5221   13.3879   -7.4640 H       1  UNL1        0.0637
     45 H           6.6804   15.6674   -6.9659 H       1  UNL1        0.0647
     46 H           6.5361   14.7229   -2.8050 H       1  UNL1        0.0647
     47 H           7.5307   12.4922   -3.2448 H       1  UNL1        0.0637
     48 H           6.8817    6.8232   -2.9229 H       1  UNL1        0.0658
     49 H           4.0649    5.0621   -0.2802 H       1  UNL1        0.0660
     50 H           5.2740    3.8169   -0.3951 H       1  UNL1        0.0660
     51 H           4.0469    4.2479   -1.7787 H       1  UNL1        0.0660
@<TRIPOS>BOND
     1     1     2    1
     2     2     3    1
     3     3     4   am
     4     4     5    2
     5     4     6    1
     6     6     7    1
     7     7     8    1
     8     8     9   ar
     9     9    10   ar
    10    10    11   ar
    11    11    12    1
    12    12    13    1
    13    13    14   am
    14    14    15    2
    15    14    16   am
    16    16    17    1
    17    17    18    1
    18    18    19   ar
    19    19    20   ar
    20    20    21   ar
    21    21    22    1
    22    21    23   ar
    23    23    24   ar
    24    18    24   ar
    25    11    25   ar
    26    25    26   ar
    27     8    26   ar
    28    26    27    1
    29    27    28    1
    30     1    29    1
    31     1    30    1
    32     1    31    1
    33     2    32    1
    34     2    33    1
    35     3    34    1
    36     6    35    1
    37     6    36    1
    38     9    37    1
    39    10    38    1
    40    12    39    1
    41    12    40    1
    42    13    41    1
    43    16    42    1
    44    17    43    1
    45    19    44    1
    46    20    45    1
    47    23    46    1
    48    24    47    1
    49    25    48    1
    50    28    49    1
    51    28    50    1
    52    28    51    1
