REMARK  7 active torsions:
REMARK  status: ('A' for Active; 'I' for Inactive)
REMARK       I    between atoms: C_2  and  N_3 
REMARK    1  A    between atoms: C_2  and  C_15 
REMARK    2  A    between atoms: N_3  and  N_4 
REMARK    3  A    between atoms: N_4  and  C_5 
REMARK    4  A    between atoms: C_17  and  C_18 
REMARK    5  A    between atoms: C_21  and  O_22 
REMARK    6  A    between atoms: O_22  and  C_23 
REMARK    7  A    between atoms: C_23  and  C_24 
ROOT
ATOM      1  C   UNL d   1       3.046  -0.434   1.108  0.00  0.00     0.121 A 
ATOM      2  C   UNL d   1       2.764  -1.456   2.000  0.00  0.00     0.071 A 
ATOM      3  C   UNL d   1       3.704  -1.349   3.063  0.00  0.00     0.089 A 
ATOM      4  N   UNL d   1       4.497  -0.284   2.868  0.00  0.00    -0.174 NA
ATOM      5  N   UNL d   1       4.079   0.242   1.698  0.00  0.00    -0.272 N 
ATOM      6  H   UNL d   1       4.518   1.100   1.383  0.00  0.00     0.189 HD
ENDROOT
BRANCH   1   7
ATOM      7  C   UNL d   1       2.364  -0.055  -0.106  0.00  0.00     0.288 C 
ATOM      8  O   UNL d   1       1.127  -0.099  -0.211  0.00  0.00    -0.264 OA
ATOM      9  N   UNL d   1       3.163   0.341  -1.187  0.00  0.00    -0.265 N 
ATOM     10  H   UNL d   1       4.159   0.160  -1.220  0.00  0.00     0.190 HD
BRANCH   9  11
ATOM     11  N   UNL d   1       2.505   0.531  -2.408  0.00  0.00    -0.308 N 
ATOM     12  H   UNL d   1       1.494   0.476  -2.305  0.00  0.00     0.186 HD
BRANCH  11  13
ATOM     13  C   UNL d   1       3.008   0.866  -3.648  0.00  0.00     0.121 C 
ATOM     14  C   UNL d   1       2.305   1.165  -4.757  0.00  0.00     0.011 A 
ATOM     15  C   UNL d   1       2.817   1.513  -6.120  0.00  0.00     0.131 A 
ATOM     16  C   UNL d   1       0.858   1.252  -4.926  0.00  0.00     0.006 A 
ATOM     17  N   UNL d   1       1.870   1.775  -6.986  0.00  0.00    -0.259 NA
ATOM     18  C   UNL d   1       0.657   1.623  -6.266  0.00  0.00     0.067 A 
ATOM     19  C   UNL d   1      -0.632   1.807  -6.748  0.00  0.00     0.032 A 
ATOM     20  C   UNL d   1      -1.712   1.614  -5.874  0.00  0.00     0.002 A 
ATOM     21  C   UNL d   1      -1.498   1.243  -4.544  0.00  0.00     0.001 A 
ATOM     22  C   UNL d   1      -0.208   1.062  -4.067  0.00  0.00     0.014 A 
ENDBRANCH  11  13
ENDBRANCH   9  11
ENDBRANCH   1   7
BRANCH   3  23
ATOM     23  C   UNL d   1       3.799  -2.212   4.247  0.00  0.00    -0.005 A 
ATOM     24  C   UNL d   1       3.939  -3.600   4.116  0.00  0.00     0.016 A 
ATOM     25  C   UNL d   1       3.823  -4.437   5.238  0.00  0.00     0.037 A 
ATOM     26  C   UNL d   1       3.659  -3.897   6.516  0.00  0.00     0.069 A 
ATOM     27  C   UNL d   1       3.653  -2.511   6.663  0.00  0.00     0.037 A 
ATOM     28  C   UNL d   1       3.675  -1.677   5.535  0.00  0.00     0.016 A 
BRANCH  26  29
ATOM     29  O   UNL d   1       3.507  -4.803   7.530  0.00  0.00    -0.347 OA
BRANCH  29  30
ATOM     30  C   UNL d   1       3.277  -4.275   8.848  0.00  0.00     0.216 C 
BRANCH  30  31
ATOM     31  C   UNL d   1       3.073  -5.410   9.827  0.00  0.00    -0.012 A 
ATOM     32  C   UNL d   1       3.819  -6.591   9.662  0.00  0.00     0.011 A 
ATOM     33  C   UNL d   1       3.593  -7.703  10.470  0.00  0.00     0.001 A 
ATOM     34  C   UNL d   1       2.713  -7.613  11.543  0.00  0.00     0.002 A 
ATOM     35  C   UNL d   1       2.065  -6.408  11.806  0.00  0.00     0.024 A 
ATOM     36  C   UNL d   1       2.204  -5.327  10.928  0.00  0.00     0.042 A 
ATOM     37 CL   UNL d   1       1.246  -3.924  11.244  0.00  0.00    -0.084 Cl
ENDBRANCH  30  31
ENDBRANCH  29  30
ENDBRANCH  26  29
ENDBRANCH   3  23
TORSDOF 7
