@<TRIPOS>MOLECULE
*****
 36 38 0 0 0
SMALL
GASTEIGER

@<TRIPOS>ATOM
      1 O           0.8977    0.0790   -0.0415 O.2     1  UNL1       -0.2702
      2 C           2.1268    0.0678    0.0035 C.2     1  UNL1        0.2451
      3 N           2.8425    0.5137    1.0928 N.am    1  UNL1       -0.3072
      4 C           2.1740    0.9351    2.3075 C.3     1  UNL1        0.0373
      5 C           3.1362    1.3549    3.3921 C.ar    1  UNL1       -0.0269
      6 C           3.9121    0.4159    4.0898 C.ar    1  UNL1       -0.0569
      7 C           4.7717    0.8249    5.1176 C.ar    1  UNL1       -0.0580
      8 C           4.8738    2.1760    5.4567 C.ar    1  UNL1       -0.0202
      9 C           4.1128    3.1078    4.7603 C.ar    1  UNL1        0.1172
     10 O           4.1723    4.4419    5.0378 O.3     1  UNL1       -0.5068
     11 C           3.2498    2.7079    3.7431 C.ar    1  UNL1       -0.0155
     12 C           2.9370   -0.4634   -1.1413 C.ar    1  UNL1        0.0509
     13 C           2.5736   -0.0796   -2.3790 C.ar    1  UNL1        0.0155
     14 C           3.2843   -0.5642   -3.5894 C.ar    1  UNL1        0.2499
     15 O           2.9664   -0.1811   -4.7084 O.2     1  UNL1       -0.2679
     16 N           4.3080   -1.4494   -3.3927 N.ar    1  UNL1       -0.3221
     17 C           4.6933   -1.9134   -2.1304 C.ar    1  UNL1        0.0499
     18 C           5.7207   -2.8541   -2.0278 C.ar    1  UNL1       -0.0377
     19 C           6.0952   -3.3316   -0.7718 C.ar    1  UNL1       -0.0598
     20 C           5.4341   -2.8875    0.3683 C.ar    1  UNL1       -0.0611
     21 C           4.3954   -1.9682    0.2567 C.ar    1  UNL1       -0.0519
     22 C           4.0275   -1.4438   -0.9868 C.ar    1  UNL1        0.0106
     23 H           3.8537    0.5433    1.0668 H       1  UNL1        0.1493
     24 H           1.5453    0.1133    2.6727 H       1  UNL1        0.0512
     25 H           1.4988    1.7586    2.0492 H       1  UNL1        0.0512
     26 H           3.8393   -0.6431    3.8510 H       1  UNL1        0.0621
     27 H           5.3578    0.0858    5.6598 H       1  UNL1        0.0619
     28 H           5.5399    2.4761    6.2600 H       1  UNL1        0.0654
     29 H           4.8226    4.5946    5.7423 H       1  UNL1        0.2921
     30 H           2.6556    3.4626    3.2338 H       1  UNL1        0.0657
     31 H           1.7488    0.5979   -2.5711 H       1  UNL1        0.0679
     32 H           4.7741   -1.7797   -4.2285 H       1  UNL1        0.1689
     33 H           6.2300   -3.2290   -2.9112 H       1  UNL1        0.0638
     34 H           6.8935   -4.0626   -0.6781 H       1  UNL1        0.0618
     35 H           5.7101   -3.2611    1.3506 H       1  UNL1        0.0618
     36 H           3.8738   -1.6913    1.1666 H       1  UNL1        0.0624
@<TRIPOS>BOND
     1     1     2    2
     2     2     3   am
     3     3     4    1
     4     4     5    1
     5     5     6   ar
     6     6     7   ar
     7     7     8   ar
     8     8     9   ar
     9     9    10    1
    10     9    11   ar
    11     5    11   ar
    12     2    12    1
    13    12    13   ar
    14    13    14   ar
    15    14    15    2
    16    14    16   ar
    17    16    17   ar
    18    17    18   ar
    19    18    19   ar
    20    19    20   ar
    21    20    21   ar
    22    21    22   ar
    23    12    22   ar
    24    17    22   ar
    25     3    23    1
    26     4    24    1
    27     4    25    1
    28     6    26    1
    29     7    27    1
    30     8    28    1
    31    10    29    1
    32    11    30    1
    33    13    31    1
    34    16    32    1
    35    18    33    1
    36    19    34    1
    37    20    35    1
    38    21    36    1
