@<TRIPOS>MOLECULE
*****
 52 53 0 0 0
SMALL
GASTEIGER

@<TRIPOS>ATOM
      1 O           1.1586   -0.1003    0.0271 O.2     1  UNL1       -0.1552
      2 S           2.6019   -0.0079   -0.1140 S.O2    1  UNL1        0.0432
      3 O           3.2261   -0.1770   -1.4051 O.2     1  UNL1       -0.1552
      4 C           3.0912    1.5731    0.5486 C.3     1  UNL1        0.0848
      5 C           2.5798    2.7710   -0.2135 C.3     1  UNL1       -0.0318
      6 C           3.1419    4.0552    0.4059 C.3     1  UNL1       -0.0515
      7 C           2.6643    5.2557   -0.4012 C.3     1  UNL1       -0.0515
      8 C           3.1591    6.5590    0.1992 C.3     1  UNL1       -0.0318
      9 C           2.6521    7.7788   -0.5856 C.3     1  UNL1        0.0848
     10 S           3.3164    9.2535    0.1841 S.O2    1  UNL1        0.0432
     11 O           2.6808    9.3972    1.4729 O.2     1  UNL1       -0.1552
     12 O           4.7513    9.0591    0.0798 O.2     1  UNL1       -0.1552
     13 N           2.7967   10.5318   -0.7934 N.pl3   1  UNL1       -0.2171
     14 C           3.1422   11.8950   -0.4439 C.ar    1  UNL1        0.0904
     15 C           2.1846   12.9207   -0.5007 C.ar    1  UNL1       -0.0174
     16 C           2.5567   14.2454   -0.2001 C.ar    1  UNL1        0.0430
     17 CL          1.4003   15.5223   -0.2845 Cl      1  UNL1       -0.0835
     18 C           3.8646   14.5637    0.1650 C.ar    1  UNL1       -0.0398
     19 C           4.8193   13.5598    0.2117 C.ar    1  UNL1       -0.0169
     20 C           4.4614   12.2575   -0.1263 C.ar    1  UNL1        0.1392
     21 O           5.4696   11.3565   -0.2680 O.3     1  UNL1       -0.5049
     22 N           3.2206   -1.1535    0.9591 N.pl3   1  UNL1       -0.2171
     23 C           4.6216   -1.4563    1.0446 C.ar    1  UNL1        0.0904
     24 C           5.0956   -2.7607    0.8600 C.ar    1  UNL1       -0.0174
     25 C           6.4697   -3.0257    1.0012 C.ar    1  UNL1        0.0430
     26 CL          7.0706   -4.6342    0.8589 Cl      1  UNL1       -0.0835
     27 C           7.3795   -2.0048    1.2800 C.ar    1  UNL1       -0.0398
     28 C           6.9159   -0.7159    1.4743 C.ar    1  UNL1       -0.0169
     29 C           5.5483   -0.4769    1.4281 C.ar    1  UNL1        0.1392
     30 O           5.1318    0.7116    1.9534 O.3     1  UNL1       -0.5049
     31 H           4.1633    1.6360    0.3901 H       1  UNL1        0.0518
     32 H           2.8094    1.6164    1.6057 H       1  UNL1        0.0518
     33 H           1.4875    2.7904   -0.2243 H       1  UNL1        0.0281
     34 H           2.9253    2.6984   -1.2517 H       1  UNL1        0.0281
     35 H           4.2415    4.0285    0.4198 H       1  UNL1        0.0266
     36 H           2.8207    4.1444    1.4519 H       1  UNL1        0.0266
     37 H           1.5701    5.2574   -0.4293 H       1  UNL1        0.0266
     38 H           3.0255    5.1640   -1.4324 H       1  UNL1        0.0266
     39 H           4.2578    6.5479    0.2185 H       1  UNL1        0.0281
     40 H           2.8380    6.6317    1.2457 H       1  UNL1        0.0281
     41 H           1.5613    7.8289   -0.5839 H       1  UNL1        0.0518
     42 H           3.0268    7.7383   -1.6140 H       1  UNL1        0.0518
     43 H           2.1389   10.3700   -1.5508 H       1  UNL1        0.1734
     44 H           1.1522   12.7197   -0.7729 H       1  UNL1        0.0652
     45 H           4.1568   15.5867    0.3885 H       1  UNL1        0.0633
     46 H           5.8479   13.7977    0.4621 H       1  UNL1        0.0655
     47 H           6.2395   11.6004    0.2652 H       1  UNL1        0.2922
     48 H           2.5413   -1.8627    1.2321 H       1  UNL1        0.1734
     49 H           4.4207   -3.5833    0.6394 H       1  UNL1        0.0652
     50 H           8.4404   -2.2069    1.3978 H       1  UNL1        0.0633
     51 H           7.6042    0.0798    1.7394 H       1  UNL1        0.0655
     52 H           5.8165    1.3790    1.7752 H       1  UNL1        0.2922
@<TRIPOS>BOND
     1     1     2    2
     2     2     3    2
     3     2     4    1
     4     4     5    1
     5     5     6    1
     6     6     7    1
     7     7     8    1
     8     8     9    1
     9     9    10    1
    10    10    11    2
    11    10    12    2
    12    10    13    1
    13    13    14    1
    14    14    15   ar
    15    15    16   ar
    16    16    17    1
    17    16    18   ar
    18    18    19   ar
    19    19    20   ar
    20    14    20   ar
    21    20    21    1
    22     2    22    1
    23    22    23    1
    24    23    24   ar
    25    24    25   ar
    26    25    26    1
    27    25    27   ar
    28    27    28   ar
    29    28    29   ar
    30    23    29   ar
    31    29    30    1
    32     4    31    1
    33     4    32    1
    34     5    33    1
    35     5    34    1
    36     6    35    1
    37     6    36    1
    38     7    37    1
    39     7    38    1
    40     8    39    1
    41     8    40    1
    42     9    41    1
    43     9    42    1
    44    13    43    1
    45    15    44    1
    46    18    45    1
    47    19    46    1
    48    21    47    1
    49    22    48    1
    50    24    49    1
    51    27    50    1
    52    28    51    1
    53    30    52    1
