@<TRIPOS>MOLECULE
*****
 46 47 0 0 0
SMALL
GASTEIGER

@<TRIPOS>ATOM
      1 C           0.9277    0.0341   -0.0676 C.3     1  UNL1       -0.0510
      2 C           2.4329    0.0228   -0.0206 C.3     1  UNL1        0.0146
      3 N           2.9923   -0.7857   -1.1458 N.3     1  UNL1       -0.1901
      4 S           4.6904   -0.8741   -0.9853 S.O2    1  UNL1        0.0619
      5 O           5.0275    0.5201   -0.7512 O.2     1  UNL1       -0.1529
      6 O           5.0119   -1.8305    0.0356 O.2     1  UNL1       -0.1529
      7 C           5.2454   -1.5428   -2.5833 C.ar    1  UNL1        0.1473
      8 C           4.9580   -2.9246   -2.7198 C.ar    1  UNL1       -0.0196
      9 C           5.5057   -3.7201   -3.7596 C.ar    1  UNL1        0.0391
     10 C           5.5006   -5.2005   -3.5948 C.2     1  UNL1        0.2483
     11 O           5.1815   -5.6126   -2.4821 O.2     1  UNL1       -0.2699
     12 N           5.9535   -6.0287   -4.6255 N.am    1  UNL1       -0.2811
     13 C           5.8041   -7.4479   -4.5952 C.ar    1  UNL1        0.0430
     14 C           6.9122   -8.2396   -4.9527 C.ar    1  UNL1       -0.0398
     15 C           6.7967   -9.6294   -5.0126 C.ar    1  UNL1       -0.0536
     16 C           5.5840  -10.2376   -4.6945 C.ar    1  UNL1        0.0160
     17 C           4.4489   -9.4644   -4.3704 C.ar    1  UNL1        0.2778
     18 N           3.1851  -10.2194   -4.1611 N.pl3   1  UNL1        0.0799
     19 O           3.2471  -11.4563   -4.2062 O.2     1  UNL1        0.0415
     20 O           2.1236   -9.6161   -3.9845 O.co2   1  UNL1       -0.5760
     21 C           4.5407   -8.0523   -4.3183 C.ar    1  UNL1        0.0477
     22 C           3.3692   -7.1486   -4.0399 C.3     1  UNL1       -0.0315
     23 C           6.1850   -3.1076   -4.7946 C.ar    1  UNL1       -0.0461
     24 C           6.4708   -1.7510   -4.6820 C.ar    1  UNL1       -0.0173
     25 C           6.0415   -0.9568   -3.5854 C.ar    1  UNL1        0.1464
     26 O           6.5326    0.3082   -3.7681 O.3     1  UNL1       -0.4932
     27 C           6.1890    1.2496   -2.7897 C.3     1  UNL1        0.0789
     28 H           0.5450    0.6185    0.7754 H       1  UNL1        0.0242
     29 H           0.5299   -0.9810   -0.0062 H       1  UNL1        0.0242
     30 H           0.5723    0.4965   -0.9936 H       1  UNL1        0.0242
     31 H           2.7779   -0.3856    0.9347 H       1  UNL1        0.0438
     32 H           2.7725    1.0623   -0.1081 H       1  UNL1        0.0438
     33 H           2.7384   -0.3827   -2.0485 H       1  UNL1        0.1480
     34 H           4.3472   -3.4138   -1.9554 H       1  UNL1        0.0646
     35 H           6.5962   -5.6617   -5.3141 H       1  UNL1        0.1551
     36 H           7.8940   -7.8001   -5.1265 H       1  UNL1        0.0636
     37 H           7.6450  -10.2484   -5.3029 H       1  UNL1        0.0620
     38 H           5.5332  -11.3265   -4.7097 H       1  UNL1        0.0685
     39 H           2.3948   -7.5982   -3.9453 H       1  UNL1        0.0280
     40 H           3.2706   -6.4080   -4.8398 H       1  UNL1        0.0280
     41 H           3.4824   -6.6819   -3.0674 H       1  UNL1        0.0280
     42 H           6.5524   -3.6520   -5.6562 H       1  UNL1        0.0626
     43 H           7.1008   -1.3011   -5.4516 H       1  UNL1        0.0655
     44 H           6.5495    2.2510   -3.0135 H       1  UNL1        0.0660
     45 H           6.7058    0.9527   -1.8730 H       1  UNL1        0.0660
     46 H           5.0953    1.3208   -2.7648 H       1  UNL1        0.0660
@<TRIPOS>UNITY_ATOM_ATTR
18 1
charge 1
20 1
charge -1
@<TRIPOS>BOND
     1     1     2    1
     2     2     3    1
     3     3     4    1
     4     4     5    2
     5     4     6    2
     6     4     7    1
     7     7     8   ar
     8     8     9   ar
     9     9    10    1
    10    10    11    2
    11    10    12   am
    12    12    13    1
    13    13    14   ar
    14    14    15   ar
    15    15    16   ar
    16    16    17   ar
    17    17    18    1
    18    18    19    2
    19    18    20    1
    20    17    21   ar
    21    13    21   ar
    22    21    22    1
    23     9    23   ar
    24    23    24   ar
    25    24    25   ar
    26     7    25   ar
    27    25    26    1
    28    26    27    1
    29     1    28    1
    30     1    29    1
    31     1    30    1
    32     2    31    1
    33     2    32    1
    34     3    33    1
    35     8    34    1
    36    12    35    1
    37    14    36    1
    38    15    37    1
    39    16    38    1
    40    22    39    1
    41    22    40    1
    42    22    41    1
    43    23    42    1
    44    24    43    1
    45    27    44    1
    46    27    45    1
    47    27    46    1
