REMARK  6 active torsions:
REMARK  status: ('A' for Active; 'I' for Inactive)
REMARK    1  A    between atoms: O_2  and  C_3 
REMARK    2  A    between atoms: C_8  and  N_9 
REMARK    3  A    between atoms: C_17  and  C_18 
REMARK    4  A    between atoms: C_18  and  O_19 
REMARK    5  A    between atoms: C_22  and  C_23 
REMARK       I    between atoms: C_23  and  N_25 
REMARK    6  A    between atoms: N_25  and  C_26 
ROOT
ATOM      1  N   UNL d   1       1.754   1.222   2.111  0.00  0.00    -0.334 N 
ATOM      2  C   UNL d   1       1.095   0.109   1.996  0.00  0.00     0.164 C 
ATOM      3  O   UNL d   1       1.610  -0.952   1.201  0.00  0.00    -0.290 OA
ATOM      4  C   UNL d   1       0.745  -1.777   0.355  0.00  0.00     0.113 C 
ATOM      5  C   UNL d   1       1.117  -2.299  -0.930  0.00  0.00     0.065 C 
ATOM      6  C   UNL d   1       2.287  -1.918  -1.828  0.00  0.00     0.073 C 
ATOM      7  N   UNL d   1       0.230  -3.046  -1.640  0.00  0.00    -0.262 NA
ATOM      8  C   UNL d   1      -0.992  -3.285  -1.121  0.00  0.00     0.127 C 
ATOM      9  C   UNL d   1      -1.473  -2.716   0.062  0.00  0.00    -0.004 C 
ATOM     10  C   UNL d   1      -0.600  -1.861   0.768  0.00  0.00     0.011 C 
ATOM     11  C   UNL d   1      -1.047  -0.939   1.835  0.00  0.00     0.036 C 
ATOM     12  C   UNL d   1      -0.287  -0.028   2.471  0.00  0.00     0.084 C 
ATOM     13  H   UNL d   1       1.306   2.015   2.534  0.00  0.00     0.168 HD
ENDROOT
BRANCH  12  14
ATOM     14  C   UNL d   1      -1.034   0.843   3.466  0.00  0.00     0.260 C 
ATOM     15  O   UNL d   1      -2.207   0.642   3.688  0.00  0.00    -0.267 OA
ATOM     16  N   UNL d   1      -0.343   1.892   4.058  0.00  0.00    -0.321 N 
ATOM     17  H   UNL d   1       0.578   2.210   3.900  0.00  0.00     0.169 HD
BRANCH  16  18
ATOM     18  C   UNL d   1      -0.736   2.511   5.257  0.00  0.00     0.056 A 
ATOM     19  C   UNL d   1      -0.377   3.870   5.370  0.00  0.00     0.031 A 
ATOM     20  C   UNL d   1      -0.470   4.511   6.598  0.00  0.00     0.002 A 
ATOM     21  C   UNL d   1      -0.970   3.814   7.693  0.00  0.00     0.002 A 
ATOM     22  C   UNL d   1      -1.316   2.466   7.584  0.00  0.00     0.026 A 
ATOM     23  C   UNL d   1      -1.185   1.798   6.375  0.00  0.00     0.060 A 
ATOM     24 CL   UNL d   1      -1.351   0.076   6.427  0.00  0.00    -0.082 Cl
ENDBRANCH  16  18
ENDBRANCH  12  14
BRANCH   1  25
ATOM     25  C   UNL d   1       2.857   1.727   1.423  0.00  0.00     0.067 C 
ATOM     26  C   UNL d   1       3.553   2.844   1.918  0.00  0.00     0.032 C 
ATOM     27  C   UNL d   1       4.710   3.274   1.255  0.00  0.00     0.002 C 
ATOM     28  C   UNL d   1       5.170   2.579   0.139  0.00  0.00     0.003 C 
ATOM     29  C   UNL d   1       4.376   1.591  -0.422  0.00  0.00     0.039 C 
ATOM     30  C   UNL d   1       3.167   1.267   0.169  0.00  0.00     0.094 C 
BRANCH  30  31
ATOM     31  O   UNL d   1       2.360   0.481  -0.555  0.00  0.00    -0.354 OA
ATOM     32  C   UNL d   1       1.011   0.819  -0.863  0.00  0.00     0.210 C 
ENDBRANCH  30  31
ENDBRANCH   1  25
BRANCH   9  33
ATOM     33  C   UNL d   1      -2.837  -3.187   0.510  0.00  0.00     0.205 C 
BRANCH  33  34
ATOM     34  O   UNL d   1      -3.297  -2.625   1.722  0.00  0.00    -0.396 OA
ATOM     35  H   UNL d   1      -2.632  -2.828   2.402  0.00  0.00     0.209 HD
ENDBRANCH  33  34
ENDBRANCH   9  33
TORSDOF 6
