REMARK  10 active torsions:
REMARK  status: ('A' for Active; 'I' for Inactive)
REMARK    1  A    between atoms: C_2  and  C_3 
REMARK    2  A    between atoms: C_4  and  C_5 
REMARK       I    between atoms: C_5  and  N_7 
REMARK    3  A    between atoms: N_7  and  C_8 
REMARK    4  A    between atoms: C_8  and  C_9 
REMARK    5  A    between atoms: C_9  and  O_10 
REMARK    6  A    between atoms: C_9  and  C_11 
REMARK    7  A    between atoms: C_11  and  O_12 
REMARK    8  A    between atoms: O_12  and  C_13 
REMARK    9  A    between atoms: C_16  and  N_17 
REMARK   10  A    between atoms: C_25  and  C_26 
ROOT
ATOM      1  C   UNL d   1       3.710  -1.814   2.538  0.00  0.00     0.268 C 
ATOM      2  O   UNL d   1       4.168  -2.274   3.591  0.00  0.00    -0.266 OA
ATOM      3  N   UNL d   1       3.439  -2.654   1.481  0.00  0.00    -0.353 N 
ATOM      4  H   UNL d   1       3.120  -2.290   0.606  0.00  0.00     0.162 HD
ENDROOT
BRANCH   3   5
ATOM      5  C   UNL d   1       3.689  -4.090   1.486  0.00  0.00     0.156 C 
BRANCH   5   6
ATOM      6  C   UNL d   1       3.345  -4.753   0.132  0.00  0.00     0.160 C 
BRANCH   6   7
ATOM      7  O   UNL d   1       4.116  -4.125  -0.905  0.00  0.00    -0.392 OA
ATOM      8  H   UNL d   1       5.051  -4.353  -0.767  0.00  0.00     0.210 HD
ENDBRANCH   6   7
BRANCH   6   9
ATOM      9  C   UNL d   1       3.611  -6.273   0.181  0.00  0.00     0.209 C 
BRANCH   9  10
ATOM     10  O   UNL d   1       3.338  -6.859  -1.101  0.00  0.00    -0.349 OA
BRANCH  10  11
ATOM     11  C   UNL d   1       3.426  -8.225  -1.177  0.00  0.00     0.069 A 
ATOM     12  C   UNL d   1       3.908  -8.745  -2.384  0.00  0.00     0.039 A 
ATOM     13  C   UNL d   1       3.912 -10.126  -2.618  0.00  0.00     0.039 A 
ATOM     14  C   UNL d   1       3.495 -10.994  -1.603  0.00  0.00     0.103 A 
ATOM     15  C   UNL d   1       3.004 -10.484  -0.395  0.00  0.00     0.039 A 
ATOM     16  C   UNL d   1       2.964  -9.098  -0.191  0.00  0.00     0.039 A 
BRANCH  14  17
ATOM     17  N   UNL d   1       3.625 -12.447  -1.781  0.00  0.00    -0.116 N 
ATOM     18  O   UNL d   1       4.090 -12.858  -2.854  0.00  0.00    -0.532 OA
ATOM     19  O   UNL d   1       3.290 -13.175  -0.836  0.00  0.00    -0.532 OA
ENDBRANCH  14  17
ENDBRANCH  10  11
ENDBRANCH   9  10
ENDBRANCH   6   9
ENDBRANCH   5   6
ENDBRANCH   3   5
BRANCH   1  20
ATOM     20  C   UNL d   1       3.443  -0.374   2.396  0.00  0.00     0.108 A 
ATOM     21  C   UNL d   1       2.930   0.447   1.385  0.00  0.00    -0.010 A 
ATOM     22  C   UNL d   1       2.880   1.826   1.877  0.00  0.00     0.040 A 
ATOM     23  C   UNL d   1       3.352   1.783   3.181  0.00  0.00     0.020 A 
ATOM     24  N   UNL d   1       3.699   0.480   3.460  0.00  0.00    -0.354 N 
ATOM     25  C   UNL d   1       3.504   2.853   4.207  0.00  0.00     0.069 C 
ATOM     26  H   UNL d   1       4.073   0.154   4.344  0.00  0.00     0.166 HD
BRANCH  21  27
ATOM     27  C   UNL d   1       2.421   0.050   0.031  0.00  0.00     0.037 C 
ATOM     28  C   UNL d   1       0.902  -0.038   0.034  0.00  0.00     0.010 C 
ENDBRANCH  21  27
BRANCH  22  29
ATOM     29  C   UNL d   1       2.388   3.009   1.120  0.00  0.00     0.158 C 
ATOM     30  C   UNL d   1       2.318   4.395   1.712  0.00  0.00     0.097 C 
ATOM     31  O   UNL d   1       2.010   2.898  -0.051  0.00  0.00    -0.293 OA
ENDBRANCH  22  29
ENDBRANCH   1  20
TORSDOF 10
