REMARK  5 active torsions:
REMARK  status: ('A' for Active; 'I' for Inactive)
REMARK    1  A    between atoms: O_2  and  C_3 
REMARK    2  A    between atoms: C_9  and  C_10 
REMARK    3  A    between atoms: C_10  and  N_11 
REMARK    4  A    between atoms: C_12  and  C_13 
REMARK    5  A    between atoms: C_17  and  S_18 
ROOT
ATOM      1  C   UNL d   1       2.970  -0.940  -0.848  0.00  0.00     0.113 A 
ATOM      2  C   UNL d   1       2.571  -1.166  -2.152  0.00  0.00     0.139 A 
ATOM      3  C   UNL d   1       3.275  -1.990  -2.992  0.00  0.00     0.108 A 
ATOM      4  C   UNL d   1       4.410  -2.642  -2.582  0.00  0.00     0.047 A 
ATOM      5  C   UNL d   1       4.858  -2.433  -1.268  0.00  0.00    -0.043 A 
ATOM      6  C   UNL d   1       4.132  -1.599  -0.370  0.00  0.00     0.017 A 
ATOM      7  C   UNL d   1       4.631  -1.391   1.061  0.00  0.00     0.243 C 
ATOM      8  N   UNL d   1       5.730  -2.433   1.472  0.00  0.00    -0.065 N 
ATOM      9  C   UNL d   1       6.453  -2.114   2.758  0.00  0.00     0.270 C 
ATOM     10  C   UNL d   1       6.754  -2.590   0.387  0.00  0.00     0.240 C 
ATOM     11  C   UNL d   1       6.116  -3.149  -0.865  0.00  0.00     0.067 C 
ATOM     12  O   UNL d   1       2.757  -2.019  -4.248  0.00  0.00    -0.323 OA
ATOM     13  C   UNL d   1       1.810  -0.938  -4.155  0.00  0.00     0.352 C 
ATOM     14  O   UNL d   1       1.521  -0.584  -2.795  0.00  0.00    -0.320 OA
ATOM     15  H   UNL d   1       5.238  -3.324   1.610  0.00  0.00     0.280 HD
ENDROOT
BRANCH   7  16
ATOM     16  C   UNL d   1       3.461  -1.490   2.086  0.00  0.00     0.186 C 
BRANCH  16  17
ATOM     17  N   UNL d   1       3.953  -1.205   3.423  0.00  0.00    -0.302 NA
ATOM     18  C   UNL d   1       3.066  -1.151   4.346  0.00  0.00     0.107 C 
BRANCH  18  19
ATOM     19  C   UNL d   1       3.491  -0.815   5.743  0.00  0.00     0.212 A 
ATOM     20  C   UNL d   1       3.716   0.651   5.889  0.00  0.00     0.263 A 
ATOM     21  O   UNL d   1       4.551   1.206   5.167  0.00  0.00    -0.270 OA
ATOM     22  N   UNL d   1       2.990   1.360   6.797  0.00  0.00    -0.188 NA
ATOM     23  C   UNL d   1       2.148   0.771   7.572  0.00  0.00     0.171 A 
ATOM     24  N   UNL d   1       1.886  -0.581   7.568  0.00  0.00    -0.300 N 
ATOM     25  C   UNL d   1       0.918  -1.250   8.431  0.00  0.00     0.161 C 
ATOM     26  C   UNL d   1       2.537  -1.424   6.696  0.00  0.00     0.243 A 
ATOM     27  O   UNL d   1       2.318  -2.637   6.634  0.00  0.00    -0.272 OA
BRANCH  23  28
ATOM     28  S   UNL d   1       1.278   1.786   8.700  0.00  0.00    -0.105 SA
ATOM     29  H   UNL d   1       1.833   2.965   8.386  0.00  0.00     0.110 HD
ENDBRANCH  23  28
ENDBRANCH  18  19
ENDBRANCH  16  17
ENDBRANCH   7  16
BRANCH   1  30
ATOM     30  O   UNL d   1       2.368   0.011  -0.070  0.00  0.00    -0.352 OA
ATOM     31  C   UNL d   1       0.937  -0.056  -0.019  0.00  0.00     0.210 C 
ENDBRANCH   1  30
TORSDOF 5
