REMARK  8 active torsions:
REMARK  status: ('A' for Active; 'I' for Inactive)
REMARK    1  A    between atoms: C_2  and  C_4 
REMARK    2  A    between atoms: C_4  and  C_5 
REMARK    3  A    between atoms: C_5  and  N_6 
REMARK       I    between atoms: N_6  and  C_7 
REMARK       I    between atoms: C_7  and  N_9 
REMARK    4  A    between atoms: N_9  and  N_10 
REMARK       I    between atoms: N_10  and  C_11 
REMARK    5  A    between atoms: C_11  and  C_13 
REMARK    6  A    between atoms: C_13  and  O_14 
REMARK    7  A    between atoms: O_14  and  C_15 
REMARK    8  A    between atoms: C_18  and  C_19 
ROOT
ATOM      1  C   UNL d   1      15.842  -2.939  -9.414  0.00  0.00     0.147 C 
ATOM      2  C   UNL d   1      16.692  -3.615  -8.351  0.00  0.00    -0.016 C 
ATOM      3  N   UNL d   1      17.397  -4.175  -7.468  0.00  0.00    -0.101 N 
ENDROOT
BRANCH   1   4
ATOM      4  C   UNL d   1      14.414  -2.771  -8.886  0.00  0.00    -0.046 A 
ATOM      5  C   UNL d   1      13.447  -2.130  -9.664  0.00  0.00     0.011 A 
ATOM      6  C   UNL d   1      12.181  -1.840  -9.123  0.00  0.00     0.037 A 
ATOM      7  C   UNL d   1      11.827  -2.237  -7.824  0.00  0.00     0.069 A 
ATOM      8  C   UNL d   1      12.756  -2.942  -7.074  0.00  0.00     0.037 A 
ATOM      9  C   UNL d   1      14.028  -3.202  -7.598  0.00  0.00     0.011 A 
BRANCH   7  10
ATOM     10  O   UNL d   1      10.537  -1.990  -7.434  0.00  0.00    -0.342 OA
BRANCH  10  11
ATOM     11  C   UNL d   1      10.276  -1.718  -6.046  0.00  0.00     0.280 C 
BRANCH  11  12
ATOM     12  C   UNL d   1       8.742  -1.652  -5.776  0.00  0.00     0.260 C 
ATOM     13  N   UNL d   1       8.352  -1.284  -4.488  0.00  0.00    -0.264 N 
ATOM     14  H   UNL d   1       8.991  -1.054  -3.728  0.00  0.00     0.190 HD
ATOM     15  O   UNL d   1       7.898  -1.916  -6.636  0.00  0.00    -0.269 OA
BRANCH  13  16
ATOM     16  N   UNL d   1       6.952  -1.189  -4.175  0.00  0.00    -0.249 N 
ATOM     17  C   UNL d   1       6.555  -0.803  -2.906  0.00  0.00     0.334 C 
ATOM     18  N   UNL d   1       5.187  -0.720  -2.719  0.00  0.00    -0.342 N 
ATOM     19  O   UNL d   1       7.372  -0.549  -2.017  0.00  0.00    -0.246 OA
ATOM     20  H   UNL d   1       4.557  -0.986  -3.462  0.00  0.00     0.164 HD
ATOM     21  H   UNL d   1       6.308  -1.412  -4.928  0.00  0.00     0.192 HD
BRANCH  18  22
ATOM     22  C   UNL d   1       4.630  -0.356  -1.415  0.00  0.00     0.125 C 
BRANCH  22  23
ATOM     23  C   UNL d   1       3.091  -0.350  -1.344  0.00  0.00     0.023 C 
BRANCH  23  24
ATOM     24  C   UNL d   1       2.545   0.046   0.053  0.00  0.00    -0.021 C 
ATOM     25  C   UNL d   1       1.012   0.075   0.053  0.00  0.00     0.009 C 
ATOM     26  C   UNL d   1       3.021  -0.914   1.145  0.00  0.00     0.009 C 
ENDBRANCH  23  24
ENDBRANCH  22  23
ENDBRANCH  18  22
ENDBRANCH  13  16
ENDBRANCH  11  12
ENDBRANCH  10  11
ENDBRANCH   7  10
ENDBRANCH   1   4
TORSDOF 8
