REMARK  3 active torsions:
REMARK  status: ('A' for Active; 'I' for Inactive)
REMARK       I    between atoms: N_2  and  C_3 
REMARK    1  A    between atoms: C_3  and  C_5 
REMARK    2  A    between atoms: C_8  and  N_9 
REMARK       I    between atoms: N_9  and  C_10 
REMARK    3  A    between atoms: C_10  and  C_12 
ROOT
ATOM      1  C   UNL d   1       2.784   2.583  -0.449  0.00  0.00     0.032 C 
ATOM      2  C   UNL d   1       3.513   3.642  -0.994  0.00  0.00     0.019 C 
ATOM      3  C   UNL d   1       3.152   4.994  -0.698  0.00  0.00     0.031 C 
ATOM      4  C   UNL d   1       2.036   5.314   0.117  0.00  0.00     0.041 C 
ATOM      5  C   UNL d   1       1.309   4.227   0.600  0.00  0.00    -0.034 C 
ATOM      6  C   UNL d   1       0.022   4.271   1.339  0.00  0.00     0.050 C 
ATOM      7  C   UNL d   1       1.746   2.919   0.387  0.00  0.00     0.026 C 
ENDROOT
BRANCH   4   8
ATOM      8  N   UNL d   1       1.716   6.694   0.385  0.00  0.00    -0.321 N 
ATOM      9  C   UNL d   1       0.766   7.226   1.275  0.00  0.00     0.274 C 
ATOM     10  O   UNL d   1       0.026   6.666   2.081  0.00  0.00    -0.266 OA
ATOM     11  H   UNL d   1       2.340   7.362  -0.049  0.00  0.00     0.169 HD
BRANCH   9  12
ATOM     12  C   UNL d   1       0.572   8.680   1.362  0.00  0.00     0.126 A 
ATOM     13  C   UNL d   1       0.492   9.476   0.246  0.00  0.00     0.061 A 
ATOM     14  C   UNL d   1       0.129  10.793   0.481  0.00  0.00     0.037 A 
ATOM     15 CL   UNL d   1       0.078  11.892  -0.840  0.00  0.00    -0.084 Cl
ATOM     16  C   UNL d   1      -0.200  11.245   1.762  0.00  0.00     0.043 A 
ATOM     17  C   UNL d   1      -0.152  10.349   2.802  0.00  0.00     0.119 A 
ATOM     18  N   UNL d   1       0.264   9.097   2.626  0.00  0.00    -0.255 NA
ENDBRANCH   9  12
ENDBRANCH   4   8
BRANCH   1  19
ATOM     19  C   UNL d   1       3.139   1.135  -0.633  0.00  0.00     0.251 C 
ATOM     20  N   UNL d   1       2.387   0.159   0.037  0.00  0.00    -0.361 N 
ATOM     21  C   UNL d   1       0.946  -0.048  -0.086  0.00  0.00     0.149 C 
ATOM     22  H   UNL d   1       2.908  -0.709   0.057  0.00  0.00     0.162 HD
ATOM     23  O   UNL d   1       4.127   0.820  -1.254  0.00  0.00    -0.268 OA
ENDBRANCH   1  19
TORSDOF 3
