@<TRIPOS>MOLECULE
*****
 68 70 0 0 0
SMALL
GASTEIGER

@<TRIPOS>ATOM
      1 C           0.7024    0.0565    0.1144 C.3     1  UNL1       -0.0639
      2 C           2.1939    0.0262    0.0749 C.3     1  UNL1       -0.0400
      3 C           2.9528    1.2285    0.5657 C.3     1  UNL1        0.0156
      4 N           4.4284    1.1166    0.5144 N.am    1  UNL1       -0.2844
      5 C           5.0485    0.3309   -0.5241 C.2     1  UNL1        0.2336
      6 O           6.0095    0.6974   -1.1992 O.2     1  UNL1       -0.2739
      7 C           4.5723   -1.1390   -0.6251 C.3     1  UNL1        0.0886
      8 N           5.4933   -2.1919   -0.9328 N.am    1  UNL1       -0.3027
      9 C           4.9511   -3.3777   -1.3762 C.2     1  UNL1        0.2445
     10 O           3.7357   -3.5815   -1.4727 O.2     1  UNL1       -0.2702
     11 C           5.8869   -4.4309   -1.7767 C.ar    1  UNL1        0.0367
     12 C           5.6148   -5.1549   -2.9423 C.ar    1  UNL1       -0.0496
     13 C           6.4193   -6.2387   -3.2796 C.ar    1  UNL1       -0.0610
     14 C           7.5234   -6.5546   -2.4871 C.ar    1  UNL1       -0.0617
     15 C           7.7989   -5.8187   -1.3318 C.ar    1  UNL1       -0.0610
     16 C           6.9745   -4.7577   -0.9660 C.ar    1  UNL1       -0.0496
     17 C           5.1783    2.3146    1.0734 C.3     1  UNL1        0.1342
     18 C           4.8332    2.7372    2.5648 C.2     1  UNL1        0.2386
     19 O           5.7329    2.9070    3.3939 O.2     1  UNL1       -0.2734
     20 N           3.5188    2.9708    2.9322 N.am    1  UNL1       -0.3106
     21 C           3.1578    3.2484    4.3261 C.3     1  UNL1        0.0232
     22 C           3.7653    2.2034    5.2834 C.3     1  UNL1       -0.0345
     23 C           3.5686    2.5296    6.7513 C.3     1  UNL1       -0.0514
     24 C           4.0254    3.9506    7.0622 C.3     1  UNL1       -0.0529
     25 C           3.2850    4.9618    6.1949 C.3     1  UNL1       -0.0514
     26 C           3.5093    4.6900    4.7111 C.3     1  UNL1       -0.0345
     27 C           6.6943    2.1083    1.0902 C.ar    1  UNL1        0.0648
     28 C           7.2970    0.8592    1.3403 C.ar    1  UNL1        0.1292
     29 O           6.6145   -0.2918    1.6414 O.3     1  UNL1       -0.5062
     30 C           8.6680    0.6959    1.2604 C.ar    1  UNL1        0.0219
     31 C           9.4693    1.8114    1.0830 C.ar    1  UNL1        0.1238
     32 O          10.8222    1.6751    0.9875 O.3     1  UNL1       -0.5065
     33 C           8.9230    3.0879    1.0115 C.ar    1  UNL1        0.0219
     34 C           7.5378    3.2296    0.9818 C.ar    1  UNL1        0.1292
     35 O           6.9757    4.4774    0.8865 O.3     1  UNL1       -0.5062
     36 H           0.3614   -0.9083   -0.2804 H       1  UNL1        0.0230
     37 H           0.3266    0.8541   -0.5251 H       1  UNL1        0.0230
     38 H           0.3463    0.1663    1.1380 H       1  UNL1        0.0230
     39 H           2.4336   -0.1095   -0.9754 H       1  UNL1        0.0278
     40 H           2.4743   -0.8194    0.7050 H       1  UNL1        0.0278
     41 H           2.6609    1.3366    1.6068 H       1  UNL1        0.0465
     42 H           2.6552    2.1294    0.0128 H       1  UNL1        0.0465
     43 H           3.8495   -1.1752   -1.4403 H       1  UNL1        0.0558
     44 H           4.1627   -1.4646    0.3323 H       1  UNL1        0.0558
     45 H           6.4873   -2.0267   -0.8343 H       1  UNL1        0.1495
     46 H           4.7752   -4.8767   -3.5767 H       1  UNL1        0.0625
     47 H           6.1770   -6.8446   -4.1485 H       1  UNL1        0.0618
     48 H           8.1680   -7.3834   -2.7676 H       1  UNL1        0.0618
     49 H           8.6421   -6.0895   -0.7028 H       1  UNL1        0.0618
     50 H           7.1598   -4.2174   -0.0423 H       1  UNL1        0.0625
     51 H           4.9119    3.1691    0.4335 H       1  UNL1        0.0650
     52 H           2.8328    3.2007    2.2269 H       1  UNL1        0.1490
     53 H           2.0641    3.1454    4.3766 H       1  UNL1        0.0498
     54 H           4.8464    2.1243    5.1606 H       1  UNL1        0.0283
     55 H           3.3739    1.2081    5.0434 H       1  UNL1        0.0283
     56 H           4.1549    1.8203    7.3474 H       1  UNL1        0.0266
     57 H           2.5165    2.3986    7.0210 H       1  UNL1        0.0266
     58 H           5.1061    4.0434    6.8894 H       1  UNL1        0.0265
     59 H           3.8506    4.1659    8.1209 H       1  UNL1        0.0265
     60 H           3.6248    5.9752    6.4350 H       1  UNL1        0.0266
     61 H           2.2128    4.9177    6.4205 H       1  UNL1        0.0266
     62 H           4.5559    4.9024    4.4651 H       1  UNL1        0.0283
     63 H           2.9092    5.3902    4.1156 H       1  UNL1        0.0283
     64 H           5.6639   -0.0952    1.6392 H       1  UNL1        0.2922
     65 H           9.0744   -0.3043    1.3481 H       1  UNL1        0.0691
     66 H          11.0148    0.7229    0.9395 H       1  UNL1        0.2921
     67 H           9.5852    3.9448    0.9748 H       1  UNL1        0.0691
     68 H           7.6845    5.1423    0.9420 H       1  UNL1        0.2922
@<TRIPOS>BOND
     1     1     2    1
     2     2     3    1
     3     3     4    1
     4     4     5   am
     5     5     6    2
     6     5     7    1
     7     7     8    1
     8     8     9   am
     9     9    10    2
    10     9    11    1
    11    11    12   ar
    12    12    13   ar
    13    13    14   ar
    14    14    15   ar
    15    15    16   ar
    16    11    16   ar
    17     4    17    1
    18    17    18    1
    19    18    19    2
    20    18    20   am
    21    20    21    1
    22    21    22    1
    23    22    23    1
    24    23    24    1
    25    24    25    1
    26    25    26    1
    27    21    26    1
    28    17    27    1
    29    27    28   ar
    30    28    29    1
    31    28    30   ar
    32    30    31   ar
    33    31    32    1
    34    31    33   ar
    35    33    34   ar
    36    27    34   ar
    37    34    35    1
    38     1    36    1
    39     1    37    1
    40     1    38    1
    41     2    39    1
    42     2    40    1
    43     3    41    1
    44     3    42    1
    45     7    43    1
    46     7    44    1
    47     8    45    1
    48    12    46    1
    49    13    47    1
    50    14    48    1
    51    15    49    1
    52    16    50    1
    53    17    51    1
    54    20    52    1
    55    21    53    1
    56    22    54    1
    57    22    55    1
    58    23    56    1
    59    23    57    1
    60    24    58    1
    61    24    59    1
    62    25    60    1
    63    25    61    1
    64    26    62    1
    65    26    63    1
    66    29    64    1
    67    30    65    1
    68    32    66    1
    69    33    67    1
    70    35    68    1
