REMARK  6 active torsions:
REMARK  status: ('A' for Active; 'I' for Inactive)
REMARK       I    between atoms: N_13  and  C_14 
REMARK    1  A    between atoms: C_14  and  C_16 
REMARK    2  A    between atoms: C_16  and  S_17 
REMARK    3  A    between atoms: S_17  and  C_18 
REMARK    4  A    between atoms: C_21  and  N_22 
REMARK    5  A    between atoms: N_22  and  C_23 
REMARK    6  A    between atoms: C_23  and  C_24 
ROOT
ATOM      1  C   UNL d   1       1.060  -0.053   0.018  0.00  0.00     0.033 C 
ATOM      2  C   UNL d   1       2.588  -0.033   0.180  0.00  0.00     0.097 C 
ATOM      3  C   UNL d   1       3.043  -1.462   0.498  0.00  0.00     0.122 C 
ATOM      4  C   UNL d   1       4.505  -1.679   0.238  0.00  0.00     0.203 C 
ATOM      5  O   UNL d   1       4.904  -2.395  -0.696  0.00  0.00    -0.279 OA
ATOM      6  N   UNL d   1       5.387  -1.048   1.068  0.00  0.00    -0.227 NA
ATOM      7  C   UNL d   1       5.598   0.319   0.805  0.00  0.00     0.042 A 
ATOM      8  C   UNL d   1       6.927   0.592   0.430  0.00  0.00     0.026 A 
ATOM      9  C   UNL d   1       7.284   1.846  -0.030  0.00  0.00     0.002 A 
ATOM     10  C   UNL d   1       6.312   2.841  -0.068  0.00  0.00     0.002 A 
ATOM     11  C   UNL d   1       4.983   2.591   0.370  0.00  0.00     0.031 A 
ATOM     12  C   UNL d   1       4.583   1.312   0.812  0.00  0.00     0.059 A 
ATOM     13  N   UNL d   1       3.159   1.004   1.112  0.00  0.00    -0.311 N 
ATOM     14  C   UNL d   1       2.550   1.601   2.262  0.00  0.00     0.234 C 
ATOM     15  O   UNL d   1       3.196   2.396   2.958  0.00  0.00    -0.272 OA
ATOM     16  H   UNL d   1       5.288  -1.244   2.058  0.00  0.00     0.136 HD
ENDROOT
BRANCH  14  17
ATOM     17  C   UNL d   1       1.068   1.235   2.677  0.00  0.00     0.184 C 
BRANCH  17  18
ATOM     18  S   UNL d   1       0.481   2.110   4.192  0.00  0.00    -0.092 SA
BRANCH  18  19
ATOM     19  C   UNL d   1      -1.209   1.622   4.421  0.00  0.00     0.160 A 
ATOM     20  N   UNL d   1      -1.611   0.373   4.511  0.00  0.00    -0.133 NA
ATOM     21  N   UNL d   1      -2.970   0.280   4.813  0.00  0.00    -0.123 NA
ATOM     22  C   UNL d   1      -3.568   1.450   4.950  0.00  0.00     0.190 A 
ATOM     23  S   UNL d   1      -2.469   2.765   4.728  0.00  0.00    -0.022 SA
BRANCH  22  24
ATOM     24  N   UNL d   1      -4.895   1.564   5.228  0.00  0.00    -0.363 N 
ATOM     25  H   UNL d   1      -5.414   0.698   5.232  0.00  0.00     0.162 HD
BRANCH  24  26
ATOM     26  C   UNL d   1      -5.639   2.808   5.339  0.00  0.00     0.160 C 
BRANCH  26  27
ATOM     27  C   UNL d   1      -7.138   2.633   5.580  0.00  0.00    -0.041 C 
ATOM     28  C   UNL d   1      -7.766   1.386   5.720  0.00  0.00     0.009 C 
ATOM     29  C   UNL d   1      -9.158   1.272   5.745  0.00  0.00     0.001 C 
ATOM     30  C   UNL d   1      -9.951   2.412   5.776  0.00  0.00     0.000 C 
ATOM     31  C   UNL d   1      -9.348   3.666   5.791  0.00  0.00     0.001 C 
ATOM     32  C   UNL d   1      -7.959   3.778   5.643  0.00  0.00     0.009 C 
ENDBRANCH  26  27
ENDBRANCH  24  26
ENDBRANCH  22  24
ENDBRANCH  18  19
ENDBRANCH  17  18
ENDBRANCH  14  17
TORSDOF 6
