REMARK  5 active torsions:
REMARK  status: ('A' for Active; 'I' for Inactive)
REMARK    1  A    between atoms: C_3  and  S_4 
REMARK    2  A    between atoms: S_4  and  C_5 
REMARK    3  A    between atoms: C_5  and  C_6 
REMARK       I    between atoms: C_6  and  N_8 
REMARK    4  A    between atoms: N_8  and  C_9 
REMARK    5  A    between atoms: C_21  and  C_22 
ROOT
ATOM      1  C   UNL d   1       1.104  -0.240  -0.027  0.00  0.00     0.162 C 
ATOM      2  N   UNL d   1       2.520  -0.003  -0.027  0.00  0.00    -0.296 N 
ATOM      3  C   UNL d   1       3.205   1.222  -0.022  0.00  0.00     0.172 A 
ATOM      4  N   UNL d   1       4.515   1.331  -0.007  0.00  0.00    -0.221 NA
ATOM      5  C   UNL d   1       5.242   0.128  -0.001  0.00  0.00     0.104 A 
ATOM      6  C   UNL d   1       6.646  -0.121  -0.009  0.00  0.00     0.021 A 
ATOM      7  C   UNL d   1       6.797  -1.504  -0.006  0.00  0.00     0.103 A 
ATOM      8  N   UNL d   1       5.549  -2.072  -0.009  0.00  0.00    -0.359 N 
ATOM      9  C   UNL d   1       4.613  -1.078  -0.011  0.00  0.00     0.131 A 
ATOM     10  C   UNL d   1       3.209  -1.222  -0.025  0.00  0.00     0.278 A 
ATOM     11  O   UNL d   1       2.658  -2.321  -0.035  0.00  0.00    -0.265 OA
ATOM     12  H   UNL d   1       5.342  -3.065  -0.009  0.00  0.00     0.165 HD
ENDROOT
BRANCH   3  13
ATOM     13  S   UNL d   1       2.371   2.807  -0.040  0.00  0.00    -0.082 SA
BRANCH  13  14
ATOM     14  C   UNL d   1       0.558   2.676  -0.034  0.00  0.00     0.185 C 
BRANCH  14  15
ATOM     15  C   UNL d   1      -0.195   3.987   0.030  0.00  0.00     0.231 C 
ATOM     16  O   UNL d   1       0.388   5.037   0.003  0.00  0.00    -0.272 OA
ATOM     17  N   UNL d   1      -1.630   3.830   0.140  0.00  0.00    -0.326 N 
ATOM     18  H   UNL d   1      -2.085   2.931   0.201  0.00  0.00     0.169 HD
BRANCH  17  19
ATOM     19  C   UNL d   1      -2.441   4.970  -0.106  0.00  0.00     0.037 C 
ATOM     20  C   UNL d   1      -3.578   5.458   0.558  0.00  0.00     0.032 C 
ATOM     21  C   UNL d   1      -4.095   6.838   0.241  0.00  0.00     0.042 C 
ATOM     22  C   UNL d   1      -3.445   7.652  -0.756  0.00  0.00     0.102 C 
ATOM     23  C   UNL d   1      -2.363   7.016  -1.240  0.00  0.00     0.104 C 
ATOM     24  O   UNL d   1      -3.482   8.948  -1.347  0.00  0.00    -0.346 OA
ATOM     25  C   UNL d   1      -1.961   5.732  -1.105  0.00  0.00     0.069 C 
ATOM     26  O   UNL d   1      -1.239   7.773  -1.337  0.00  0.00    -0.346 OA
ATOM     27  C   UNL d   1      -1.241   8.210  -2.647  0.00  0.00     0.202 C 
ATOM     28  C   UNL d   1      -2.314   9.287  -2.508  0.00  0.00     0.202 C 
ENDBRANCH  17  19
ENDBRANCH  14  15
ENDBRANCH  13  14
ENDBRANCH   3  13
BRANCH   6  29
ATOM     29  C   UNL d   1       7.799   0.760  -0.004  0.00  0.00    -0.022 A 
ATOM     30  C   UNL d   1       8.751   0.698  -1.034  0.00  0.00     0.012 A 
ATOM     31  C   UNL d   1       9.843   1.570  -1.044  0.00  0.00     0.001 A 
ATOM     32  C   UNL d   1      10.002   2.495  -0.015  0.00  0.00     0.000 A 
ATOM     33  C   UNL d   1       9.082   2.535   1.033  0.00  0.00     0.001 A 
ATOM     34  C   UNL d   1       7.986   1.668   1.041  0.00  0.00     0.012 A 
ENDBRANCH   6  29
TORSDOF 5
