@<TRIPOS>MOLECULE
*****
 48 50 0 0 0
SMALL
GASTEIGER

@<TRIPOS>ATOM
      1 C           1.0883    0.0270   -0.0942 C.3     1  UNL1        0.0125
      2 C           2.5924    0.0104    0.0571 C.2     1  UNL1        0.2141
      3 O           3.1240    0.3676    1.1045 O.2     1  UNL1       -0.2758
      4 N           3.2660   -0.3767   -1.0885 N.am    1  UNL1       -0.2842
      5 C           4.6761   -0.2745   -1.2298 C.ar    1  UNL1        0.0545
      6 C           5.4412   -0.8622   -0.2165 C.ar    1  UNL1       -0.0373
      7 C           6.8302   -0.8389   -0.2560 C.ar    1  UNL1       -0.0415
      8 C           7.4737   -0.2030   -1.3067 C.ar    1  UNL1        0.0428
      9 CL          9.1939   -0.1385   -1.3245 Cl      1  UNL1       -0.0835
     10 C           6.7346    0.3781   -2.3394 C.ar    1  UNL1       -0.0207
     11 C           5.3217    0.3450   -2.3386 C.ar    1  UNL1        0.0503
     12 N           4.6828    0.9529   -3.4151 N.pl3   1  UNL1       -0.3383
     13 C           3.2561    1.0497   -3.5077 C.3     1  UNL1        0.0344
     14 C           2.7966    1.7877   -4.7160 C.ar    1  UNL1       -0.0297
     15 C           3.0718    3.1461   -4.8558 C.ar    1  UNL1       -0.0570
     16 C           2.5433    3.8361   -5.9350 C.ar    1  UNL1       -0.0607
     17 C           1.7901    3.1539   -6.8997 C.ar    1  UNL1       -0.0496
     18 C           1.4896    1.7885   -6.7593 C.ar    1  UNL1        0.0370
     19 C           0.6196    1.1112   -7.7683 C.2     1  UNL1        0.2444
     20 O           0.2187    1.7482   -8.7450 O.2     1  UNL1       -0.2702
     21 N           0.2824   -0.2145   -7.5682 N.am    1  UNL1       -0.3042
     22 C          -0.5847   -0.8962   -8.5014 C.3     1  UNL1        0.0700
     23 C          -0.6704   -2.3462   -8.1815 C.ar    1  UNL1        0.1218
     24 C          -0.1926   -3.4471   -8.8603 C.ar    1  UNL1       -0.0192
     25 C          -0.5683   -4.5844   -8.1144 C.ar    1  UNL1       -0.0236
     26 C          -1.2700   -4.1134   -7.0290 C.ar    1  UNL1        0.0921
     27 O          -1.3324   -2.7503   -7.0534 O.2     1  UNL1       -0.4662
     28 C           1.9965    1.1158   -5.6537 C.ar    1  UNL1       -0.0450
     29 H           0.6434    0.2766    0.8747 H       1  UNL1        0.0323
     30 H           0.7165   -0.9535   -0.4013 H       1  UNL1        0.0323
     31 H           0.7748    0.7871   -0.8172 H       1  UNL1        0.0323
     32 H           2.7103   -0.5179   -1.9110 H       1  UNL1        0.1548
     33 H           4.9445   -1.3748    0.6031 H       1  UNL1        0.0637
     34 H           7.3914   -1.3170    0.5400 H       1  UNL1        0.0633
     35 H           7.2723    0.8716   -3.1476 H       1  UNL1        0.0651
     36 H           5.2367    1.4352   -4.1155 H       1  UNL1        0.1465
     37 H           2.8235    1.5505   -2.6338 H       1  UNL1        0.0511
     38 H           2.8580    0.0365   -3.6024 H       1  UNL1        0.0511
     39 H           3.6826    3.6573   -4.1132 H       1  UNL1        0.0621
     40 H           2.7102    4.9066   -6.0176 H       1  UNL1        0.0618
     41 H           1.4316    3.7045   -7.7663 H       1  UNL1        0.0625
     42 H           0.5816   -0.7421   -6.7640 H       1  UNL1        0.1495
     43 H          -0.1414   -0.7821   -9.4970 H       1  UNL1        0.0543
     44 H          -1.5660   -0.4123   -8.5100 H       1  UNL1        0.0543
     45 H           0.3594   -3.4105   -9.7881 H       1  UNL1        0.0652
     46 H          -0.3575   -5.6191   -8.3467 H       1  UNL1        0.0649
     47 H          -1.7588   -4.6021   -6.1958 H       1  UNL1        0.1029
     48 H           1.7823    0.0666   -5.4850 H       1  UNL1        0.0628
@<TRIPOS>BOND
     1     1     2    1
     2     2     3    2
     3     2     4   am
     4     4     5    1
     5     5     6   ar
     6     6     7   ar
     7     7     8   ar
     8     8     9    1
     9     8    10   ar
    10    10    11   ar
    11     5    11   ar
    12    11    12    1
    13    12    13    1
    14    13    14    1
    15    14    15   ar
    16    15    16   ar
    17    16    17   ar
    18    17    18   ar
    19    18    19    1
    20    19    20    2
    21    19    21   am
    22    21    22    1
    23    22    23    1
    24    23    24   ar
    25    24    25   ar
    26    25    26   ar
    27    26    27   ar
    28    23    27   ar
    29    18    28   ar
    30    14    28   ar
    31     1    29    1
    32     1    30    1
    33     1    31    1
    34     4    32    1
    35     6    33    1
    36     7    34    1
    37    10    35    1
    38    12    36    1
    39    13    37    1
    40    13    38    1
    41    15    39    1
    42    16    40    1
    43    17    41    1
    44    21    42    1
    45    22    43    1
    46    22    44    1
    47    24    45    1
    48    25    46    1
    49    26    47    1
    50    28    48    1
