@<TRIPOS>MOLECULE
*****
 47 49 0 0 0
SMALL
GASTEIGER

@<TRIPOS>ATOM
      1 O           0.9914   -0.1744   -0.0427 O.2     1  UNL1       -0.2749
      2 C           2.2199   -0.0413   -0.0417 C.2     1  UNL1        0.2233
      3 C           2.9590    1.3122    0.0350 C.3     1  UNL1        0.0776
      4 S           1.7705    2.6806    0.1093 S.3     1  UNL1       -0.0750
      5 C           2.6820    4.1667    0.1741 C.ar    1  UNL1        0.2105
      6 N           4.0096    4.2754    0.2997 N.ar    1  UNL1       -0.1443
      7 N           4.1574    5.6270    0.3293 N.ar    1  UNL1       -0.2446
      8 C           2.9551    6.2846    0.2273 C.ar    1  UNL1        0.2317
      9 N           2.8335    7.6471    0.2431 N.pl3   1  UNL1       -0.2054
     10 N           1.5900    8.2328    0.1620 N.2     1  UNL1       -0.1875
     11 C           1.5118    9.5256    0.0946 C.2     1  UNL1        0.0542
     12 C           0.1890   10.2014   -0.0430 C.ar    1  UNL1        0.0143
     13 C          -0.9013    9.7042    0.6883 C.ar    1  UNL1       -0.0516
     14 C          -2.1656   10.2898    0.5668 C.ar    1  UNL1       -0.0597
     15 C          -2.3510   11.3784   -0.2829 C.ar    1  UNL1       -0.0419
     16 C          -1.2680   11.8913   -1.0049 C.ar    1  UNL1        0.0599
     17 CL         -1.5826   13.2584   -2.0219 Cl      1  UNL1       -0.0820
     18 C           0.0095   11.3075   -0.8915 C.ar    1  UNL1        0.0679
     19 CL          1.3359   11.9190   -1.8284 Cl      1  UNL1       -0.0814
     20 N           2.0193    5.3675    0.1259 N.ar    1  UNL1       -0.1865
     21 N           2.9607   -1.1953   -0.1186 N.am    1  UNL1       -0.3143
     22 C           4.4040   -1.3007   -0.1159 C.3     1  UNL1        0.0156
     23 C           4.9082   -2.7465   -0.1939 C.3     1  UNL1       -0.0107
     24 C           6.4198   -2.7827   -0.1565 C.ar    1  UNL1       -0.0276
     25 C           7.1370   -2.8508   -1.3643 C.ar    1  UNL1       -0.0571
     26 C           8.5336   -2.8170   -1.3677 C.ar    1  UNL1       -0.0614
     27 C           9.2329   -2.7035   -0.1688 C.ar    1  UNL1       -0.0604
     28 C           8.5369   -2.6375    1.0368 C.ar    1  UNL1       -0.0431
     29 C           7.1409   -2.6834    1.0459 C.ar    1  UNL1        0.0442
     30 CL          6.3505   -2.6038    2.5809 Cl      1  UNL1       -0.0833
     31 H           3.5856    1.4099   -0.8565 H       1  UNL1        0.0475
     32 H           3.5842    1.3107    0.9327 H       1  UNL1        0.0475
     33 H           5.0857    6.0181    0.4265 H       1  UNL1        0.1919
     34 H           3.6544    8.2464    0.2992 H       1  UNL1        0.1774
     35 H           2.4052   10.1747    0.1206 H       1  UNL1        0.0852
     36 H          -0.7700    8.8573    1.3604 H       1  UNL1        0.0624
     37 H          -3.0088    9.8934    1.1301 H       1  UNL1        0.0618
     38 H          -3.3415   11.8212   -0.3810 H       1  UNL1        0.0633
     39 H           2.3948   -2.0383   -0.1437 H       1  UNL1        0.1487
     40 H           4.7620   -0.8082    0.7931 H       1  UNL1        0.0465
     41 H           4.7749   -0.7238   -0.9697 H       1  UNL1        0.0465
     42 H           4.5436   -3.2274   -1.1115 H       1  UNL1        0.0329
     43 H           4.4952   -3.3534    0.6216 H       1  UNL1        0.0329
     44 H           6.6128   -2.9243   -2.3159 H       1  UNL1        0.0621
     45 H           9.0775   -2.8738   -2.3082 H       1  UNL1        0.0618
     46 H          10.3193   -2.6674   -0.1708 H       1  UNL1        0.0618
     47 H           9.0873   -2.5469    1.9698 H       1  UNL1        0.0632
@<TRIPOS>BOND
     1     1     2    2
     2     2     3    1
     3     3     4    1
     4     4     5    1
     5     5     6   ar
     6     6     7   ar
     7     7     8   ar
     8     8     9    1
     9     9    10    1
    10    10    11    2
    11    11    12    1
    12    12    13   ar
    13    13    14   ar
    14    14    15   ar
    15    15    16   ar
    16    16    17    1
    17    16    18   ar
    18    12    18   ar
    19    18    19    1
    20     8    20   ar
    21     5    20   ar
    22     2    21   am
    23    21    22    1
    24    22    23    1
    25    23    24    1
    26    24    25   ar
    27    25    26   ar
    28    26    27   ar
    29    27    28   ar
    30    28    29   ar
    31    24    29   ar
    32    29    30    1
    33     3    31    1
    34     3    32    1
    35     7    33    1
    36     9    34    1
    37    11    35    1
    38    13    36    1
    39    14    37    1
    40    15    38    1
    41    21    39    1
    42    22    40    1
    43    22    41    1
    44    23    42    1
    45    23    43    1
    46    25    44    1
    47    26    45    1
    48    27    46    1
    49    28    47    1
