REMARK  16 active torsions:
REMARK  status: ('A' for Active; 'I' for Inactive)
REMARK    1  A    between atoms: C_2  and  C_3 
REMARK    2  A    between atoms: C_3  and  C_4 
REMARK    3  A    between atoms: C_6  and  C_7 
REMARK    4  A    between atoms: N_8  and  N_9 
REMARK       I    between atoms: N_9  and  C_10 
REMARK    5  A    between atoms: C_10  and  C_12 
REMARK    6  A    between atoms: C_12  and  C_13 
REMARK    7  A    between atoms: C_14  and  C_13 
REMARK    8  A    between atoms: C_14  and  C_16 
REMARK    9  A    between atoms: C_14  and  O_15 
REMARK   10  A    between atoms: C_19  and  O_20 
REMARK   11  A    between atoms: O_20  and  C_21 
REMARK   12  A    between atoms: C_26  and  O_27 
REMARK   13  A    between atoms: O_27  and  C_28 
REMARK   14  A    between atoms: C_30  and  O_31 
REMARK   15  A    between atoms: O_31  and  C_32 
REMARK   16  A    between atoms: C_32  and  C_33 
ROOT
ATOM      1  C   UNL d   1      14.707  11.231   1.527  0.00  0.00    -0.018 C 
ATOM      2  C   UNL d   1      13.769  10.679   2.437  0.00  0.00     0.023 C 
ATOM      3  C   UNL d   1      13.430   9.329   2.381  0.00  0.00    -0.014 C 
ATOM      4  C   UNL d   1      13.872   8.600   1.292  0.00  0.00     0.052 C 
ATOM      5  C   UNL d   1      14.901   9.041   0.483  0.00  0.00     0.103 C 
ATOM      6  C   UNL d   1      15.328  10.376   0.577  0.00  0.00     0.109 C 
ENDROOT
BRANCH   3   7
ATOM      7  C   UNL d   1      12.689   8.698   3.507  0.00  0.00     0.150 C 
ATOM      8  N   UNL d   1      12.387   7.449   3.739  0.00  0.00    -0.184 NA
BRANCH   8   9
ATOM      9  N   UNL d   1      12.800   6.474   2.889  0.00  0.00    -0.247 N 
ATOM     10  C   UNL d   1      12.431   5.153   3.035  0.00  0.00     0.237 C 
ATOM     11  O   UNL d   1      11.807   4.669   3.985  0.00  0.00    -0.272 OA
ATOM     12  H   UNL d   1      13.665   6.617   2.386  0.00  0.00     0.192 HD
BRANCH  10  13
ATOM     13  C   UNL d   1      12.940   4.335   1.873  0.00  0.00     0.107 C 
BRANCH  13  14
ATOM     14  C   UNL d   1      12.764   2.841   2.083  0.00  0.00     0.046 C 
BRANCH  14  15
ATOM     15  C   UNL d   1      13.487   1.962   1.056  0.00  0.00     0.151 C 
BRANCH  15  16
ATOM     16  C   UNL d   1      15.002   1.908   1.211  0.00  0.00    -0.029 A 
ATOM     17  C   UNL d   1      15.808   3.060   1.161  0.00  0.00     0.012 A 
ATOM     18  C   UNL d   1      17.192   3.010   1.248  0.00  0.00     0.037 A 
ATOM     19  C   UNL d   1      17.825   1.794   1.397  0.00  0.00     0.068 A 
ATOM     20  C   UNL d   1      17.062   0.627   1.403  0.00  0.00     0.037 A 
ATOM     21  C   UNL d   1      15.669   0.683   1.315  0.00  0.00     0.012 A 
BRANCH  19  22
ATOM     22  O   UNL d   1      19.179   1.879   1.522  0.00  0.00    -0.352 OA
BRANCH  22  23
ATOM     23  C   UNL d   1      19.836   0.644   1.766  0.00  0.00     0.171 C 
ATOM     24  C   UNL d   1      21.305   0.932   1.974  0.00  0.00     0.034 C 
ENDBRANCH  22  23
ENDBRANCH  19  22
ENDBRANCH  15  16
BRANCH  15  25
ATOM     25  O   UNL d   1      12.918   0.649   1.175  0.00  0.00    -0.391 OA
ATOM     26  H   UNL d   1      13.114   0.331   2.074  0.00  0.00     0.210 HD
ENDBRANCH  15  25
ENDBRANCH  14  15
ENDBRANCH  13  14
ENDBRANCH  10  13
ENDBRANCH   8   9
ENDBRANCH   3   7
BRANCH   1  27
ATOM     27  C   UNL d   1      15.013  12.707   1.721  0.00  0.00     0.068 C 
BRANCH  27  28
ATOM     28  C   UNL d   1      14.810  13.517   0.474  0.00  0.00    -0.032 C 
ATOM     29  C   UNL d   1      15.578  14.573   0.159  0.00  0.00     0.007 C 
ENDBRANCH  27  28
ENDBRANCH   1  27
BRANCH   5  30
ATOM     30  O   UNL d   1      15.383   8.022  -0.316  0.00  0.00    -0.349 OA
BRANCH  30  31
ATOM     31  C   UNL d   1      16.386   8.393  -1.246  0.00  0.00     0.171 C 
ATOM     32  C   UNL d   1      16.876   7.239  -2.075  0.00  0.00     0.034 C 
ENDBRANCH  30  31
ENDBRANCH   5  30
BRANCH   6  33
ATOM     33  O   UNL d   1      16.314  10.666  -0.316  0.00  0.00    -0.343 OA
BRANCH  33  34
ATOM     34  C   UNL d   1      16.776  11.961  -0.531  0.00  0.00     0.214 C 
BRANCH  34  35
ATOM     35  C   UNL d   1      17.765  12.186  -1.612  0.00  0.00    -0.034 C 
ATOM     36  C   UNL d   1      17.962  11.250  -2.609  0.00  0.00     0.009 C 
ATOM     37  C   UNL d   1      18.915  11.491  -3.570  0.00  0.00     0.001 C 
ATOM     38  C   UNL d   1      19.521  12.745  -3.640  0.00  0.00     0.000 C 
ATOM     39  C   UNL d   1      19.198  13.754  -2.735  0.00  0.00     0.001 C 
ATOM     40  C   UNL d   1      18.333  13.464  -1.702  0.00  0.00     0.009 C 
ENDBRANCH  34  35
ENDBRANCH  33  34
ENDBRANCH   6  33
TORSDOF 16
