REMARK  7 active torsions:
REMARK  status: ('A' for Active; 'I' for Inactive)
REMARK    1  A    between atoms: C_2  and  C_3 
REMARK    2  A    between atoms: C_2  and  S_6 
REMARK    3  A    between atoms: S_6  and  C_7 
REMARK    4  A    between atoms: C_12  and  N_13 
REMARK       I    between atoms: N_13  and  C_14 
REMARK       I    between atoms: C_14  and  N_16 
REMARK    5  A    between atoms: N_16  and  C_17 
REMARK    6  A    between atoms: C_17  and  C_18 
REMARK    7  A    between atoms: C_23  and  O_24 
ROOT
ATOM      1  C   UNL d   1       2.970  -0.624   1.381  0.00  0.00     0.123 C 
ATOM      2  C   UNL d   1       2.464   0.220   2.539  0.00  0.00    -0.019 C 
ATOM      3  N   UNL d   1       2.043   0.920   3.499  0.00  0.00    -0.102 N 
ENDROOT
BRANCH   1   4
ATOM      4  C   UNL d   1       2.396  -0.247   0.066  0.00  0.00     0.060 C 
ATOM      5  C   UNL d   1       0.874  -0.212   0.055  0.00  0.00     0.022 C 
BRANCH   4   6
ATOM      6  S   UNL d   1       2.993  -1.529  -1.121  0.00  0.00    -0.122 SA
BRANCH   6   7
ATOM      7  C   UNL d   1       4.749  -1.126  -1.290  0.00  0.00     0.027 A 
ATOM      8  C   UNL d   1       5.570  -2.273  -1.254  0.00  0.00     0.021 A 
ATOM      9  C   UNL d   1       6.952  -2.178  -1.114  0.00  0.00     0.002 A 
ATOM     10  C   UNL d   1       7.543  -0.924  -1.059  0.00  0.00     0.002 A 
ATOM     11  C   UNL d   1       6.753   0.232  -1.173  0.00  0.00     0.031 A 
ATOM     12  C   UNL d   1       5.351   0.155  -1.337  0.00  0.00     0.053 A 
BRANCH  12  13
ATOM     13  N   UNL d   1       4.648   1.391  -1.512  0.00  0.00    -0.308 N 
ATOM     14  C   UNL d   1       3.424   1.522  -2.148  0.00  0.00     0.321 C 
ATOM     15  O   UNL d   1       2.890   0.677  -2.859  0.00  0.00    -0.247 OA
ATOM     16  N   UNL d   1       2.730   2.648  -1.777  0.00  0.00    -0.339 N 
ATOM     17  H   UNL d   1       3.223   3.449  -1.423  0.00  0.00     0.164 HD
ATOM     18  H   UNL d   1       5.177   2.243  -1.391  0.00  0.00     0.170 HD
BRANCH  16  19
ATOM     19  C   UNL d   1       1.275   2.688  -1.948  0.00  0.00     0.165 C 
BRANCH  19  20
ATOM     20  C   UNL d   1       0.669   4.058  -2.018  0.00  0.00    -0.007 A 
ATOM     21  C   UNL d   1       1.470   5.194  -2.167  0.00  0.00     0.011 A 
ATOM     22  C   UNL d   1       0.921   6.465  -2.070  0.00  0.00     0.001 A 
ATOM     23  C   UNL d   1      -0.456   6.618  -1.938  0.00  0.00     0.003 A 
ATOM     24  C   UNL d   1      -1.287   5.499  -1.879  0.00  0.00     0.037 A 
ATOM     25  C   UNL d   1      -0.722   4.226  -1.909  0.00  0.00     0.073 A 
BRANCH  25  26
ATOM     26  O   UNL d   1      -1.522   3.119  -1.825  0.00  0.00    -0.360 OA
ATOM     27  H   UNL d   1      -2.455   3.394  -1.823  0.00  0.00     0.217 HD
ENDBRANCH  25  26
ENDBRANCH  19  20
ENDBRANCH  16  19
ENDBRANCH  12  13
ENDBRANCH   6   7
ENDBRANCH   4   6
ENDBRANCH   1   4
TORSDOF 7
