REMARK  4 active torsions:
REMARK  status: ('A' for Active; 'I' for Inactive)
REMARK       I    between atoms: C_2  and  N_3 
REMARK    1  A    between atoms: C_2  and  C_15 
REMARK    2  A    between atoms: N_3  and  N_4 
REMARK       I    between atoms: N_4  and  C_5 
REMARK    3  A    between atoms: C_5  and  C_7 
REMARK    4  A    between atoms: C_19  and  O_20 
ROOT
ATOM      1  O   UNL d   1       0.953  -0.089   0.111  0.00  0.00    -0.266 OA
ATOM      2  C   UNL d   1       2.183  -0.110   0.045  0.00  0.00     0.270 C 
ATOM      3  N   UNL d   1       2.909  -1.290  -0.067  0.00  0.00    -0.263 N 
ATOM      4  H   UNL d   1       3.926  -1.335  -0.015  0.00  0.00     0.190 HD
ENDROOT
BRANCH   3   5
ATOM      5  N   UNL d   1       2.219  -2.538  -0.122  0.00  0.00    -0.263 N 
ATOM      6  C   UNL d   1       2.943  -3.723  -0.111  0.00  0.00     0.270 C 
ATOM      7  O   UNL d   1       4.173  -3.759  -0.052  0.00  0.00    -0.266 OA
ATOM      8  H   UNL d   1       1.203  -2.487  -0.059  0.00  0.00     0.190 HD
BRANCH   6   9
ATOM      9  C   UNL d   1       2.173  -5.007  -0.156  0.00  0.00     0.039 A 
ATOM     10  C   UNL d   1       1.085  -5.175  -1.020  0.00  0.00     0.059 A 
ATOM     11  C   UNL d   1       0.411  -6.401  -1.058  0.00  0.00     0.120 A 
ATOM     12  F   UNL d   1      -0.621  -6.556  -1.898  0.00  0.00    -0.206 F 
ATOM     13  C   UNL d   1       0.787  -7.464  -0.249  0.00  0.00     0.084 A 
ATOM     14  C   UNL d   1       1.878  -7.299   0.591  0.00  0.00     0.120 A 
ATOM     15  F   UNL d   1       2.253  -8.317   1.378  0.00  0.00    -0.206 F 
ATOM     16  C   UNL d   1       2.585  -6.094   0.633  0.00  0.00     0.059 A 
ENDBRANCH   6   9
ENDBRANCH   3   5
BRANCH   2  17
ATOM     17  C   UNL d   1       2.955   1.173   0.101  0.00  0.00     0.036 A 
ATOM     18  C   UNL d   1       2.545   2.200   0.970  0.00  0.00     0.017 A 
ATOM     19  C   UNL d   1       3.236   3.422   1.011  0.00  0.00     0.004 A 
ATOM     20  C   UNL d   1       4.332   3.637   0.174  0.00  0.00     0.036 A 
ATOM     21  C   UNL d   1       4.723   2.624  -0.699  0.00  0.00     0.066 A 
ATOM     22  C   UNL d   1       4.044   1.403  -0.746  0.00  0.00     0.053 A 
BRANCH  21  23
ATOM     23  O   UNL d   1       5.782   2.783  -1.546  0.00  0.00    -0.361 OA
ATOM     24  H   UNL d   1       6.188   3.654  -1.399  0.00  0.00     0.217 HD
ENDBRANCH  21  23
ENDBRANCH   2  17
TORSDOF 4
