@<TRIPOS>MOLECULE
*****
 32 33 0 0 0
SMALL
GASTEIGER

@<TRIPOS>ATOM
      1 N           1.1581    0.0482   -0.1828 N.pl3   1  UNL1       -0.2430
      2 C           2.5269    0.1315   -0.1024 C.2     1  UNL1        0.3632
      3 N           3.2260    1.1840   -0.4263 N.2     1  UNL1        0.1640
      4 O           2.4383    2.2871   -0.9183 O.3     1  UNL1       -0.1946
      5 C           3.2781    3.3127   -1.3666 C.2     1  UNL1        0.4548
      6 O           4.5103    3.2479   -1.3478 O.2     1  UNL1       -0.2216
      7 N           2.5779    4.4514   -1.7790 N.am    1  UNL1       -0.2478
      8 C           3.2073    5.6472   -2.2322 C.ar    1  UNL1        0.0367
      9 C           4.3274    5.6108   -3.0728 C.ar    1  UNL1       -0.0390
     10 C           4.9466    6.7919   -3.5098 C.ar    1  UNL1       -0.0416
     11 C           4.4650    8.0261   -3.0879 C.ar    1  UNL1        0.0411
     12 CL          5.2578    9.4725   -3.5834 Cl      1  UNL1       -0.0835
     13 C           3.3433    8.0870   -2.2640 C.ar    1  UNL1       -0.0416
     14 C           2.6998    6.9014   -1.8584 C.ar    1  UNL1       -0.0390
     15 C           3.2539   -1.1135    0.3837 C.ar    1  UNL1        0.0694
     16 C           2.8228   -2.3808   -0.0487 C.ar    1  UNL1       -0.0454
     17 C           3.4465   -3.5514    0.4105 C.ar    1  UNL1       -0.0426
     18 C           4.5025   -3.4653    1.3134 C.ar    1  UNL1        0.0410
     19 CL          5.2473   -4.9047    1.8978 Cl      1  UNL1       -0.0835
     20 C           4.9507   -2.2167    1.7445 C.ar    1  UNL1       -0.0426
     21 C           4.3319   -1.0411    1.2770 C.ar    1  UNL1       -0.0454
     22 H           0.6421    0.9004   -0.3521 H       1  UNL1        0.2886
     23 H           0.6613   -0.6970    0.2930 H       1  UNL1        0.2886
     24 H           1.5967    4.4917   -1.5418 H       1  UNL1        0.1583
     25 H           4.7190    4.6611   -3.4284 H       1  UNL1        0.0636
     26 H           5.8057    6.7355   -4.1739 H       1  UNL1        0.0633
     27 H           2.9761    9.0542   -1.9257 H       1  UNL1        0.0633
     28 H           1.8450    6.9866   -1.1930 H       1  UNL1        0.0636
     29 H           2.0127   -2.4700   -0.7674 H       1  UNL1        0.0626
     30 H           3.1086   -4.5234    0.0573 H       1  UNL1        0.0632
     31 H           5.7817   -2.1541    2.4445 H       1  UNL1        0.0632
     32 H           4.6904   -0.0773    1.6297 H       1  UNL1        0.0626
@<TRIPOS>BOND
     1     1     2    1
     2     2     3    2
     3     3     4    1
     4     4     5    1
     5     5     6    2
     6     5     7   am
     7     7     8    1
     8     8     9   ar
     9     9    10   ar
    10    10    11   ar
    11    11    12    1
    12    11    13   ar
    13    13    14   ar
    14     8    14   ar
    15     2    15    1
    16    15    16   ar
    17    16    17   ar
    18    17    18   ar
    19    18    19    1
    20    18    20   ar
    21    20    21   ar
    22    15    21   ar
    23     1    22    1
    24     1    23    1
    25     7    24    1
    26     9    25    1
    27    10    26    1
    28    13    27    1
    29    14    28    1
    30    16    29    1
    31    17    30    1
    32    20    31    1
    33    21    32    1
