@<TRIPOS>MOLECULE
*****
 37 38 0 0 0
SMALL
GASTEIGER

@<TRIPOS>ATOM
      1 C           2.4853    0.0044   -0.0132 C.3     1  UNL1       -0.0397
      2 C           0.9841    0.0175    0.0016 C.ar    1  UNL1       -0.0497
      3 C           0.2588   -1.1763    0.0035 C.ar    1  UNL1       -0.0588
      4 C          -1.1339   -1.1403   -0.0009 C.ar    1  UNL1       -0.0608
      5 C          -1.8090    0.0916   -0.0050 C.ar    1  UNL1       -0.0496
      6 C          -1.1013    1.3098    0.0036 C.ar    1  UNL1        0.0384
      7 C          -1.8629    2.6195    0.0129 C.2     1  UNL1        0.2602
      8 O          -3.0959    2.6176    0.0091 O.2     1  UNL1       -0.2687
      9 N          -1.1317    3.8049    0.0287 N.am    1  UNL1       -0.2301
     10 N          -1.7878    5.0675    0.0418 N.am    1  UNL1       -0.2306
     11 C          -1.0106    6.2187    0.0556 C.2     1  UNL1        0.2530
     12 O           0.2199    6.1925    0.0592 O.2     1  UNL1       -0.2693
     13 C          -1.7803    7.5031    0.0678 C.2     1  UNL1        0.0022
     14 C          -1.1894    8.7190    0.0849 C.2     1  UNL1       -0.0496
     15 C          -1.9020   10.0279    0.1103 C.ar    1  UNL1       -0.0249
     16 C          -1.1927   11.2450    0.1154 C.ar    1  UNL1       -0.0546
     17 C          -1.8665   12.4797    0.1567 C.ar    1  UNL1       -0.0612
     18 C          -3.2578   12.5203    0.1937 C.ar    1  UNL1       -0.0617
     19 C          -3.9742   11.3309    0.1811 C.ar    1  UNL1       -0.0612
     20 C          -3.3025   10.1048    0.1405 C.ar    1  UNL1       -0.0546
     21 C           0.3001    1.2498    0.0043 C.ar    1  UNL1       -0.0467
     22 H           2.8824   -1.0159    0.0004 H       1  UNL1        0.0278
     23 H           2.8739    0.5289    0.8655 H       1  UNL1        0.0278
     24 H           2.8520    0.4965   -0.9197 H       1  UNL1        0.0278
     25 H           0.7724   -2.1370    0.0050 H       1  UNL1        0.0620
     26 H          -1.6916   -2.0757   -0.0024 H       1  UNL1        0.0618
     27 H          -2.8979    0.0839   -0.0150 H       1  UNL1        0.0625
     28 H          -0.1176    3.8591    0.0356 H       1  UNL1        0.1731
     29 H          -2.8059    5.0454    0.0402 H       1  UNL1        0.1731
     30 H          -2.8555    7.3971    0.0650 H       1  UNL1        0.0670
     31 H          -0.1005    8.7831    0.0870 H       1  UNL1        0.0625
     32 H          -0.1044   11.2619    0.0901 H       1  UNL1        0.0623
     33 H          -1.3071   13.4135    0.1623 H       1  UNL1        0.0618
     34 H          -3.7849   13.4706    0.2328 H       1  UNL1        0.0618
     35 H          -5.0606   11.3449    0.2052 H       1  UNL1        0.0618
     36 H          -3.9147    9.2108    0.1373 H       1  UNL1        0.0623
     37 H           0.9013    2.1514    0.0042 H       1  UNL1        0.0628
@<TRIPOS>BOND
     1     1     2    1
     2     2     3   ar
     3     3     4   ar
     4     4     5   ar
     5     5     6   ar
     6     6     7    1
     7     7     8    2
     8     7     9   am
     9     9    10    1
    10    10    11   am
    11    11    12    2
    12    11    13    1
    13    13    14    2
    14    14    15    1
    15    15    16   ar
    16    16    17   ar
    17    17    18   ar
    18    18    19   ar
    19    19    20   ar
    20    15    20   ar
    21     6    21   ar
    22     2    21   ar
    23     1    22    1
    24     1    23    1
    25     1    24    1
    26     3    25    1
    27     4    26    1
    28     5    27    1
    29     9    28    1
    30    10    29    1
    31    13    30    1
    32    14    31    1
    33    16    32    1
    34    17    33    1
    35    18    34    1
    36    19    35    1
    37    20    36    1
    38    21    37    1
