REMARK  8 active torsions:
REMARK  status: ('A' for Active; 'I' for Inactive)
REMARK    1  A    between atoms: C_5  and  N_6 
REMARK    2  A    between atoms: N_6  and  C_7 
REMARK    3  A    between atoms: C_7  and  C_8 
REMARK    4  A    between atoms: C_8  and  N_9 
REMARK       I    between atoms: N_9  and  C_10 
REMARK    5  A    between atoms: C_10  and  C_12 
REMARK    6  A    between atoms: C_12  and  N_13 
REMARK       I    between atoms: N_13  and  C_14 
REMARK    7  A    between atoms: C_14  and  C_16 
REMARK    8  A    between atoms: C_19  and  C_20 
ROOT
ATOM      1  C   UNL d   1      11.881   3.413  -1.419  0.00  0.00     0.225 C 
ENDROOT
BRANCH   1   2
ATOM      2  C   UNL d   1      11.108   2.072  -1.336  0.00  0.00     0.235 C 
ATOM      3  N   UNL d   1       9.752   2.149  -1.040  0.00  0.00    -0.358 N 
ATOM      4  H   UNL d   1       9.332   3.060  -0.888  0.00  0.00     0.162 HD
ATOM      5  O   UNL d   1      11.664   0.989  -1.520  0.00  0.00    -0.272 OA
BRANCH   3   6
ATOM      6  C   UNL d   1       8.933   0.930  -0.940  0.00  0.00     0.142 C 
BRANCH   6   7
ATOM      7  C   UNL d   1       7.452   1.194  -0.601  0.00  0.00     0.141 C 
BRANCH   7   8
ATOM      8  N   UNL d   1       6.633  -0.017  -0.451  0.00  0.00    -0.372 N 
ATOM      9  H   UNL d   1       7.052  -0.924  -0.636  0.00  0.00     0.161 HD
BRANCH   8  10
ATOM     10  C   UNL d   1       5.270   0.025  -0.198  0.00  0.00     0.143 C 
ATOM     11  C   UNL d   1       4.606   1.231  -0.052  0.00  0.00     0.054 C 
ATOM     12  C   UNL d   1       3.227   1.257   0.013  0.00  0.00     0.030 C 
ATOM     13  C   UNL d   1       2.542   0.056   0.054  0.00  0.00     0.024 C 
ATOM     14  C   UNL d   1       1.045   0.020   0.077  0.00  0.00     0.070 C 
ATOM     15  N   UNL d   1       3.248  -1.091   0.072  0.00  0.00    -0.281 N 
ATOM     16  N   UNL d   1       4.577  -1.131  -0.104  0.00  0.00    -0.157 NA
ATOM     17  H   UNL d   1       2.756  -1.977   0.217  0.00  0.00     0.189 HD
ENDBRANCH   8  10
ENDBRANCH   7   8
ENDBRANCH   6   7
ENDBRANCH   3   6
ENDBRANCH   1   2
BRANCH   1  18
ATOM     18  N   UNL d   1      13.288   3.212  -1.782  0.00  0.00    -0.348 N 
ATOM     19  C   UNL d   1      14.191   4.256  -1.868  0.00  0.00     0.252 C 
ATOM     20  O   UNL d   1      13.871   5.427  -1.653  0.00  0.00    -0.268 OA
ATOM     21  H   UNL d   1      13.613   2.251  -1.841  0.00  0.00     0.163 HD
BRANCH  19  22
ATOM     22  C   UNL d   1      15.613   3.911  -2.184  0.00  0.00     0.032 C 
ATOM     23  C   UNL d   1      15.938   2.942  -3.139  0.00  0.00     0.018 C 
ATOM     24  C   UNL d   1      17.272   2.529  -3.304  0.00  0.00     0.013 C 
ATOM     25  C   UNL d   1      18.315   3.134  -2.587  0.00  0.00    -0.026 C 
ATOM     26  C   UNL d   1      17.989   4.222  -1.759  0.00  0.00     0.013 C 
ATOM     27  C   UNL d   1      16.652   4.581  -1.526  0.00  0.00     0.018 C 
BRANCH  25  28
ATOM     28  C   UNL d   1      19.701   2.637  -2.668  0.00  0.00    -0.026 A 
ATOM     29  C   UNL d   1      20.395   2.271  -1.500  0.00  0.00     0.012 A 
ATOM     30  C   UNL d   1      21.755   1.953  -1.537  0.00  0.00     0.001 A 
ATOM     31  C   UNL d   1      22.416   1.879  -2.758  0.00  0.00     0.000 A 
ATOM     32  C   UNL d   1      21.711   2.099  -3.939  0.00  0.00     0.001 A 
ATOM     33  C   UNL d   1      20.377   2.520  -3.892  0.00  0.00     0.012 A 
ENDBRANCH  25  28
ENDBRANCH  19  22
ENDBRANCH   1  18
TORSDOF 8
