@<TRIPOS>MOLECULE
*****
 32 33 0 0 0
SMALL
GASTEIGER

@<TRIPOS>ATOM
      1 O           1.0625    0.0727   -0.1203 O.2     1  UNL1       -0.2685
      2 C           2.2959    0.1187   -0.1189 C.2     1  UNL1        0.2636
      3 N           3.0572   -0.4313   -1.1588 N.am    1  UNL1       -0.2324
      4 N           2.3841   -1.3857   -1.9554 N.pl3   1  UNL1       -0.2637
      5 C           3.0924   -2.0973   -2.9343 C.ar    1  UNL1        0.0561
      6 C           2.6893   -2.0081   -4.2826 C.ar    1  UNL1       -0.0388
      7 C           3.3063   -2.7628   -5.2929 C.ar    1  UNL1       -0.0599
      8 C           4.3901   -3.5742   -4.9903 C.ar    1  UNL1       -0.0611
      9 C           4.8193   -3.6613   -3.6701 C.ar    1  UNL1       -0.0483
     10 C           4.1826   -2.9330   -2.6330 C.ar    1  UNL1        0.0770
     11 C           4.7151   -3.1504   -1.2405 C.3     1  UNL1        0.4192
     12 F           4.7205   -4.4635   -0.8771 F       1  UNL1       -0.1658
     13 F           6.0143   -2.7365   -1.1505 F       1  UNL1       -0.1658
     14 F           4.0829   -2.5002   -0.2279 F       1  UNL1       -0.1658
     15 C           3.0722    0.7361    1.0124 C.ar    1  UNL1        0.0795
     16 C           4.2863    1.4008    0.7640 C.ar    1  UNL1       -0.0460
     17 C           5.0783    1.8613    1.8251 C.ar    1  UNL1       -0.0608
     18 C           4.6306    1.7393    3.1391 C.ar    1  UNL1       -0.0583
     19 C           3.3999    1.1368    3.3983 C.ar    1  UNL1       -0.0194
     20 C           2.6279    0.6359    2.3414 C.ar    1  UNL1        0.1290
     21 O           1.4443    0.0164    2.6295 O.3     1  UNL1       -0.5060
     22 H           4.0239   -0.6523   -0.9401 H       1  UNL1        0.1730
     23 H           1.3735   -1.2530   -2.0329 H       1  UNL1        0.1700
     24 H           1.8812   -1.3365   -4.5666 H       1  UNL1        0.0637
     25 H           2.9370   -2.7197   -6.3158 H       1  UNL1        0.0618
     26 H           4.8996   -4.1337   -5.7724 H       1  UNL1        0.0618
     27 H           5.6537   -4.3223   -3.4323 H       1  UNL1        0.0624
     28 H           4.6230    1.5830   -0.2532 H       1  UNL1        0.0626
     29 H           6.0504    2.3102    1.6294 H       1  UNL1        0.0618
     30 H           5.2378    2.1175    3.9598 H       1  UNL1        0.0619
     31 H           3.0707    1.0415    4.4300 H       1  UNL1        0.0654
     32 H           1.2272    0.1199    3.5687 H       1  UNL1        0.2922
@<TRIPOS>BOND
     1     1     2    2
     2     2     3   am
     3     3     4    1
     4     4     5    1
     5     5     6   ar
     6     6     7   ar
     7     7     8   ar
     8     8     9   ar
     9     9    10   ar
    10     5    10   ar
    11    10    11    1
    12    11    12    1
    13    11    13    1
    14    11    14    1
    15     2    15    1
    16    15    16   ar
    17    16    17   ar
    18    17    18   ar
    19    18    19   ar
    20    19    20   ar
    21    15    20   ar
    22    20    21    1
    23     3    22    1
    24     4    23    1
    25     6    24    1
    26     7    25    1
    27     8    26    1
    28     9    27    1
    29    16    28    1
    30    17    29    1
    31    18    30    1
    32    19    31    1
    33    21    32    1
