@<TRIPOS>MOLECULE
*****
 50 51 0 0 0
SMALL
GASTEIGER

@<TRIPOS>ATOM
      1 O           0.9798   -0.0410    0.1535 O.2     1  UNL1       -0.2741
      2 C           2.2109   -0.0512    0.0618 C.2     1  UNL1        0.2322
      3 C           2.9376   -0.0844   -1.2788 C.3     1  UNL1        0.0256
      4 C           1.9617   -0.1158   -2.4706 C.3     1  UNL1       -0.0443
      5 C           2.6945   -0.1523   -3.8158 C.3     1  UNL1       -0.0443
      6 C           1.7511   -0.1847   -5.0391 C.3     1  UNL1        0.0256
      7 C           2.5561   -0.2149   -6.3416 C.2     1  UNL1        0.2322
      8 O           3.7909   -0.2150   -6.3224 O.2     1  UNL1       -0.2741
      9 N           1.8057   -0.2328   -7.5185 N.am    1  UNL1       -0.2070
     10 N           2.4916   -0.2830   -8.7096 N.2     1  UNL1       -0.1876
     11 C           1.8417   -0.2998   -9.8291 C.2     1  UNL1        0.0563
     12 C           2.5639   -0.3646  -11.1339 C.ar    1  UNL1        0.0373
     13 C           2.1411    0.4525  -12.1922 C.ar    1  UNL1       -0.0312
     14 C           2.8362    0.4279  -13.4083 C.ar    1  UNL1        0.0418
     15 CL          2.3390    1.4444  -14.7076 Cl      1  UNL1       -0.0835
     16 C           3.9386   -0.4078  -13.5869 C.ar    1  UNL1       -0.0399
     17 C           4.3499   -1.2366  -12.5436 C.ar    1  UNL1       -0.0182
     18 C           3.6582   -1.2203  -11.3279 C.ar    1  UNL1        0.1256
     19 O           4.0206   -2.0996  -10.3490 O.3     1  UNL1       -0.5061
     20 N           2.9857   -0.0369    1.2046 N.am    1  UNL1       -0.2070
     21 N           4.3458   -0.0263    1.1647 N.2     1  UNL1       -0.1876
     22 C           4.9722   -0.0068    2.3010 C.2     1  UNL1        0.0563
     23 C           6.4556    0.0279    2.3523 C.ar    1  UNL1        0.0373
     24 C           7.1323   -0.7897    3.2675 C.ar    1  UNL1       -0.0312
     25 C           8.5315   -0.7966    3.2781 C.ar    1  UNL1        0.0418
     26 CL          9.3814   -1.8199    4.3723 Cl      1  UNL1       -0.0835
     27 C           9.2577    0.0107    2.4019 C.ar    1  UNL1       -0.0399
     28 C           8.5835    0.8436    1.5087 C.ar    1  UNL1       -0.0182
     29 C           7.1877    0.8560    1.4913 C.ar    1  UNL1        0.1256
     30 O           6.5380    1.7241    0.6617 O.3     1  UNL1       -0.5061
     31 H           3.5768   -0.9746   -1.3040 H       1  UNL1        0.0359
     32 H           3.5756    0.8045   -1.3495 H       1  UNL1        0.0359
     33 H           1.3117    0.7667   -2.4331 H       1  UNL1        0.0270
     34 H           1.3113   -0.9946   -2.3857 H       1  UNL1        0.0270
     35 H           3.3493   -1.0329   -3.8418 H       1  UNL1        0.0270
     36 H           3.3495    0.7256   -3.8890 H       1  UNL1        0.0270
     37 H           1.1104    0.7043   -5.0344 H       1  UNL1        0.0359
     38 H           1.1124   -1.0739   -4.9893 H       1  UNL1        0.0359
     39 H           0.7927   -0.2581   -7.5158 H       1  UNL1        0.1772
     40 H           0.7401   -0.2409   -9.8781 H       1  UNL1        0.0852
     41 H           1.2972    1.1257  -12.0738 H       1  UNL1        0.0640
     42 H           4.4756   -0.4237  -14.5334 H       1  UNL1        0.0633
     43 H           5.2003   -1.8953  -12.6972 H       1  UNL1        0.0655
     44 H           4.8558   -2.5351  -10.5791 H       1  UNL1        0.2922
     45 H           2.4900    0.0059    2.0883 H       1  UNL1        0.1772
     46 H           4.4456   -0.0362    3.2734 H       1  UNL1        0.0852
     47 H           6.5880   -1.4400    3.9466 H       1  UNL1        0.0640
     48 H          10.3456   -0.0001    2.4115 H       1  UNL1        0.0633
     49 H           9.1582    1.4779    0.8400 H       1  UNL1        0.0655
     50 H           7.1731    2.1701    0.0800 H       1  UNL1        0.2922
@<TRIPOS>BOND
     1     1     2    2
     2     2     3    1
     3     3     4    1
     4     4     5    1
     5     5     6    1
     6     6     7    1
     7     7     8    2
     8     7     9   am
     9     9    10    1
    10    10    11    2
    11    11    12    1
    12    12    13   ar
    13    13    14   ar
    14    14    15    1
    15    14    16   ar
    16    16    17   ar
    17    17    18   ar
    18    12    18   ar
    19    18    19    1
    20     2    20   am
    21    20    21    1
    22    21    22    2
    23    22    23    1
    24    23    24   ar
    25    24    25   ar
    26    25    26    1
    27    25    27   ar
    28    27    28   ar
    29    28    29   ar
    30    23    29   ar
    31    29    30    1
    32     3    31    1
    33     3    32    1
    34     4    33    1
    35     4    34    1
    36     5    35    1
    37     5    36    1
    38     6    37    1
    39     6    38    1
    40     9    39    1
    41    11    40    1
    42    13    41    1
    43    16    42    1
    44    17    43    1
    45    19    44    1
    46    20    45    1
    47    22    46    1
    48    24    47    1
    49    27    48    1
    50    28    49    1
    51    30    50    1
