@<TRIPOS>MOLECULE
*****
 57 59 0 0 0
SMALL
GASTEIGER

@<TRIPOS>ATOM
      1 C           5.2300    2.4465   -2.9741 C.3     1  UNL1       -0.0652
      2 C           4.7725    2.4979   -1.5451 C.3     1  UNL1       -0.0538
      3 C           5.0560    1.1541   -0.8399 C.3     1  UNL1       -0.0256
      4 C           4.5403    1.2215    0.5888 C.3     1  UNL1        0.1074
      5 C           3.0677    0.7044    0.4149 C.2     1  UNL1        0.2342
      6 O           2.6044   -0.1313    1.1536 O.2     1  UNL1       -0.2738
      7 N           2.3268    1.2057   -0.6394 N.am    1  UNL1       -0.3097
      8 C           0.9002    1.0871   -0.6458 C.3     1  UNL1        0.0369
      9 C           0.3608    1.1996   -2.0218 C.ar    1  UNL1       -0.0303
     10 C          -0.1155    0.0688   -2.6784 C.ar    1  UNL1       -0.0571
     11 C          -0.4776    0.1739   -4.0113 C.ar    1  UNL1       -0.0615
     12 C          -0.4412    1.4174   -4.6494 C.ar    1  UNL1       -0.0617
     13 C          -0.0039    2.5566   -3.9753 C.ar    1  UNL1       -0.0615
     14 C           0.4061    2.4464   -2.6602 C.ar    1  UNL1       -0.0571
     15 N           4.9816    2.4410    1.3983 N.am    1  UNL1       -0.2523
     16 C           4.0837    3.3947    2.0186 C.2     1  UNL1        0.2615
     17 O           4.5189    4.4659    2.4505 O.2     1  UNL1       -0.2689
     18 C           2.6486    3.1273    2.1165 C.ar    1  UNL1        0.1156
     19 S           1.4971    4.2487    1.5112 S.2     1  UNL1        0.0190
     20 N           0.1367    3.2941    1.7540 N.ar    1  UNL1       -0.2031
     21 C           0.5233    2.1359    2.3169 C.ar    1  UNL1        0.1554
     22 C          -0.3522    0.9255    2.3430 C.2     1  UNL1        0.2624
     23 N          -1.6570    1.0353    1.9380 N.am    1  UNL1       -0.3240
     24 O           0.0601   -0.1996    2.6204 O.2     1  UNL1       -0.2687
     25 C           1.9287    2.1042    2.6992 C.ar    1  UNL1        0.0765
     26 N           2.5052    1.0355    3.3153 N.pl3   1  UNL1       -0.3551
     27 C           6.4655    2.6992    1.5250 C.ar    1  UNL1        0.0726
     28 C           7.0158    3.1707    2.7317 C.ar    1  UNL1       -0.0374
     29 C           8.3838    3.5356    2.8438 C.ar    1  UNL1       -0.0598
     30 C           9.2788    3.3415    1.7973 C.ar    1  UNL1       -0.0589
     31 C           8.7927    2.8335    0.6205 C.ar    1  UNL1       -0.0246
     32 C           7.4282    2.5725    0.4891 C.ar    1  UNL1        0.1447
     33 F           7.1292    2.3708   -0.7887 F       1  UNL1       -0.2035
     34 H           4.8906    3.3468   -3.4893 H       1  UNL1        0.0230
     35 H           4.8058    1.5707   -3.4719 H       1  UNL1        0.0230
     36 H           6.3192    2.3946   -3.0212 H       1  UNL1        0.0230
     37 H           3.7148    2.7629   -1.5466 H       1  UNL1        0.0263
     38 H           5.2190    3.3518   -1.0251 H       1  UNL1        0.0263
     39 H           6.0878    0.7976   -0.8421 H       1  UNL1        0.0288
     40 H           4.5877    0.3226   -1.3847 H       1  UNL1        0.0288
     41 H           4.9997    0.3946    1.1509 H       1  UNL1        0.0600
     42 H           2.7314    1.1174   -1.5636 H       1  UNL1        0.1491
     43 H           0.5264    1.9629   -0.1376 H       1  UNL1        0.0512
     44 H           0.5718    0.1905   -0.1233 H       1  UNL1        0.0512
     45 H          -0.1861   -0.8833   -2.1551 H       1  UNL1        0.0621
     46 H          -0.7747   -0.7165   -4.5561 H       1  UNL1        0.0618
     47 H          -0.7594    1.4989   -5.6828 H       1  UNL1        0.0618
     48 H           0.0386    3.5216   -4.4705 H       1  UNL1        0.0618
     49 H           0.7723    3.3209   -2.1230 H       1  UNL1        0.0621
     50 H          -2.0709    1.9038    1.6370 H       1  UNL1        0.1453
     51 H          -2.2141    0.1903    1.9806 H       1  UNL1        0.1453
     52 H           2.0154    0.1572    3.0556 H       1  UNL1        0.1424
     53 H           3.4736    0.8409    3.0773 H       1  UNL1        0.1424
     54 H           6.4022    3.2807    3.6235 H       1  UNL1        0.0637
     55 H           8.7510    4.0031    3.7547 H       1  UNL1        0.0618
     56 H          10.3277    3.6134    1.8692 H       1  UNL1        0.0618
     57 H           9.4240    2.7098   -0.2571 H       1  UNL1        0.0647
@<TRIPOS>BOND
     1     1     2    1
     2     2     3    1
     3     5     6    2
     4     5     7   am
     5     7     8    1
     6     8     9    1
     7     9    10   ar
     8    10    11   ar
     9    11    12   ar
    10    12    13   ar
    11    13    14   ar
    12     9    14   ar
    13     4    15    1
    14    15    16   am
    15    16    17    2
    16    16    18    1
    17    18    19   ar
    18    19    20   ar
    19    20    21   ar
    20    21    22    1
    21    22    23   am
    22    22    24    2
    23    21    25   ar
    24    18    25   ar
    25    25    26    1
    26    15    27    1
    27    27    28   ar
    28    28    29   ar
    29    29    30   ar
    30    30    31   ar
    31    31    32   ar
    32    27    32   ar
    33    32    33    1
    34     4     5    1
    35     4     3    1
    36     1    34    1
    37     1    35    1
    38     1    36    1
    39     2    37    1
    40     2    38    1
    41     3    39    1
    42     3    40    1
    43     4    41    1
    44     7    42    1
    45     8    43    1
    46     8    44    1
    47    10    45    1
    48    11    46    1
    49    12    47    1
    50    13    48    1
    51    14    49    1
    52    23    50    1
    53    23    51    1
    54    26    52    1
    55    26    53    1
    56    28    54    1
    57    29    55    1
    58    30    56    1
    59    31    57    1
