REMARK  8 active torsions:
REMARK  status: ('A' for Active; 'I' for Inactive)
REMARK    1  A    between atoms: O_2  and  C_3 
REMARK    2  A    between atoms: C_3  and  C_5 
REMARK    3  A    between atoms: C_8  and  C_9 
REMARK    4  A    between atoms: C_9  and  N_10 
REMARK       I    between atoms: N_10  and  C_11 
REMARK       I    between atoms: C_11  and  N_13 
REMARK    5  A    between atoms: N_13  and  C_14 
REMARK    6  A    between atoms: C_14  and  C_16 
REMARK    7  A    between atoms: C_19  and  N_20 
REMARK       I    between atoms: N_20  and  C_21 
REMARK       I    between atoms: C_21  and  N_23 
REMARK    8  A    between atoms: N_23  and  C_24 
ROOT
ATOM      1  C   UNL d   1      12.727  -2.335  -1.107  0.00  0.00     0.115 C 
ATOM      2  C   UNL d   1      13.387  -1.708   0.145  0.00  0.00     0.037 C 
ENDROOT
BRANCH   1   3
ATOM      3  N   UNL d   1      11.307  -1.964  -1.140  0.00  0.00    -0.335 N 
ATOM      4  C   UNL d   1      10.912  -0.644  -1.175  0.00  0.00     0.316 C 
ATOM      5  N   UNL d   1       9.556  -0.480  -1.153  0.00  0.00    -0.339 N 
ATOM      6  O   UNL d   1      11.684   0.305  -1.220  0.00  0.00    -0.247 OA
ATOM      7  H   UNL d   1       8.990  -1.303  -1.081  0.00  0.00     0.164 HD
ATOM      8  H   UNL d   1      10.619  -2.694  -1.058  0.00  0.00     0.165 HD
BRANCH   5   9
ATOM      9  C   UNL d   1       8.949   0.848  -1.139  0.00  0.00     0.162 C 
BRANCH   9  10
ATOM     10  C   UNL d   1       7.426   0.877  -1.101  0.00  0.00    -0.040 A 
ATOM     11  C   UNL d   1       6.748   2.111  -1.030  0.00  0.00     0.010 A 
ATOM     12  C   UNL d   1       5.350   2.163  -0.869  0.00  0.00     0.018 A 
ATOM     13  C   UNL d   1       4.595   0.983  -0.846  0.00  0.00     0.039 A 
ATOM     14  C   UNL d   1       5.251  -0.241  -0.955  0.00  0.00     0.018 A 
ATOM     15  C   UNL d   1       6.643  -0.287  -1.088  0.00  0.00     0.010 A 
BRANCH  13  16
ATOM     16  C   UNL d   1       3.114   1.046  -0.866  0.00  0.00     0.292 C 
ATOM     17  O   UNL d   1       2.499   1.889  -1.517  0.00  0.00    -0.259 OA
BRANCH  16  18
ATOM     18  O   UNL d   1       2.558   0.072  -0.104  0.00  0.00    -0.323 OA
ATOM     19  C   UNL d   1       1.123   0.079  -0.101  0.00  0.00     0.213 C 
ENDBRANCH  16  18
ENDBRANCH  13  16
ENDBRANCH   9  10
ENDBRANCH   5   9
ENDBRANCH   1   3
BRANCH   1  20
ATOM     20  C   UNL d   1      12.961  -3.856  -1.122  0.00  0.00    -0.036 A 
ATOM     21  C   UNL d   1      12.132  -4.802  -1.747  0.00  0.00     0.011 A 
ATOM     22  C   UNL d   1      12.357  -6.203  -1.598  0.00  0.00     0.030 A 
ATOM     23  C   UNL d   1      13.481  -6.687  -0.912  0.00  0.00     0.036 A 
ATOM     24  C   UNL d   1      14.308  -5.731  -0.339  0.00  0.00     0.030 A 
ATOM     25  C   UNL d   1      14.082  -4.369  -0.468  0.00  0.00     0.011 A 
BRANCH  23  26
ATOM     26  N   UNL d   1      13.799  -8.086  -0.841  0.00  0.00    -0.309 N 
ATOM     27  C   UNL d   1      14.974  -8.569  -0.267  0.00  0.00     0.325 C 
ATOM     28  O   UNL d   1      15.829  -7.857   0.254  0.00  0.00    -0.247 OA
ATOM     29  N   UNL d   1      15.167  -9.941  -0.322  0.00  0.00    -0.309 N 
ATOM     30  H   UNL d   1      14.677 -10.491  -1.009  0.00  0.00     0.170 HD
ATOM     31  H   UNL d   1      13.178  -8.726  -1.313  0.00  0.00     0.170 HD
BRANCH  29  32
ATOM     32  C   UNL d   1      16.311 -10.522   0.312  0.00  0.00     0.036 A 
ATOM     33  C   UNL d   1      17.025 -11.563  -0.287  0.00  0.00     0.029 A 
ATOM     34  C   UNL d   1      18.094 -12.171   0.396  0.00  0.00     0.002 A 
ATOM     35  C   UNL d   1      18.485 -11.717   1.656  0.00  0.00     0.000 A 
ATOM     36  C   UNL d   1      17.797 -10.667   2.249  0.00  0.00     0.002 A 
ATOM     37  C   UNL d   1      16.722 -10.079   1.580  0.00  0.00     0.029 A 
ENDBRANCH  29  32
ENDBRANCH  23  26
ENDBRANCH   1  20
TORSDOF 8
