REMARK  4 active torsions:
REMARK  status: ('A' for Active; 'I' for Inactive)
REMARK    1  A    between atoms: C_3  and  C_4 
REMARK    2  A    between atoms: C_11  and  C_12 
REMARK    3  A    between atoms: C_15  and  O_16 
REMARK    4  A    between atoms: C_17  and  O_18 
ROOT
ATOM      1  C   UNL d   1       1.052   0.006   0.055  0.00  0.00     0.074 C 
ATOM      2  C   UNL d   1       2.521  -0.085   0.042  0.00  0.00     0.069 A 
ATOM      3  C   UNL d   1       3.380  -1.190   0.018  0.00  0.00     0.069 A 
ATOM      4  N   UNL d   1       4.691  -0.731   0.058  0.00  0.00    -0.338 N 
ATOM      5  C   UNL d   1       4.585   0.644   0.080  0.00  0.00     0.147 A 
ATOM      6  N   UNL d   1       3.322   1.006   0.074  0.00  0.00    -0.173 N 
ATOM      7  O   UNL d   1       3.004   2.225   0.088  0.00  0.00    -0.079 OA
ATOM      8  H   UNL d   1       5.536  -1.290   0.056  0.00  0.00     0.167 HD
ENDROOT
BRANCH   5   9
ATOM      9  C   UNL d   1       5.753   1.536   0.059  0.00  0.00     0.013 A 
ATOM     10  C   UNL d   1       5.937   2.516   1.050  0.00  0.00     0.018 A 
ATOM     11  C   UNL d   1       6.973   3.458   0.955  0.00  0.00     0.040 A 
ATOM     12  C   UNL d   1       7.871   3.378  -0.102  0.00  0.00     0.098 A 
ATOM     13  C   UNL d   1       7.715   2.391  -1.072  0.00  0.00     0.099 A 
ATOM     14  C   UNL d   1       6.672   1.471  -0.997  0.00  0.00     0.054 A 
BRANCH  12  15
ATOM     15  O   UNL d   1       8.922   4.245  -0.222  0.00  0.00    -0.358 OA
ATOM     16  H   UNL d   1       8.956   4.794   0.581  0.00  0.00     0.217 HD
ENDBRANCH  12  15
BRANCH  13  17
ATOM     17  O   UNL d   1       8.572   2.325  -2.135  0.00  0.00    -0.358 OA
ATOM     18  H   UNL d   1       9.162   3.098  -2.037  0.00  0.00     0.217 HD
ENDBRANCH  13  17
ENDBRANCH   5   9
BRANCH   3  19
ATOM     19  C   UNL d   1       2.993  -2.599   0.000  0.00  0.00    -0.007 A 
ATOM     20  C   UNL d   1       2.133  -3.068  -1.004  0.00  0.00     0.014 A 
ATOM     21  C   UNL d   1       1.561  -4.338  -0.914  0.00  0.00     0.001 A 
ATOM     22  C   UNL d   1       1.903  -5.176   0.144  0.00  0.00     0.000 A 
ATOM     23  C   UNL d   1       2.781  -4.730   1.131  0.00  0.00     0.001 A 
ATOM     24  C   UNL d   1       3.317  -3.440   1.067  0.00  0.00     0.014 A 
ENDBRANCH   3  19
TORSDOF 4
