@<TRIPOS>MOLECULE
*****
 55 57 0 0 0
SMALL
GASTEIGER

@<TRIPOS>ATOM
      1 C           1.0782    0.0201   -0.0530 C.3     1  UNL1        0.0820
      2 O           2.5124   -0.0085   -0.0511 O.3     1  UNL1       -0.4644
      3 C           3.0671   -0.4119    1.1228 C.2     1  UNL1        0.3390
      4 O           2.4592   -0.7374    2.1314 O.2     1  UNL1       -0.2450
      5 C           4.5533   -0.3862    1.0615 C.ar    1  UNL1        0.0610
      6 C           5.3369   -1.3300    1.7438 C.ar    1  UNL1       -0.0430
      7 C           6.7353   -1.1478    1.8795 C.ar    1  UNL1       -0.0278
      8 C           7.5160   -2.0353    2.8416 C.3     1  UNL1        0.0373
      9 N           8.9176   -1.6800    3.0316 N.am    1  UNL1       -0.3060
     10 C           9.7731   -2.3958    3.8320 C.2     1  UNL1        0.2621
     11 O           9.4237   -3.4045    4.4471 O.2     1  UNL1       -0.2685
     12 C          11.1220   -1.8904    3.8664 C.ar    1  UNL1        0.1204
     13 C          11.6039   -0.5996    3.9281 C.ar    1  UNL1       -0.0086
     14 C          13.0183   -0.7000    3.9790 C.ar    1  UNL1        0.0661
     15 C          14.0170    0.4319    4.0729 C.3     1  UNL1       -0.0026
     16 C          14.9701    0.4580    2.8749 C.3     1  UNL1       -0.0572
     17 C          13.3004    1.7875    4.1592 C.3     1  UNL1       -0.0572
     18 N          13.4034   -1.9822    3.9418 N.ar    1  UNL1       -0.1779
     19 N          12.2444   -2.6750    3.8959 N.ar    1  UNL1       -0.2722
     20 C           7.3261   -0.0619    1.2072 C.ar    1  UNL1       -0.0357
     21 C           6.5438    0.9017    0.5637 C.ar    1  UNL1        0.0348
     22 N           7.1788    2.0612    0.0726 N.am    1  UNL1       -0.2814
     23 C           6.5329    3.1215   -0.5382 C.2     1  UNL1        0.2497
     24 O           5.3234    3.2644   -0.6839 O.2     1  UNL1       -0.2698
     25 C           7.3686    4.2055   -1.0797 C.ar    1  UNL1        0.0553
     26 C           6.8690    5.5161   -0.9487 C.ar    1  UNL1       -0.0482
     27 C           7.4878    6.5708   -1.6144 C.ar    1  UNL1       -0.0610
     28 C           8.6414    6.3321   -2.3560 C.ar    1  UNL1       -0.0603
     29 C           9.1448    5.0352   -2.4779 C.ar    1  UNL1       -0.0427
     30 C           8.5073    3.9650   -1.8512 C.ar    1  UNL1        0.0531
     31 CL          9.1671    2.3906   -2.1215 Cl      1  UNL1       -0.0828
     32 C           5.1669    0.7178    0.4830 C.ar    1  UNL1       -0.0265
     33 H           0.7334    0.3112   -1.0511 H       1  UNL1        0.0661
     34 H           0.7010    0.7573    0.6642 H       1  UNL1        0.0661
     35 H           0.6740   -0.9726    0.1688 H       1  UNL1        0.0661
     36 H           4.8401   -2.1857    2.1997 H       1  UNL1        0.0629
     37 H           7.4575   -3.0829    2.5280 H       1  UNL1        0.0512
     38 H           7.0462   -1.9507    3.8309 H       1  UNL1        0.0512
     39 H           9.3196   -0.9043    2.5332 H       1  UNL1        0.1494
     40 H          11.0151    0.3035    3.9797 H       1  UNL1        0.0659
     41 H          14.6142    0.3063    4.9874 H       1  UNL1        0.0359
     42 H          14.4140    0.5532    1.9357 H       1  UNL1        0.0236
     43 H          15.5692   -0.4568    2.8189 H       1  UNL1        0.0236
     44 H          15.6629    1.3050    2.9433 H       1  UNL1        0.0236
     45 H          12.6805    1.9516    3.2687 H       1  UNL1        0.0236
     46 H          14.0052    2.6201    4.2322 H       1  UNL1        0.0236
     47 H          12.6423    1.8252    5.0350 H       1  UNL1        0.0236
     48 H          12.2860   -3.6890    3.8597 H       1  UNL1        0.1891
     49 H           8.4015    0.0722    1.2064 H       1  UNL1        0.0639
     50 H           8.1897    2.1032    0.1494 H       1  UNL1        0.1551
     51 H           5.9750    5.7092   -0.3541 H       1  UNL1        0.0625
     52 H           7.0582    7.5697   -1.5761 H       1  UNL1        0.0618
     53 H           9.1478    7.1563   -2.8512 H       1  UNL1        0.0618
     54 H          10.0224    4.8570   -3.0930 H       1  UNL1        0.0632
     55 H           4.5265    1.4465    0.0057 H       1  UNL1        0.0644
@<TRIPOS>BOND
     1     1     2    1
     2     2     3    1
     3     3     4    2
     4     3     5    1
     5     5     6   ar
     6     6     7   ar
     7     7     8    1
     8     8     9    1
     9     9    10   am
    10    10    11    2
    11    10    12    1
    12    12    13   ar
    13    13    14   ar
    14    14    15    1
    15    15    16    1
    16    15    17    1
    17    14    18   ar
    18    18    19   ar
    19    12    19   ar
    20     7    20   ar
    21    20    21   ar
    22    21    22    1
    23    22    23   am
    24    23    24    2
    25    23    25    1
    26    25    26   ar
    27    26    27   ar
    28    27    28   ar
    29    28    29   ar
    30    29    30   ar
    31    25    30   ar
    32    30    31    1
    33    21    32   ar
    34     5    32   ar
    35     1    33    1
    36     1    34    1
    37     1    35    1
    38     6    36    1
    39     8    37    1
    40     8    38    1
    41     9    39    1
    42    13    40    1
    43    15    41    1
    44    16    42    1
    45    16    43    1
    46    16    44    1
    47    17    45    1
    48    17    46    1
    49    17    47    1
    50    19    48    1
    51    20    49    1
    52    22    50    1
    53    26    51    1
    54    27    52    1
    55    28    53    1
    56    29    54    1
    57    32    55    1
