REMARK  12 active torsions:
REMARK  status: ('A' for Active; 'I' for Inactive)
REMARK    1  A    between atoms: C_2  and  O_3 
REMARK    2  A    between atoms: O_3  and  C_4 
REMARK    3  A    between atoms: C_6  and  C_7 
REMARK    4  A    between atoms: C_7  and  N_8 
REMARK    5  A    between atoms: N_8  and  C_9 
REMARK    6  A    between atoms: C_9  and  C_10 
REMARK    7  A    between atoms: C_10  and  N_11 
REMARK    8  A    between atoms: N_11  and  C_12 
REMARK    9  A    between atoms: C_15  and  N_16 
REMARK   10  A    between atoms: C_23  and  O_24 
REMARK   11  A    between atoms: O_24  and  C_25 
REMARK   12  A    between atoms: C_25  and  C_26 
ROOT
ATOM      1  C   UNL d   1       4.256   0.057   1.547  0.00  0.00     0.102 A 
ATOM      2  C   UNL d   1       4.822  -0.704   2.594  0.00  0.00     0.048 A 
ATOM      3  C   UNL d   1       6.172  -0.545   2.983  0.00  0.00    -0.030 A 
ATOM      4  C   UNL d   1       7.005   0.276   2.218  0.00  0.00     0.012 A 
ATOM      5  C   UNL d   1       6.479   1.030   1.196  0.00  0.00     0.040 A 
ATOM      6  C   UNL d   1       5.122   0.971   0.878  0.00  0.00     0.102 A 
ENDROOT
BRANCH   3   7
ATOM      7  C   UNL d   1       6.666  -1.146   4.270  0.00  0.00     0.271 C 
BRANCH   7   8
ATOM      8  N   UNL d   1       8.072  -0.739   4.572  0.00  0.00    -0.070 N 
ATOM      9  H   UNL d   1       8.111   0.291   4.590  0.00  0.00     0.277 HD
ATOM     10  H   UNL d   1       8.669  -1.055   3.797  0.00  0.00     0.277 HD
BRANCH   8  11
ATOM     11  C   UNL d   1       8.606  -1.274   5.843  0.00  0.00     0.252 C 
BRANCH  11  12
ATOM     12  C   UNL d   1      10.057  -0.820   6.028  0.00  0.00     0.147 C 
BRANCH  12  13
ATOM     13  N   UNL d   1      10.633  -1.462   7.183  0.00  0.00    -0.388 N 
ATOM     14  H   UNL d   1      10.048  -1.966   7.848  0.00  0.00     0.159 HD
BRANCH  13  15
ATOM     15  C   UNL d   1      11.870  -1.092   7.680  0.00  0.00     0.028 A 
ATOM     16  C   UNL d   1      12.657  -2.081   8.283  0.00  0.00     0.031 A 
ATOM     17  C   UNL d   1      13.905  -1.779   8.831  0.00  0.00     0.038 A 
ATOM     18  C   UNL d   1      14.404  -0.477   8.718  0.00  0.00     0.103 A 
ATOM     19  C   UNL d   1      13.637   0.523   8.118  0.00  0.00     0.038 A 
ATOM     20  C   UNL d   1      12.379   0.209   7.597  0.00  0.00     0.031 A 
BRANCH  18  21
ATOM     21  N   UNL d   1      15.767  -0.186   9.176  0.00  0.00    -0.116 N 
ATOM     22  O   UNL d   1      16.423  -1.101   9.665  0.00  0.00    -0.532 OA
ATOM     23  O   UNL d   1      16.183   0.981   9.009  0.00  0.00    -0.532 OA
ENDBRANCH  18  21
ENDBRANCH  13  15
ENDBRANCH  12  13
ENDBRANCH  11  12
ENDBRANCH   8  11
ENDBRANCH   7   8
ENDBRANCH   3   7
BRANCH   1  24
ATOM     24  O   UNL d   1       2.866  -0.027   1.519  0.00  0.00    -0.349 OA
BRANCH  24  25
ATOM     25  C   UNL d   1       2.184  -0.395   0.314  0.00  0.00     0.171 C 
ATOM     26  C   UNL d   1       0.677  -0.239   0.298  0.00  0.00     0.034 C 
ENDBRANCH  24  25
ENDBRANCH   1  24
BRANCH   6  27
ATOM     27  O   UNL d   1       4.898   1.952  -0.067  0.00  0.00    -0.344 OA
BRANCH  27  28
ATOM     28  C   UNL d   1       3.657   1.765  -0.657  0.00  0.00     0.215 C 
BRANCH  28  29
ATOM     29  C   UNL d   1       3.227   2.597  -1.792  0.00  0.00    -0.016 C 
ATOM     30  C   UNL d   1       3.283   3.969  -1.661  0.00  0.00     0.014 C 
ATOM     31  C   UNL d   1       3.012   4.726  -2.774  0.00  0.00     0.045 C 
ATOM     32  C   UNL d   1       2.607   4.070  -3.928  0.00  0.00     0.125 C 
ATOM     33 CL   UNL d   1       2.420   4.936  -5.389  0.00  0.00    -0.062 Cl
ATOM     34  N   UNL d   1       2.379   2.744  -4.029  0.00  0.00    -0.248 NA
ATOM     35  C   UNL d   1       2.680   2.025  -2.942  0.00  0.00     0.127 C 
ENDBRANCH  28  29
ENDBRANCH  27  28
ENDBRANCH   6  27
TORSDOF 12
