@<TRIPOS>MOLECULE
*****
 58 61 0 0 0
SMALL
GASTEIGER

@<TRIPOS>ATOM
      1 C           0.9288    0.6570    0.2663 C.3     1  UNL1        0.0789
      2 O           2.3163    0.3986    0.1270 O.3     1  UNL1       -0.4932
      3 C           2.9174   -0.4722    1.0029 C.ar    1  UNL1        0.1430
      4 C           4.2399    0.0091    1.4347 C.ar    1  UNL1        0.0031
      5 C           5.0666   -0.7561    2.2720 C.ar    1  UNL1        0.0362
      6 N           6.5000   -0.5064    2.5457 N.am    1  UNL1       -0.2965
      7 C           7.4127   -1.4140    3.2102 C.2     1  UNL1        0.1411
      8 S           7.0015   -2.7982    4.0866 S.2     1  UNL1       -0.0182
      9 N           8.7879   -1.0763    3.1273 N.am    1  UNL1       -0.2635
     10 C           9.7689   -1.5713    4.0415 C.2     1  UNL1        0.2531
     11 O           9.6670   -2.5449    4.7611 O.2     1  UNL1       -0.2697
     12 C          11.0750   -0.9040    4.2092 C.ar    1  UNL1        0.0789
     13 C          12.1564   -1.8267    4.2268 C.ar    1  UNL1       -0.0461
     14 C          13.4283   -1.4565    4.6481 C.ar    1  UNL1       -0.0606
     15 C          13.6583   -0.1369    4.9961 C.ar    1  UNL1       -0.0553
     16 C          12.5975    0.7863    5.0238 C.ar    1  UNL1       -0.0080
     17 C          12.8735    2.1866    5.5010 C.3     1  UNL1       -0.0362
     18 C          11.2777    0.4044    4.6687 C.ar    1  UNL1        0.1351
     19 O          10.3671    1.4026    4.9151 O.3     1  UNL1       -0.4941
     20 C           8.9965    1.1936    4.6602 C.3     1  UNL1        0.0788
     21 C           4.4131   -1.8668    2.7795 C.ar    1  UNL1       -0.0385
     22 C           3.1939   -2.3955    2.3300 C.ar    1  UNL1       -0.0351
     23 C           2.4008   -1.7349    1.4112 C.ar    1  UNL1        0.0760
     24 N           1.1326   -2.3948    1.0939 N.am    1  UNL1       -0.2760
     25 C           0.4569   -2.2766   -0.1215 C.2     1  UNL1        0.2837
     26 O           1.1215   -1.9502   -1.1154 O.2     1  UNL1       -0.2665
     27 C          -1.0429   -2.2697   -0.2667 C.ar    1  UNL1        0.1908
     28 C          -1.6038   -1.4089   -1.1898 C.ar    1  UNL1       -0.0035
     29 C          -2.7670   -2.0065   -1.6540 C.ar    1  UNL1        0.0209
     30 C          -3.4598   -1.8876   -2.8625 C.ar    1  UNL1       -0.0510
     31 C          -4.7510   -2.3724   -2.9647 C.ar    1  UNL1       -0.0610
     32 C          -5.3410   -2.9610   -1.8488 C.ar    1  UNL1       -0.0582
     33 C          -4.6073   -3.1869   -0.6375 C.ar    1  UNL1       -0.0187
     34 C          -3.2458   -2.7829   -0.6096 C.ar    1  UNL1        0.1359
     35 O          -2.1222   -3.0287    0.2630 O.2     1  UNL1       -0.4502
     36 H           0.5767    1.0548   -0.6910 H       1  UNL1        0.0660
     37 H           0.7357    1.3568    1.0763 H       1  UNL1        0.0660
     38 H           0.3001   -0.1883    0.4906 H       1  UNL1        0.0660
     39 H           4.5491    0.9984    1.0906 H       1  UNL1        0.0673
     40 H           6.8604    0.3500    2.1296 H       1  UNL1        0.1538
     41 H           9.0919   -0.3767    2.4695 H       1  UNL1        0.1568
     42 H          11.9817   -2.8764    3.9818 H       1  UNL1        0.0626
     43 H          14.2205   -2.1973    4.7327 H       1  UNL1        0.0618
     44 H          14.6648    0.1662    5.2771 H       1  UNL1        0.0621
     45 H          13.9338    2.3343    5.7265 H       1  UNL1        0.0279
     46 H          12.3052    2.3897    6.4145 H       1  UNL1        0.0279
     47 H          12.5911    2.9004    4.7214 H       1  UNL1        0.0279
     48 H           8.4011    2.0613    4.9465 H       1  UNL1        0.0660
     49 H           8.6103    0.3396    5.2257 H       1  UNL1        0.0660
     50 H           8.8628    1.1379    3.5823 H       1  UNL1        0.0660
     51 H           4.7911   -2.4160    3.6144 H       1  UNL1        0.0637
     52 H           2.9436   -3.3710    2.7359 H       1  UNL1        0.0638
     53 H           0.9188   -3.2255    1.6313 H       1  UNL1        0.1553
     54 H          -1.0799   -0.6011   -1.6714 H       1  UNL1        0.0663
     55 H          -2.9479   -1.4450   -3.7089 H       1  UNL1        0.0625
     56 H          -5.2824   -2.2501   -3.9069 H       1  UNL1        0.0618
     57 H          -6.3825   -3.2776   -1.9532 H       1  UNL1        0.0619
     58 H          -5.1343   -3.6357    0.2003 H       1  UNL1        0.0654
@<TRIPOS>BOND
     1     1     2    1
     2     2     3    1
     3     3     4   ar
     4     4     5   ar
     5     5     6    1
     6     6     7    1
     7     7     8    2
     8     7     9    1
     9     9    10   am
    10    10    11    2
    11    10    12    1
    12    12    13   ar
    13    13    14   ar
    14    14    15   ar
    15    15    16   ar
    16    16    17    1
    17    16    18   ar
    18    12    18   ar
    19    18    19    1
    20    19    20    1
    21     5    21   ar
    22    21    22   ar
    23    22    23   ar
    24     3    23   ar
    25    23    24    1
    26    24    25   am
    27    25    26    2
    28    25    27    1
    29    27    28   ar
    30    28    29   ar
    31    29    30   ar
    32    30    31   ar
    33    31    32   ar
    34    32    33   ar
    35    33    34   ar
    36    29    34   ar
    37    34    35   ar
    38    27    35   ar
    39     1    36    1
    40     1    37    1
    41     1    38    1
    42     4    39    1
    43     6    40    1
    44     9    41    1
    45    13    42    1
    46    14    43    1
    47    15    44    1
    48    17    45    1
    49    17    46    1
    50    17    47    1
    51    20    48    1
    52    20    49    1
    53    20    50    1
    54    21    51    1
    55    22    52    1
    56    24    53    1
    57    28    54    1
    58    30    55    1
    59    31    56    1
    60    32    57    1
    61    33    58    1
