REMARK  4 active torsions:
REMARK  status: ('A' for Active; 'I' for Inactive)
REMARK    1  A    between atoms: C_5  and  N_6 
REMARK       I    between atoms: N_6  and  C_7 
REMARK    2  A    between atoms: C_7  and  C_9 
REMARK    3  A    between atoms: C_12  and  N_13 
REMARK    4  A    between atoms: N_13  and  C_14 
ROOT
ATOM      1  C   UNL d   1      -3.530   2.463  -1.133  0.00  0.00     0.032 A 
ATOM      2  C   UNL d   1      -4.064   3.740  -1.227  0.00  0.00     0.019 A 
ATOM      3  C   UNL d   1      -3.425   4.824  -2.248  0.00  0.00     0.030 A 
ATOM      4  C   UNL d   1      -2.114   4.632  -3.169  0.00  0.00     0.030 A 
ATOM      5  C   UNL d   1      -1.779   3.300  -2.976  0.00  0.00     0.030 A 
ATOM      6  C   UNL d   1      -2.474   2.300  -2.064  0.00  0.00     0.019 A 
ENDROOT
BRANCH   4   7
ATOM      7  N   UNL d   1      -1.179   5.592  -4.351  0.00  0.00    -0.353 N 
ATOM      8  H   UNL d   1      -1.879   6.363  -4.422  0.00  0.00     0.162 HD
BRANCH   7   9
ATOM      9  C   UNL d   1       0.260   6.166  -5.257  0.00  0.00     0.227 C 
ATOM     10  N   UNL d   1      -0.812   6.690  -5.845  0.00  0.00    -0.149 NA
ATOM     11  N   UNL d   1      -0.980   6.222  -6.943  0.00  0.00    -0.157 NA
ATOM     12  C   UNL d   1      -0.183   6.913  -7.686  0.00  0.00     0.063 C 
ATOM     13  C   UNL d   1      -0.303   8.481  -7.446  0.00  0.00     0.073 C 
ATOM     14  C   UNL d   1       1.044   6.296  -7.798  0.00  0.00     0.001 C 
ATOM     15  C   UNL d   1       2.125   5.140  -7.989  0.00  0.00     0.014 C 
ATOM     16  C   UNL d   1       1.398   6.814  -6.692  0.00  0.00     0.011 C 
ATOM     17  C   UNL d   1       3.414   5.342  -8.550  0.00  0.00     0.001 C 
ATOM     18  C   UNL d   1       3.544   6.615  -8.901  0.00  0.00     0.001 C 
ATOM     19  C   UNL d   1       2.639   7.363  -7.920  0.00  0.00     0.013 C 
ENDBRANCH   7   9
ENDBRANCH   4   7
BRANCH   1  20
ATOM     20  C   UNL d   1      -3.975   1.318  -0.135  0.00  0.00     0.256 C 
ATOM     21  N   UNL d   1      -3.231   0.118  -0.087  0.00  0.00    -0.323 N 
ATOM     22  H   UNL d   1      -3.760  -0.741   0.061  0.00  0.00     0.169 HD
ATOM     23  O   UNL d   1      -4.988   1.420   0.560  0.00  0.00    -0.267 OA
BRANCH  21  24
ATOM     24  C   UNL d   1      -1.820   0.031   0.038  0.00  0.00     0.035 C 
ATOM     25  C   UNL d   1      -1.150  -1.193   0.014  0.00  0.00     0.030 C 
ATOM     26  C   UNL d   1       0.257  -1.214   0.011  0.00  0.00     0.009 C 
ATOM     27  C   UNL d   1       0.999  -0.025   0.010  0.00  0.00    -0.062 C 
ATOM     28  C   UNL d   1       2.493  -0.011  -0.018  0.00  0.00     0.048 C 
ATOM     29  C   UNL d   1       0.326   1.183   0.060  0.00  0.00     0.009 C 
ATOM     30  C   UNL d   1      -1.054   1.192   0.154  0.00  0.00     0.030 C 
ENDBRANCH  21  24
ENDBRANCH   1  20
TORSDOF 4
