@<TRIPOS>MOLECULE
*****
 70 75 0 0 0
SMALL
GASTEIGER

@<TRIPOS>ATOM
      1 C           1.0834    0.0102   -0.0934 C.3     1  UNL1        0.0788
      2 O           2.4997   -0.0090   -0.1965 O.3     1  UNL1       -0.4951
      3 C           3.1240    1.1822    0.0302 C.ar    1  UNL1        0.1202
      4 C           4.2631    1.4084   -0.7320 C.ar    1  UNL1       -0.0182
      5 C           5.0803    2.4926   -0.4441 C.ar    1  UNL1       -0.0372
      6 C           4.7751    3.3845    0.5918 C.ar    1  UNL1        0.0302
      7 N           5.6688    4.3752    0.8900 N.pl3   1  UNL1       -0.3198
      8 C           6.0324    4.8421    2.2095 C.3     1  UNL1        0.0525
      9 C           5.5960    6.2982    2.4884 C.3     1  UNL1       -0.0147
     10 N           6.1215    7.3018    1.4432 N.4     1  UNL1        0.2486
     11 C           5.6049    9.0186    1.7486 C.3     1  UNL1        0.0727
     12 C           5.7537    9.3337    3.2843 C.ar    1  UNL1        0.0725
     13 C           5.3817    8.5569    4.3448 C.ar    1  UNL1       -0.0383
     14 C           5.5637    8.9573    5.7564 C.ar    1  UNL1        0.0027
     15 C           5.7907    8.1682    6.9128 C.ar    1  UNL1       -0.0070
     16 C           6.1813    8.8336    8.1066 C.ar    1  UNL1        0.1669
     17 C           6.7102   10.0798    7.9592 C.ar    1  UNL1        0.1682
     18 C           5.9967   10.8813    7.0802 C.ar    1  UNL1        0.0078
     19 C           5.5131   10.3251    5.9248 C.ar    1  UNL1        0.0529
     20 N           5.2930   11.1461    4.8071 N.ar    1  UNL1       -0.3216
     21 C           6.0847   10.7456    3.7256 C.ar    1  UNL1        0.2582
     22 O           6.9792   11.4051    3.3141 O.2     1  UNL1       -0.2674
     23 O           7.1239   10.5868    9.1680 O.3     1  UNL1       -0.4525
     24 C           5.8611   10.3982    9.7803 C.3     1  UNL1        0.2332
     25 O           5.3028    9.1104    9.2629 O.3     1  UNL1       -0.4526
     26 C           6.0516   10.2548    0.6437 C.ar    1  UNL1        0.2048
     27 N           6.4498   11.4733    0.9864 N.ar    1  UNL1       -0.1071
     28 N           6.7137   12.2114   -0.1359 N.ar    1  UNL1       -0.0228
     29 N           6.4063   11.5324   -1.2152 N.ar    1  UNL1       -0.0432
     30 N           5.8856   10.3847   -0.7693 N.ar    1  UNL1       -0.2188
     31 C           5.3978    9.4560   -1.7806 C.3     1  UNL1        0.0591
     32 C           4.1831    9.8109   -2.6019 C.3     1  UNL1       -0.0401
     33 C           6.5751    8.8093   -2.5672 C.3     1  UNL1       -0.0401
     34 C           4.7219    8.4331   -0.9883 C.3     1  UNL1       -0.0401
     35 C           5.7880    6.5336    0.1150 C.3     1  UNL1       -0.0147
     36 C           6.2440    5.1374   -0.1633 C.3     1  UNL1        0.0525
     37 C           3.5856    3.1934    1.2955 C.ar    1  UNL1       -0.0372
     38 C           2.7705    2.0879    1.0289 C.ar    1  UNL1       -0.0182
     39 H           0.7317   -1.0178   -0.2177 H       1  UNL1        0.0660
     40 H           0.6641    0.6190   -0.8994 H       1  UNL1        0.0660
     41 H           0.7277    0.3550    0.8811 H       1  UNL1        0.0660
     42 H           4.5463    0.7214   -1.5243 H       1  UNL1        0.0655
     43 H           6.0173    2.5903   -0.9879 H       1  UNL1        0.0637
     44 H           7.1279    4.8544    2.2281 H       1  UNL1        0.0516
     45 H           5.6787    4.1688    2.9864 H       1  UNL1        0.0516
     46 H           6.0854    6.5355    3.4237 H       1  UNL1        0.0830
     47 H           4.5017    6.4051    2.5108 H       1  UNL1        0.0830
     48 H           7.1392    7.3857    1.5164 H       1  UNL1        0.2046
     49 H           4.5122    8.9523    1.6280 H       1  UNL1        0.0991
     50 H           4.7913    7.6645    4.2477 H       1  UNL1        0.0631
     51 H           6.1628    7.1481    6.7322 H       1  UNL1        0.0662
     52 H           5.7294   11.8927    7.3478 H       1  UNL1        0.0676
     53 H           5.3422   12.1396    4.9999 H       1  UNL1        0.1689
     54 H           5.2761   11.2860    9.4639 H       1  UNL1        0.1166
     55 H           5.9195   10.5026   10.8714 H       1  UNL1        0.1166
     56 H           4.3631   10.6246   -3.2839 H       1  UNL1        0.0253
     57 H           3.3495   10.0598   -1.9252 H       1  UNL1        0.0253
     58 H           3.8608    8.9124   -3.1578 H       1  UNL1        0.0253
     59 H           7.0102    9.5080   -3.2843 H       1  UNL1        0.0253
     60 H           6.2567    7.9096   -3.1109 H       1  UNL1        0.0253
     61 H           7.4001    8.4837   -1.9102 H       1  UNL1        0.0253
     62 H           3.9009    8.6832   -0.3159 H       1  UNL1        0.0253
     63 H           5.5490    8.3541   -0.3385 H       1  UNL1        0.0253
     64 H           4.5015    7.5345   -1.5656 H       1  UNL1        0.0253
     65 H           6.3699    6.9772   -0.6882 H       1  UNL1        0.0830
     66 H           4.6808    6.4989    0.0840 H       1  UNL1        0.0830
     67 H           7.3345    5.1216   -0.1840 H       1  UNL1        0.0516
     68 H           5.8747    4.8955   -1.1771 H       1  UNL1        0.0516
     69 H           3.2756    3.8826    2.0750 H       1  UNL1        0.0637
     70 H           1.8992    1.9280    1.6543 H       1  UNL1        0.0655
@<TRIPOS>UNITY_ATOM_ATTR
10 1
charge 1
@<TRIPOS>BOND
     1     1     2    1
     2     2     3    1
     3     3     4   ar
     4     4     5   ar
     5     5     6   ar
     6     6     7    1
     7     7     8    1
     8     8     9    1
     9     9    10    1
    10    10    11    1
    11    11    12    1
    12    12    13   ar
    13    13    14   ar
    14    14    15   ar
    15    15    16   ar
    16    16    17   ar
    17    17    18   ar
    18    18    19   ar
    19    14    19   ar
    20    19    20   ar
    21    20    21   ar
    22    12    21   ar
    23    21    22    2
    24    17    23    1
    25    23    24    1
    26    24    25    1
    27    16    25    1
    28    11    26    1
    29    26    27   ar
    30    27    28   ar
    31    28    29   ar
    32    29    30   ar
    33    26    30   ar
    34    30    31    1
    35    31    32    1
    36    31    33    1
    37    31    34    1
    38    10    35    1
    39    35    36    1
    40     7    36    1
    41     6    37   ar
    42    37    38   ar
    43     3    38   ar
    44     1    39    1
    45     1    40    1
    46     1    41    1
    47     4    42    1
    48     5    43    1
    49     8    44    1
    50     8    45    1
    51     9    46    1
    52     9    47    1
    53    10    48    1
    54    11    49    1
    55    13    50    1
    56    15    51    1
    57    18    52    1
    58    20    53    1
    59    24    54    1
    60    24    55    1
    61    32    56    1
    62    32    57    1
    63    32    58    1
    64    33    59    1
    65    33    60    1
    66    33    61    1
    67    34    62    1
    68    34    63    1
    69    34    64    1
    70    35    65    1
    71    35    66    1
    72    36    67    1
    73    36    68    1
    74    37    69    1
    75    38    70    1
