@<TRIPOS>MOLECULE
*****
 63 66 0 0 0
SMALL
GASTEIGER

@<TRIPOS>ATOM
      1 O           1.0753   -0.1638    0.0783 O.2     1  UNL1       -0.2525
      2 C           2.2922   -0.2095   -0.1318 C.2     1  UNL1        0.3039
      3 N           2.9024    0.4529   -1.1642 N.am    1  UNL1       -0.2988
      4 C           2.2561    1.5133   -1.9408 C.3     1  UNL1        0.0170
      5 C           3.2446    2.3674   -2.7973 C.3     1  UNL1       -0.0120
      6 C           2.5663    3.3798   -3.6699 C.ar    1  UNL1       -0.0459
      7 C           2.9339    4.7384   -3.6426 C.ar    1  UNL1       -0.0585
      8 C           2.2330    5.6625   -4.4121 C.ar    1  UNL1       -0.0615
      9 C           1.2227    5.2212   -5.2641 C.ar    1  UNL1       -0.0617
     10 C           0.8764    3.8721   -5.3090 C.ar    1  UNL1       -0.0615
     11 C           1.5447    2.9562   -4.5135 C.ar    1  UNL1       -0.0585
     12 N           3.1078   -1.0007    0.6507 N.am    1  UNL1       -0.2678
     13 C           4.5146   -0.9053    0.8519 C.ar    1  UNL1        0.0576
     14 C           5.2522   -2.0972    1.0687 C.ar    1  UNL1       -0.0174
     15 C           6.6425   -2.0409    1.2797 C.ar    1  UNL1        0.0355
     16 N           7.3855   -3.1900    1.6746 N.am    1  UNL1       -0.2814
     17 C           8.7272   -3.1733    2.0464 C.2     1  UNL1        0.2497
     18 O           9.4677   -2.1827    2.0829 O.2     1  UNL1       -0.2698
     19 C           9.3924   -4.4242    2.4637 C.ar    1  UNL1        0.0553
     20 C          10.3859   -4.2991    3.4615 C.ar    1  UNL1       -0.0482
     21 C          11.2524   -5.3528    3.7441 C.ar    1  UNL1       -0.0610
     22 C          11.0909   -6.5645    3.0827 C.ar    1  UNL1       -0.0603
     23 C          10.0926   -6.7062    2.1146 C.ar    1  UNL1       -0.0427
     24 C           9.2447   -5.6392    1.7950 C.ar    1  UNL1        0.0531
     25 CL          8.0896   -5.8984    0.5394 Cl      1  UNL1       -0.0828
     26 C           7.2744   -0.8088    1.1330 C.ar    1  UNL1       -0.0386
     27 C           6.5567    0.3637    0.9728 C.ar    1  UNL1       -0.0371
     28 C           5.1704    0.3495    0.8992 C.ar    1  UNL1        0.0514
     29 N           4.5453    1.5740    1.0288 N.pl3   1  UNL1       -0.3285
     30 C           4.5765    2.5608   -0.0259 C.3     1  UNL1        0.0122
     31 C           4.7187    3.9739    0.4677 C.3     1  UNL1       -0.0372
     32 C           3.6692    4.2236    1.5548 C.3     1  UNL1       -0.0502
     33 C           3.6689    3.1075    2.6090 C.3     1  UNL1       -0.0372
     34 C           3.4602    1.7371    1.9794 C.3     1  UNL1        0.0122
     35 H           3.8983    0.5231   -1.0312 H       1  UNL1        0.1502
     36 H           1.6855    2.1652   -1.2610 H       1  UNL1        0.0466
     37 H           1.5233    1.0059   -2.5674 H       1  UNL1        0.0466
     38 H           3.9196    1.7282   -3.3743 H       1  UNL1        0.0328
     39 H           3.9120    2.9810   -2.1976 H       1  UNL1        0.0328
     40 H           3.7565    5.0930   -3.0220 H       1  UNL1        0.0620
     41 H           2.4682    6.7219   -4.3460 H       1  UNL1        0.0618
     42 H           0.7039    5.9287   -5.9022 H       1  UNL1        0.0618
     43 H           0.0783    3.5231   -5.9546 H       1  UNL1        0.0618
     44 H           1.2640    1.9073   -4.5453 H       1  UNL1        0.0620
     45 H           2.6033   -1.5953    1.2966 H       1  UNL1        0.1564
     46 H           4.7389   -3.0560    1.0369 H       1  UNL1        0.0655
     47 H           6.8829   -4.0685    1.7489 H       1  UNL1        0.1551
     48 H          10.5151   -3.3538    3.9915 H       1  UNL1        0.0625
     49 H          12.0670   -5.2164    4.4527 H       1  UNL1        0.0618
     50 H          11.7489   -7.3988    3.3128 H       1  UNL1        0.0618
     51 H          10.0028   -7.6496    1.5821 H       1  UNL1        0.0632
     52 H           8.3471   -0.6904    1.1896 H       1  UNL1        0.0637
     53 H           7.0955    1.3059    1.0215 H       1  UNL1        0.0637
     54 H           3.5612    2.5900   -0.3927 H       1  UNL1        0.0464
     55 H           5.2701    2.3143   -0.8381 H       1  UNL1        0.0464
     56 H           4.5398    4.6630   -0.3712 H       1  UNL1        0.0280
     57 H           5.7354    4.1322    0.8271 H       1  UNL1        0.0280
     58 H           2.6711    4.2783    1.0943 H       1  UNL1        0.0266
     59 H           3.8641    5.1898    2.0225 H       1  UNL1        0.0266
     60 H           2.8860    3.2802    3.3486 H       1  UNL1        0.0280
     61 H           4.6413    3.1082    3.1140 H       1  UNL1        0.0280
     62 H           2.4825    1.7103    1.4852 H       1  UNL1        0.0464
     63 H           3.4767    0.9557    2.7458 H       1  UNL1        0.0464
@<TRIPOS>BOND
     1     1     2    2
     2     2     3   am
     3     3     4    1
     4     4     5    1
     5     5     6    1
     6     6     7   ar
     7     7     8   ar
     8     8     9   ar
     9     9    10   ar
    10    10    11   ar
    11     6    11   ar
    12     2    12   am
    13    12    13    1
    14    13    14   ar
    15    14    15   ar
    16    15    16    1
    17    16    17   am
    18    17    18    2
    19    17    19    1
    20    19    20   ar
    21    20    21   ar
    22    21    22   ar
    23    22    23   ar
    24    23    24   ar
    25    19    24   ar
    26    24    25    1
    27    15    26   ar
    28    26    27   ar
    29    27    28   ar
    30    13    28   ar
    31    28    29    1
    32    29    30    1
    33    30    31    1
    34    31    32    1
    35    32    33    1
    36    33    34    1
    37    29    34    1
    38     3    35    1
    39     4    36    1
    40     4    37    1
    41     5    38    1
    42     5    39    1
    43     7    40    1
    44     8    41    1
    45     9    42    1
    46    10    43    1
    47    11    44    1
    48    12    45    1
    49    14    46    1
    50    16    47    1
    51    20    48    1
    52    21    49    1
    53    22    50    1
    54    23    51    1
    55    26    52    1
    56    27    53    1
    57    30    54    1
    58    30    55    1
    59    31    56    1
    60    31    57    1
    61    32    58    1
    62    32    59    1
    63    33    60    1
    64    33    61    1
    65    34    62    1
    66    34    63    1
