REMARK  3 active torsions:
REMARK  status: ('A' for Active; 'I' for Inactive)
REMARK    1  A    between atoms: C_2  and  C_4 
REMARK    2  A    between atoms: C_6  and  C_7 
REMARK       I    between atoms: C_7  and  N_9 
REMARK    3  A    between atoms: N_9  and  C_10 
ROOT
ATOM      1  C   UNL d   1       4.919  -3.633   2.892  0.00  0.00     0.282 C 
ATOM      2  O   UNL d   1       4.815  -4.862   2.936  0.00  0.00    -0.265 OA
ATOM      3  N   UNL d   1       5.742  -2.907   3.763  0.00  0.00    -0.320 N 
ATOM      4  H   UNL d   1       5.594  -1.913   3.871  0.00  0.00     0.169 HD
ENDROOT
BRANCH   3   5
ATOM      5  C   UNL d   1       6.534  -3.544   4.748  0.00  0.00     0.047 A 
ATOM      6  C   UNL d   1       7.262  -4.693   4.408  0.00  0.00     0.030 A 
ATOM      7  C   UNL d   1       7.985  -5.402   5.360  0.00  0.00     0.005 A 
ATOM      8  C   UNL d   1       8.000  -4.998   6.694  0.00  0.00     0.030 A 
ATOM      9  C   UNL d   1       7.326  -3.815   7.021  0.00  0.00     0.044 A 
ATOM     10  N   UNL d   1       7.195  -3.188   8.241  0.00  0.00    -0.365 N 
ATOM     11  C   UNL d   1       6.621  -3.056   6.076  0.00  0.00     0.019 A 
ATOM     12  C   UNL d   1       6.481  -2.029   8.100  0.00  0.00     0.089 A 
ATOM     13  H   UNL d   1       7.581  -3.536   9.110  0.00  0.00     0.165 HD
ATOM     14  C   UNL d   1       6.090  -1.935   6.782  0.00  0.00     0.033 A 
ENDBRANCH   3   5
BRANCH   1  15
ATOM     15  C   UNL d   1       4.153  -2.844   1.957  0.00  0.00     0.171 A 
ATOM     16  C   UNL d   1       4.063  -1.496   1.718  0.00  0.00     0.075 A 
ATOM     17  C   UNL d   1       3.111  -1.358   0.681  0.00  0.00     0.068 A 
ATOM     18  N   UNL d   1       2.676  -2.557   0.273  0.00  0.00    -0.132 NA
ATOM     19  O   UNL d   1       3.315  -3.485   1.086  0.00  0.00    -0.207 OA
BRANCH  17  20
ATOM     20  C   UNL d   1       2.589  -0.080   0.081  0.00  0.00     0.032 C 
ATOM     21  C   UNL d   1       1.059  -0.051   0.044  0.00  0.00     0.016 C 
ATOM     22  C   UNL d   1       3.085   1.138   0.875  0.00  0.00     0.016 C 
ENDBRANCH  17  20
ENDBRANCH   1  15
TORSDOF 3
