@<TRIPOS>MOLECULE
*****
 55 59 0 0 0
SMALL
GASTEIGER

@<TRIPOS>ATOM
      1 O           6.0624    3.3877   -2.0578 O.2     1  UNL1       -0.2755
      2 C           5.5719    2.4106   -2.6046 C.2     1  UNL1        0.2162
      3 N           4.2189    2.3176   -2.8502 N.am    1  UNL1       -0.3148
      4 C           3.2675    3.2907   -2.4151 C.3     1  UNL1        0.0155
      5 C           1.8414    2.7857   -2.6554 C.3     1  UNL1       -0.0092
      6 C           0.8382    3.7966   -2.2363 C.2     1  UNL1        0.0091
      7 C           0.6399    4.2608   -0.9988 C.ar    1  UNL1        0.0509
      8 C           1.2466    4.0003    0.2608 C.ar    1  UNL1       -0.0482
      9 C           0.7940    4.6618    1.3363 C.ar    1  UNL1       -0.0608
     10 C          -0.3047    5.6104    1.2360 C.ar    1  UNL1       -0.0555
     11 C          -0.9308    5.9098    0.0827 C.ar    1  UNL1        0.0098
     12 C          -0.4645    5.2288   -1.1452 C.ar    1  UNL1        0.2086
     13 N          -0.8651    5.3266   -2.3425 N.2     1  UNL1       -0.2369
     14 C          -0.0847    4.4367   -3.2261 C.3     1  UNL1        0.1661
     15 C           6.4101    1.1888   -3.0315 C.3     1  UNL1        0.0379
     16 C           5.5978    0.1770   -3.8506 C.3     1  UNL1       -0.0290
     17 C           4.6247   -0.6482   -2.9697 C.3     1  UNL1        0.0020
     18 N           5.2680   -1.3372   -1.8597 N.3     1  UNL1       -0.2757
     19 C           6.0091   -2.5625   -2.2512 C.3     1  UNL1        0.1289
     20 N           6.7906   -2.6338   -3.4887 N.pl3   1  UNL1       -0.3178
     21 C           6.7865   -3.8704   -4.1224 C.ar    1  UNL1        0.0612
     22 C           7.4304   -4.2012   -5.3138 C.ar    1  UNL1       -0.0368
     23 C           7.4603   -5.5408   -5.7239 C.ar    1  UNL1       -0.0418
     24 C           6.6894   -6.4623   -5.0243 C.ar    1  UNL1        0.0290
     25 N           5.9151   -6.1417   -3.9562 N.ar    1  UNL1       -0.2468
     26 C           5.9988   -4.8567   -3.5421 C.ar    1  UNL1        0.1206
     27 S           4.9938   -4.1263   -2.2438 S.3     1  UNL1       -0.0657
     28 C           6.0319   -0.3508   -1.0527 C.3     1  UNL1        0.0020
     29 C           7.0613    0.4752   -1.8355 C.3     1  UNL1       -0.0290
     30 H           3.8586    1.6142   -3.4699 H       1  UNL1        0.1487
     31 H           3.4559    4.2111   -2.9735 H       1  UNL1        0.0465
     32 H           3.4603    3.4818   -1.3570 H       1  UNL1        0.0465
     33 H           1.6541    1.8444   -2.1191 H       1  UNL1        0.0327
     34 H           1.7014    2.5442   -3.7179 H       1  UNL1        0.0327
     35 H           2.0610    3.2893    0.3503 H       1  UNL1        0.0626
     36 H           1.2452    4.4883    2.3110 H       1  UNL1        0.0618
     37 H          -0.6091    6.0760    2.1727 H       1  UNL1        0.0620
     38 H          -1.7499    6.6177    0.0539 H       1  UNL1        0.0683
     39 H          -1.6320    5.9372   -2.6402 H       1  UNL1        0.4459
     40 H           0.4508    5.0408   -3.9638 H       1  UNL1        0.1077
     41 H          -0.7543    3.7143   -3.6985 H       1  UNL1        0.1077
     42 H           7.2128    1.5949   -3.6643 H       1  UNL1        0.0395
     43 H           6.2865   -0.4766   -4.3807 H       1  UNL1        0.0285
     44 H           5.0623    0.6883   -4.6585 H       1  UNL1        0.0285
     45 H           4.0134   -1.3096   -3.5881 H       1  UNL1        0.0428
     46 H           3.8819   -0.0012   -2.4860 H       1  UNL1        0.0428
     47 H           6.6285   -2.7759   -1.3758 H       1  UNL1        0.0794
     48 H           7.4259   -1.9065   -3.7604 H       1  UNL1        0.1484
     49 H           7.8970   -3.4558   -5.9518 H       1  UNL1        0.0637
     50 H           8.0688   -5.8636   -6.5672 H       1  UNL1        0.0633
     51 H           6.6529   -7.5034   -5.3441 H       1  UNL1        0.0830
     52 H           6.5044   -0.8265   -0.1858 H       1  UNL1        0.0428
     53 H           5.3253    0.3705   -0.6096 H       1  UNL1        0.0428
     54 H           7.8585   -0.1938   -2.1840 H       1  UNL1        0.0285
     55 H           7.5495    1.2038   -1.1726 H       1  UNL1        0.0285
@<TRIPOS>UNITY_ATOM_ATTR
13 1
charge 1
@<TRIPOS>BOND
     1     1     2    2
     2     2     3   am
     3     3     4    1
     4     4     5    1
     5     5     6    1
     6     6     7    2
     7     7     8   ar
     8     8     9   ar
     9     9    10   ar
    10    10    11   ar
    11    11    12   ar
    12     7    12   ar
    13    12    13    2
    14    13    14    1
    15     6    14    1
    16     2    15    1
    17    15    16    1
    18    16    17    1
    19    17    18    1
    20    19    20    1
    21    20    21    1
    22    21    22   ar
    23    22    23   ar
    24    23    24   ar
    25    24    25   ar
    26    25    26   ar
    27    21    26   ar
    28    26    27    1
    29    19    27    1
    30    18    28    1
    31    28    29    1
    32    15    29    1
    33    19    18    1
    34     3    30    1
    35     4    31    1
    36     4    32    1
    37     5    33    1
    38     5    34    1
    39     8    35    1
    40     9    36    1
    41    10    37    1
    42    11    38    1
    43    13    39    1
    44    14    40    1
    45    14    41    1
    46    15    42    1
    47    16    43    1
    48    16    44    1
    49    17    45    1
    50    17    46    1
    51    19    47    1
    52    20    48    1
    53    22    49    1
    54    23    50    1
    55    24    51    1
    56    28    52    1
    57    28    53    1
    58    29    54    1
    59    29    55    1
