@<TRIPOS>MOLECULE
*****
 60 63 0 0 0
SMALL
GASTEIGER

@<TRIPOS>ATOM
      1 C           1.1114    0.2206    0.5094 C.3     1  UNL1        0.0790
      2 O           2.4827    0.1635    0.1187 O.3     1  UNL1       -0.4914
      3 C           2.9892   -0.9526   -0.5134 C.ar    1  UNL1        0.1623
      4 C           4.1213   -1.4825    0.1425 C.ar    1  UNL1       -0.0023
      5 C           4.9540   -2.4326   -0.4769 C.ar    1  UNL1        0.0627
      6 C           6.2568   -2.7702    0.1241 C.2     1  UNL1        0.3397
      7 O           6.6858   -2.2937    1.1936 O.2     1  UNL1       -0.2449
      8 O           6.9557   -3.6077   -0.6688 O.3     1  UNL1       -0.4531
      9 C           8.2432   -3.9034   -0.1462 C.3     1  UNL1        0.1550
     10 C           9.0215   -4.8912   -0.9874 C.2     1  UNL1        0.2034
     11 O           8.4352   -5.3155   -1.9863 O.2     1  UNL1       -0.2885
     12 C          10.4243   -5.3958   -0.6522 C.2     1  UNL1        0.0786
     13 C          10.9808   -6.2082   -1.5694 C.ar    1  UNL1        0.0586
     14 C          10.5173   -6.7053   -2.8249 C.ar    1  UNL1       -0.0477
     15 C          11.1950   -7.6361   -3.4912 C.ar    1  UNL1       -0.0608
     16 C          12.4936   -8.0637   -3.0382 C.ar    1  UNL1       -0.0555
     17 C          13.0648   -7.6088   -1.8989 C.ar    1  UNL1        0.0098
     18 C          12.3279   -6.5694   -1.0940 C.ar    1  UNL1        0.2092
     19 N          12.6459   -5.8908   -0.0445 N.2     1  UNL1       -0.2341
     20 C          11.4486   -5.0224    0.4140 C.3     1  UNL1        0.1801
     21 C          10.8649   -4.0804    1.4686 C.3     1  UNL1        0.0021
     22 C           4.5989   -2.9607   -1.7161 C.ar    1  UNL1       -0.0441
     23 C           3.4888   -2.4481   -2.3738 C.ar    1  UNL1       -0.0155
     24 C           2.6955   -1.4270   -1.8122 C.ar    1  UNL1        0.1626
     25 O           1.7642   -1.0143   -2.7352 O.3     1  UNL1       -0.4791
     26 C           0.7918   -0.1253   -2.2652 C.3     1  UNL1        0.1656
     27 C          -0.3648    0.2890   -3.1510 C.2     1  UNL1        0.2548
     28 O          -0.5324   -0.2543   -4.2397 O.2     1  UNL1       -0.2717
     29 N          -1.2040    1.2828   -2.6140 N.am    1  UNL1       -0.2827
     30 C          -2.3757    1.6593   -3.3070 C.ar    1  UNL1        0.0337
     31 C          -2.7731    2.9958   -3.4202 C.ar    1  UNL1       -0.0378
     32 C          -3.9254    3.3075   -4.1585 C.ar    1  UNL1       -0.0247
     33 C          -4.6425    2.2940   -4.7916 C.ar    1  UNL1        0.1235
     34 F          -5.6957    2.6007   -5.5589 F       1  UNL1       -0.2055
     35 C          -4.2723    0.9678   -4.6533 C.ar    1  UNL1       -0.0247
     36 C          -3.1493    0.6561   -3.9006 C.ar    1  UNL1       -0.0378
     37 H           0.9873    0.8953    1.3579 H       1  UNL1        0.0660
     38 H           0.6733   -0.7592    0.7180 H       1  UNL1        0.0660
     39 H           0.5194    0.7629   -0.2274 H       1  UNL1        0.0660
     40 H           4.3914   -1.1114    1.1313 H       1  UNL1        0.0663
     41 H           8.0814   -4.3831    0.8234 H       1  UNL1        0.0782
     42 H           8.8007   -2.9613   -0.1422 H       1  UNL1        0.0782
     43 H           9.6142   -6.3358   -3.2873 H       1  UNL1        0.0626
     44 H          10.7545   -8.0381   -4.4010 H       1  UNL1        0.0618
     45 H          12.9973   -8.7420   -3.7292 H       1  UNL1        0.0620
     46 H          14.0543   -7.9722   -1.6410 H       1  UNL1        0.0683
     47 H          13.5041   -6.1299    0.4657 H       1  UNL1        0.4462
     48 H          11.6742   -5.5548    1.3380 H       1  UNL1        0.1115
     49 H           9.8862   -3.7592    1.1747 H       1  UNL1        0.0297
     50 H          11.3405   -3.1249    1.6546 H       1  UNL1        0.0297
     51 H          10.5439   -4.5879    2.4046 H       1  UNL1        0.0297
     52 H           5.1939   -3.7299   -2.2045 H       1  UNL1        0.0627
     53 H           3.2662   -2.8110   -3.3771 H       1  UNL1        0.0655
     54 H           1.3087    0.8025   -2.0020 H       1  UNL1        0.0795
     55 H           0.2699   -0.6727   -1.4761 H       1  UNL1        0.0795
     56 H          -0.9329    1.8464   -1.8137 H       1  UNL1        0.1549
     57 H          -2.1680    3.8108   -3.0308 H       1  UNL1        0.0637
     58 H          -4.2651    4.3334   -4.2685 H       1  UNL1        0.0647
     59 H          -4.8413    0.1780   -5.1292 H       1  UNL1        0.0647
     60 H          -2.8742   -0.3889   -3.7850 H       1  UNL1        0.0637
@<TRIPOS>UNITY_ATOM_ATTR
19 1
charge 1
@<TRIPOS>BOND
     1     1     2    1
     2     2     3    1
     3     3     4   ar
     4     4     5   ar
     5     5     6    1
     6     6     7    2
     7     6     8    1
     8     8     9    1
     9     9    10    1
    10    10    11    2
    11    10    12    1
    12    12    13    2
    13    13    14   ar
    14    14    15   ar
    15    15    16   ar
    16    16    17   ar
    17    17    18   ar
    18    13    18   ar
    19    18    19    2
    20    19    20    1
    21    12    20    1
    22    20    21    1
    23     5    22   ar
    24    22    23   ar
    25    23    24   ar
    26     3    24   ar
    27    24    25    1
    28    25    26    1
    29    26    27    1
    30    27    28    2
    31    27    29   am
    32    29    30    1
    33    30    31   ar
    34    31    32   ar
    35    32    33   ar
    36    33    34    1
    37    33    35   ar
    38    35    36   ar
    39    30    36   ar
    40     1    37    1
    41     1    38    1
    42     1    39    1
    43     4    40    1
    44     9    41    1
    45     9    42    1
    46    14    43    1
    47    15    44    1
    48    16    45    1
    49    17    46    1
    50    19    47    1
    51    20    48    1
    52    21    49    1
    53    21    50    1
    54    21    51    1
    55    22    52    1
    56    23    53    1
    57    26    54    1
    58    26    55    1
    59    29    56    1
    60    31    57    1
    61    32    58    1
    62    35    59    1
    63    36    60    1
