@<TRIPOS>MOLECULE
*****
 38 41 0 0 0
SMALL
GASTEIGER

@<TRIPOS>ATOM
      1 O           3.6685   -3.5705   -0.0352 O.2     1  UNL1       -0.2703
      2 C           2.7296   -2.8014    0.1578 C.2     1  UNL1        0.2719
      3 N           1.4414   -3.2345    0.4711 N.am    1  UNL1       -0.2287
      4 N           1.0949   -4.6793    0.5754 N.3     1  UNL1       -0.1077
      5 S          -0.5560   -4.9993    0.9324 S.O2    1  UNL1        0.0757
      6 O          -0.7208   -4.5459    2.2938 O.2     1  UNL1       -0.1516
      7 O          -1.3124   -4.4179   -0.1614 O.2     1  UNL1       -0.1516
      8 C          -0.7980   -6.7398    0.8981 C.ar    1  UNL1        0.1348
      9 C           0.1882   -7.6579    0.4804 C.ar    1  UNL1       -0.0330
     10 C          -0.0091   -9.0656    0.5016 C.ar    1  UNL1       -0.0577
     11 C          -1.2041   -9.6768    0.9193 C.ar    1  UNL1       -0.0334
     12 C          -2.2425   -8.7997    1.3067 C.ar    1  UNL1        0.1018
     13 N          -3.4659   -9.1785    1.7052 N.ar    1  UNL1       -0.1907
     14 S          -4.3052   -7.7855    2.0303 S.2     1  UNL1        0.1165
     15 N          -3.1468   -6.6440    1.7016 N.ar    1  UNL1       -0.1888
     16 C          -2.0429   -7.2964    1.3005 C.ar    1  UNL1        0.1261
     17 C           2.8448   -1.2551    0.1165 C.3     1  UNL1        0.2103
     18 C           3.5082   -0.7577    1.3976 C.3     1  UNL1        0.1352
     19 O           3.2902    0.6565    1.5435 O.3     1  UNL1       -0.4841
     20 C           3.5172    1.3240    0.3640 C.ar    1  UNL1        0.1621
     21 C           3.5973    2.7165    0.4356 C.ar    1  UNL1       -0.0163
     22 C           3.8348    3.4609   -0.7211 C.ar    1  UNL1       -0.0581
     23 C           3.9840    2.8113   -1.9478 C.ar    1  UNL1       -0.0581
     24 C           3.8932    1.4162   -2.0223 C.ar    1  UNL1       -0.0163
     25 C           3.6477    0.6697   -0.8696 C.ar    1  UNL1        0.1632
     26 O           3.5390   -0.7013   -1.0048 O.3     1  UNL1       -0.4725
     27 H           0.6519   -2.5912    0.5263 H       1  UNL1        0.1707
     28 H           1.8074   -5.2605    1.0271 H       1  UNL1        0.1716
     29 H           1.1462   -7.2981    0.1091 H       1  UNL1        0.0638
     30 H           0.8054   -9.7141    0.1732 H       1  UNL1        0.0619
     31 H          -1.3363  -10.7535    0.9336 H       1  UNL1        0.0640
     32 H           1.8186   -0.8670    0.0612 H       1  UNL1        0.0867
     33 H           4.5919   -0.9371    1.4049 H       1  UNL1        0.0739
     34 H           3.0820   -1.2440    2.2804 H       1  UNL1        0.0739
     35 H           3.4850    3.2229    1.3907 H       1  UNL1        0.0655
     36 H           3.9082    4.5452   -0.6653 H       1  UNL1        0.0619
     37 H           4.1688    3.3943   -2.8476 H       1  UNL1        0.0619
     38 H           4.0004    0.9200   -2.9824 H       1  UNL1        0.0655
@<TRIPOS>BOND
     1     1     2    2
     2     2     3   am
     3     3     4    1
     4     4     5    1
     5     5     6    2
     6     5     7    2
     7     5     8    1
     8     8     9   ar
     9     9    10   ar
    10    10    11   ar
    11    11    12   ar
    12    12    13   ar
    13    13    14   ar
    14    14    15   ar
    15    15    16   ar
    16     8    16   ar
    17    12    16   ar
    18    17    18    1
    19    18    19    1
    20    19    20    1
    21    20    21   ar
    22    21    22   ar
    23    22    23   ar
    24    23    24   ar
    25    24    25   ar
    26    20    25   ar
    27    25    26    1
    28    17    26    1
    29    17     2    1
    30     3    27    1
    31     4    28    1
    32     9    29    1
    33    10    30    1
    34    11    31    1
    35    17    32    1
    36    18    33    1
    37    18    34    1
    38    21    35    1
    39    22    36    1
    40    23    37    1
    41    24    38    1
