@<TRIPOS>MOLECULE
*****
 69 71 0 0 0
SMALL
GASTEIGER

@<TRIPOS>ATOM
      1 C           0.9180    0.0672   -0.0239 C.2     1  UNL1       -0.1005
      2 C           2.2555    0.0490   -0.0747 C.2     1  UNL1       -0.0658
      3 C           2.9468   -0.5057   -1.2658 C.3     1  UNL1        0.0657
      4 O           4.3399   -0.3132   -1.1441 O.3     1  UNL1       -0.3730
      5 C           4.9983   -0.8666   -2.2851 C.3     1  UNL1        0.0790
      6 C           6.4664   -0.8261   -1.9654 C.3     1  UNL1        0.1180
      7 O           6.5399   -1.6903   -0.8405 O.3     1  UNL1       -0.3842
      8 C           7.3460   -1.3951   -3.0646 C.3     1  UNL1       -0.0024
      9 N           8.8517   -1.3427   -2.7434 N.4     1  UNL1        0.2447
     10 C           9.2995   -2.0438   -1.4206 C.3     1  UNL1        0.0278
     11 C           8.8038   -1.4275   -0.1351 C.ar    1  UNL1        0.1564
     12 N           8.8293   -0.1378   -0.0317 N.ar    1  UNL1       -0.2211
     13 C           8.1243    0.3227    1.0314 C.ar    1  UNL1        0.1166
     14 S           8.0164    1.9773    1.3139 S.2     1  UNL1       -0.0617
     15 C           7.1093    1.7447    2.7569 C.ar    1  UNL1        0.1018
     16 C           6.8754    2.9406    3.5368 C.2     1  UNL1        0.3465
     17 O           7.3410    4.0529    3.2705 O.2     1  UNL1       -0.2444
     18 O           6.0935    2.6859    4.6167 O.3     1  UNL1       -0.4581
     19 C           5.7865    3.8012    5.4688 C.3     1  UNL1        0.0978
     20 C           4.9307    4.8133    4.7161 C.3     1  UNL1       -0.0280
     21 C           5.0000    3.2847    6.6734 C.3     1  UNL1       -0.0280
     22 C           6.7646    0.4070    2.9485 C.ar    1  UNL1       -0.0149
     23 C           5.9532   -0.1688    4.0681 C.3     1  UNL1       -0.0376
     24 C           7.3857   -0.4091    1.9373 C.ar    1  UNL1        0.0756
     25 C           7.3574   -1.8459    1.7566 C.ar    1  UNL1        0.2602
     26 O           6.5932   -2.6196    2.3253 O.2     1  UNL1       -0.2671
     27 N           8.2324   -2.2994    0.7868 N.ar    1  UNL1       -0.3061
     28 C           9.6229   -1.8865   -3.9518 C.3     1  UNL1       -0.0203
     29 C          11.0062   -1.2464   -4.0680 C.3     1  UNL1       -0.0096
     30 C          11.7889   -1.8886   -5.2190 C.3     1  UNL1       -0.0480
     31 C          11.8646   -3.4088   -5.0793 C.3     1  UNL1       -0.0527
     32 C          10.4737   -4.0253   -5.0014 C.3     1  UNL1       -0.0480
     33 C           9.7003   -3.4172   -3.8545 C.3     1  UNL1       -0.0096
     34 H           0.3883    0.4754    0.8281 H       1  UNL1        0.0532
     35 H           0.3289   -0.3313   -0.8459 H       1  UNL1        0.0532
     36 H           2.8443    0.4426    0.7507 H       1  UNL1        0.0589
     37 H           2.6285    0.0218   -2.1678 H       1  UNL1        0.0604
     38 H           2.7390   -1.5784   -1.3496 H       1  UNL1        0.0604
     39 H           4.7498   -0.3049   -3.1840 H       1  UNL1        0.0588
     40 H           4.7018   -1.9197   -2.3867 H       1  UNL1        0.0588
     41 H           6.7798    0.1910   -1.6940 H       1  UNL1        0.0670
     42 H           6.3223   -2.6060   -1.0647 H       1  UNL1        0.2101
     43 H           7.1949   -0.8429   -3.9979 H       1  UNL1        0.0841
     44 H           7.1104   -2.4526   -3.2156 H       1  UNL1        0.0841
     45 H           9.0857   -0.3430   -2.6062 H       1  UNL1        0.2042
     46 H          10.3899   -1.9942   -1.3979 H       1  UNL1        0.0897
     47 H           8.9415   -3.0735   -1.4835 H       1  UNL1        0.0897
     48 H           6.7241    4.2452    5.8242 H       1  UNL1        0.0728
     49 H           4.0154    4.3377    4.3478 H       1  UNL1        0.0265
     50 H           5.4406    5.2109    3.8358 H       1  UNL1        0.0265
     51 H           4.6735    5.6589    5.3564 H       1  UNL1        0.0265
     52 H           4.0710    2.7951    6.3577 H       1  UNL1        0.0265
     53 H           4.7416    4.1080    7.3477 H       1  UNL1        0.0265
     54 H           5.5719    2.5403    7.2370 H       1  UNL1        0.0265
     55 H           5.6345    0.5679    4.8009 H       1  UNL1        0.0278
     56 H           6.5453   -0.9088    4.6155 H       1  UNL1        0.0278
     57 H           5.0441   -0.6433    3.6863 H       1  UNL1        0.0278
     58 H           7.9945   -3.2460    0.5204 H       1  UNL1        0.1702
     59 H           9.0520   -1.6029   -4.8474 H       1  UNL1        0.0851
     60 H          11.5749   -1.3675   -3.1405 H       1  UNL1        0.0320
     61 H          10.9131   -0.1687   -4.2495 H       1  UNL1        0.0320
     62 H          12.8003   -1.4711   -5.2564 H       1  UNL1        0.0267
     63 H          11.3015   -1.6433   -6.1710 H       1  UNL1        0.0267
     64 H          12.4325   -3.6622   -4.1742 H       1  UNL1        0.0265
     65 H          12.4009   -3.8404   -5.9293 H       1  UNL1        0.0265
     66 H          10.5488   -5.1062   -4.8395 H       1  UNL1        0.0267
     67 H           9.9271   -3.8633   -5.9356 H       1  UNL1        0.0267
     68 H          10.2307   -3.7188   -2.9443 H       1  UNL1        0.0320
     69 H           8.6984   -3.8561   -3.8083 H       1  UNL1        0.0320
@<TRIPOS>UNITY_ATOM_ATTR
9 1
charge 1
@<TRIPOS>BOND
     1     1     2    2
     2     2     3    1
     3     3     4    1
     4     4     5    1
     5     5     6    1
     6     6     7    1
     7     6     8    1
     8     8     9    1
     9     9    10    1
    10    10    11    1
    11    11    12   ar
    12    12    13   ar
    13    13    14   ar
    14    14    15   ar
    15    15    16    1
    16    16    17    2
    17    16    18    1
    18    18    19    1
    19    19    20    1
    20    19    21    1
    21    15    22   ar
    22    22    23    1
    23    22    24   ar
    24    13    24   ar
    25    24    25   ar
    26    25    26    2
    27    25    27   ar
    28    11    27   ar
    29     9    28    1
    30    28    29    1
    31    29    30    1
    32    30    31    1
    33    31    32    1
    34    32    33    1
    35    28    33    1
    36     1    34    1
    37     1    35    1
    38     2    36    1
    39     3    37    1
    40     3    38    1
    41     5    39    1
    42     5    40    1
    43     6    41    1
    44     7    42    1
    45     8    43    1
    46     8    44    1
    47     9    45    1
    48    10    46    1
    49    10    47    1
    50    19    48    1
    51    20    49    1
    52    20    50    1
    53    20    51    1
    54    21    52    1
    55    21    53    1
    56    21    54    1
    57    23    55    1
    58    23    56    1
    59    23    57    1
    60    27    58    1
    61    28    59    1
    62    29    60    1
    63    29    61    1
    64    30    62    1
    65    30    63    1
    66    31    64    1
    67    31    65    1
    68    32    66    1
    69    32    67    1
    70    33    68    1
    71    33    69    1
