REMARK  5 active torsions:
REMARK  status: ('A' for Active; 'I' for Inactive)
REMARK       I    between atoms: C_2  and  N_3 
REMARK    1  A    between atoms: C_2  and  C_24 
REMARK    2  A    between atoms: N_3  and  C_4 
REMARK    3  A    between atoms: C_7  and  N_8 
REMARK    4  A    between atoms: N_8  and  S_9 
REMARK    5  A    between atoms: S_9  and  C_12 
ROOT
ATOM      1  C   UNL d   1       2.347   1.124  -2.112  0.00  0.00     0.035 A 
ATOM      2  C   UNL d   1       2.763   0.901  -3.429  0.00  0.00     0.032 A 
ATOM      3  C   UNL d   1       2.090   1.525  -4.509  0.00  0.00     0.032 A 
ATOM      4  C   UNL d   1       0.980   2.354  -4.283  0.00  0.00     0.042 A 
ATOM      5  C   UNL d   1       0.606   2.589  -2.963  0.00  0.00     0.032 A 
ATOM      6  C   UNL d   1       1.267   1.975  -1.897  0.00  0.00     0.032 A 
ENDROOT
BRANCH   4   7
ATOM      7  N   UNL d   1       0.317   2.995  -5.386  0.00  0.00    -0.281 N 
ATOM      8  H   UNL d   1       0.457   2.624  -6.324  0.00  0.00     0.179 HD
BRANCH   7   9
ATOM      9  S   UNL d   1      -1.074   3.953  -5.127  0.00  0.00     0.263 S 
ATOM     10  O   UNL d   1      -2.074   3.083  -4.481  0.00  0.00    -0.200 OA
ATOM     11  O   UNL d   1      -0.700   5.195  -4.551  0.00  0.00    -0.200 OA
BRANCH   9  12
ATOM     12  C   UNL d   1      -1.665   4.202  -6.782  0.00  0.00     0.082 C 
ATOM     13  C   UNL d   1      -1.954   5.378  -7.495  0.00  0.00     0.028 C 
ATOM     14  C   UNL d   1      -2.752   5.309  -8.752  0.00  0.00     0.041 C 
ATOM     15  C   UNL d   1      -3.269   4.057  -9.206  0.00  0.00     0.102 C 
ATOM     16  C   UNL d   1      -3.037   3.094  -8.283  0.00  0.00     0.103 C 
ATOM     17  O   UNL d   1      -4.053   3.531 -10.255  0.00  0.00    -0.346 OA
ATOM     18  C   UNL d   1      -2.149   3.039  -7.266  0.00  0.00     0.065 C 
ATOM     19  O   UNL d   1      -4.101   2.297  -7.969  0.00  0.00    -0.346 OA
ATOM     20  C   UNL d   1      -3.925   1.268  -8.882  0.00  0.00     0.202 C 
ATOM     21  C   UNL d   1      -4.416   1.945 -10.158  0.00  0.00     0.202 C 
ENDBRANCH   9  12
ENDBRANCH   7   9
ENDBRANCH   4   7
BRANCH   1  22
ATOM     22  N   UNL d   1       3.016   0.536  -1.006  0.00  0.00    -0.322 N 
ATOM     23  C   UNL d   1       2.306  -0.016   0.065  0.00  0.00     0.265 C 
ATOM     24  O   UNL d   1       1.078  -0.069   0.086  0.00  0.00    -0.267 OA
ATOM     25  H   UNL d   1       3.999   0.315  -1.106  0.00  0.00     0.169 HD
BRANCH  23  26
ATOM     26  C   UNL d   1       3.057  -0.659   1.111  0.00  0.00     0.106 A 
ATOM     27  C   UNL d   1       2.775  -1.867   1.725  0.00  0.00     0.160 A 
ATOM     28  N   UNL d   1       3.563  -2.183   2.817  0.00  0.00    -0.181 NA
ATOM     29  N   UNL d   1       4.434  -1.220   3.073  0.00  0.00    -0.037 NA
ATOM     30  S   UNL d   1       4.325   0.063   1.991  0.00  0.00     0.009 SA
ENDBRANCH  23  26
ENDBRANCH   1  22
TORSDOF 5
