@<TRIPOS>MOLECULE
*****
 43 44 0 0 0
SMALL
GASTEIGER

@<TRIPOS>ATOM
      1 C           1.1241   -0.0824    0.0186 C.3     1  UNL1       -0.0174
      2 S           2.9219    0.0419   -0.0570 S.3     1  UNL1       -0.1517
      3 C           3.5217   -1.3804    1.0035 C.3     1  UNL1        0.0786
      4 C           3.0061   -2.7093    0.4664 C.3     1  UNL1       -0.0449
      5 C           5.0803   -1.3312    1.0054 C.2     1  UNL1        0.2299
      6 O           5.7038   -0.4819    0.3644 O.2     1  UNL1       -0.2743
      7 N           5.7430   -2.3017    1.7640 N.am    1  UNL1       -0.2843
      8 C           7.1677   -2.3530    1.8020 C.ar    1  UNL1        0.0371
      9 C           7.8881   -1.1531    1.9426 C.ar    1  UNL1       -0.0281
     10 C           9.2840   -1.1301    1.9582 C.ar    1  UNL1        0.0388
     11 C          10.0770    0.1324    2.0935 C.2     1  UNL1        0.2483
     12 O          11.3090    0.0400    2.0523 O.2     1  UNL1       -0.2699
     13 N           9.3981    1.3232    2.3210 N.am    1  UNL1       -0.2815
     14 C          10.0317    2.5832    2.3900 C.ar    1  UNL1        0.0337
     15 C           9.5437    3.5613    3.2628 C.ar    1  UNL1       -0.0405
     16 C          10.1267    4.8344    3.2857 C.ar    1  UNL1       -0.0600
     17 C          11.2072    5.1253    2.4529 C.ar    1  UNL1       -0.0616
     18 C          11.6858    4.1564    1.5756 C.ar    1  UNL1       -0.0600
     19 C          11.1013    2.8908    1.5476 C.ar    1  UNL1       -0.0405
     20 C           9.9695   -2.3453    1.8301 C.ar    1  UNL1       -0.0493
     21 C           9.2695   -3.5497    1.6983 C.ar    1  UNL1       -0.0564
     22 C           7.8624   -3.5709    1.6935 C.ar    1  UNL1       -0.0292
     23 C           7.1594   -4.8792    1.4655 C.3     1  UNL1       -0.0380
     24 H           0.7154    0.7278   -0.5964 H       1  UNL1        0.0341
     25 H           0.7586    0.0543    1.0380 H       1  UNL1        0.0341
     26 H           0.7590   -1.0208   -0.4023 H       1  UNL1        0.0341
     27 H           3.1745   -1.2127    2.0294 H       1  UNL1        0.0504
     28 H           3.3572   -2.8901   -0.5554 H       1  UNL1        0.0245
     29 H           1.9127   -2.7548    0.4724 H       1  UNL1        0.0245
     30 H           3.3536   -3.5479    1.0788 H       1  UNL1        0.0245
     31 H           5.2422   -3.1283    2.0600 H       1  UNL1        0.1548
     32 H           7.3266   -0.2333    2.0408 H       1  UNL1        0.0644
     33 H           8.4074    1.3218    2.5179 H       1  UNL1        0.1551
     34 H           8.7550    3.3336    3.9751 H       1  UNL1        0.0636
     35 H           9.7430    5.6018    3.9536 H       1  UNL1        0.0618
     36 H          11.6794    6.1036    2.4871 H       1  UNL1        0.0618
     37 H          12.5064    4.3804    0.9003 H       1  UNL1        0.0618
     38 H          11.4638    2.1596    0.8306 H       1  UNL1        0.0636
     39 H          11.0597   -2.3619    1.8255 H       1  UNL1        0.0625
     40 H           9.8407   -4.4698    1.5765 H       1  UNL1        0.0621
     41 H           7.8683   -5.7075    1.3515 H       1  UNL1        0.0278
     42 H           6.5649   -4.8325    0.5469 H       1  UNL1        0.0278
     43 H           6.5098   -5.1122    2.3134 H       1  UNL1        0.0278
@<TRIPOS>BOND
     1     1     2    1
     2     2     3    1
     3     3     4    1
     4     3     5    1
     5     5     6    2
     6     5     7   am
     7     7     8    1
     8     8     9   ar
     9     9    10   ar
    10    10    11    1
    11    11    12    2
    12    11    13   am
    13    13    14    1
    14    14    15   ar
    15    15    16   ar
    16    16    17   ar
    17    17    18   ar
    18    18    19   ar
    19    14    19   ar
    20    10    20   ar
    21    20    21   ar
    22    21    22   ar
    23     8    22   ar
    24    22    23    1
    25     1    24    1
    26     1    25    1
    27     1    26    1
    28     3    27    1
    29     4    28    1
    30     4    29    1
    31     4    30    1
    32     7    31    1
    33     9    32    1
    34    13    33    1
    35    15    34    1
    36    16    35    1
    37    17    36    1
    38    18    37    1
    39    19    38    1
    40    20    39    1
    41    21    40    1
    42    23    41    1
    43    23    42    1
    44    23    43    1
