REMARK  7 active torsions:
REMARK  status: ('A' for Active; 'I' for Inactive)
REMARK    1  A    between atoms: C_2  and  N_3 
REMARK    2  A    between atoms: C_4  and  S_5 
REMARK    3  A    between atoms: S_5  and  C_6 
REMARK    4  A    between atoms: C_6  and  C_7 
REMARK       I    between atoms: C_7  and  N_9 
REMARK       I    between atoms: N_9  and  C_10 
REMARK       I    between atoms: C_10  and  N_12 
REMARK    5  A    between atoms: N_12  and  C_13 
REMARK    6  A    between atoms: C_13  and  C_14 
REMARK    7  A    between atoms: C_27  and  N_28 
ROOT
ATOM      1  S   UNL d   1       3.724   1.828  -2.022  0.00  0.00    -0.082 SA
ENDROOT
BRANCH   1   2
ATOM      2  C   UNL d   1       3.500   0.071  -2.240  0.00  0.00     0.173 A 
ATOM      3  N   UNL d   1       2.958  -0.822  -1.205  0.00  0.00    -0.312 N 
ATOM      4  C   UNL d   1       2.839  -2.145  -1.412  0.00  0.00     0.120 A 
ATOM      5  C   UNL d   1       3.199  -2.658  -2.693  0.00  0.00     0.089 A 
ATOM      6  C   UNL d   1       3.186  -3.925  -3.321  0.00  0.00     0.076 A 
ATOM      7  C   UNL d   1       3.672  -1.741  -3.590  0.00  0.00     0.212 A 
ATOM      8  N   UNL d   1       3.640  -3.786  -4.574  0.00  0.00    -0.130 NA
ATOM      9  C   UNL d   1       2.775  -5.285  -2.848  0.00  0.00     0.074 C 
ATOM     10  O   UNL d   1       3.942  -2.436  -4.742  0.00  0.00    -0.192 OA
ATOM     11  N   UNL d   1       3.847  -0.404  -3.406  0.00  0.00    -0.197 NA
BRANCH   3  12
ATOM     12  C   UNL d   1       2.474  -0.340   0.074  0.00  0.00     0.128 C 
ATOM     13  C   UNL d   1       0.972  -0.159   0.030  0.00  0.00     0.027 C 
ENDBRANCH   3  12
BRANCH   4  14
ATOM     14  N   UNL d   1       2.382  -2.996  -0.513  0.00  0.00    -0.384 N 
ATOM     15  H   UNL d   1       2.286  -3.982  -0.705  0.00  0.00     0.157 HD
ATOM     16  H   UNL d   1       2.110  -2.717   0.417  0.00  0.00     0.157 HD
ENDBRANCH   4  14
ENDBRANCH   1   2
BRANCH   1  17
ATOM     17  C   UNL d   1       3.304   2.510  -0.364  0.00  0.00     0.185 C 
BRANCH  17  18
ATOM     18  C   UNL d   1       3.498   4.016  -0.190  0.00  0.00     0.235 C 
ATOM     19  O   UNL d   1       3.939   4.684  -1.122  0.00  0.00    -0.272 OA
ATOM     20  N   UNL d   1       3.158   4.543   1.070  0.00  0.00    -0.279 N 
ATOM     21  C   UNL d   1       3.296   5.891   1.345  0.00  0.00     0.323 C 
ATOM     22  H   UNL d   1       2.800   3.957   1.810  0.00  0.00     0.173 HD
ATOM     23  O   UNL d   1       3.735   6.715   0.542  0.00  0.00    -0.247 OA
ATOM     24  N   UNL d   1       2.898   6.303   2.596  0.00  0.00    -0.339 N 
ATOM     25  H   UNL d   1       2.618   5.649   3.302  0.00  0.00     0.164 HD
BRANCH  24  26
ATOM     26  C   UNL d   1       3.033   7.728   2.955  0.00  0.00     0.162 C 
BRANCH  26  27
ATOM     27  C   UNL d   1       2.661   8.110   4.375  0.00  0.00    -0.040 C 
ATOM     28  C   UNL d   1       2.365   7.157   5.354  0.00  0.00     0.009 C 
ATOM     29  C   UNL d   1       2.324   7.503   6.702  0.00  0.00     0.001 C 
ATOM     30  C   UNL d   1       2.300   8.838   7.076  0.00  0.00     0.000 C 
ATOM     31  C   UNL d   1       2.441   9.825   6.105  0.00  0.00     0.001 C 
ATOM     32  C   UNL d   1       2.706   9.462   4.778  0.00  0.00     0.009 C 
ENDBRANCH  26  27
ENDBRANCH  24  26
ENDBRANCH  17  18
ENDBRANCH   1  17
TORSDOF 7
