REMARK  5 active torsions:
REMARK  status: ('A' for Active; 'I' for Inactive)
REMARK    1  A    between atoms: C_8  and  N_9 
REMARK       I    between atoms: N_9  and  C_10 
REMARK       I    between atoms: C_10  and  N_12 
REMARK    2  A    between atoms: N_12  and  C_13 
REMARK    3  A    between atoms: C_15  and  N_16 
REMARK       I    between atoms: N_16  and  C_17 
REMARK    4  A    between atoms: C_17  and  C_19 
REMARK    5  A    between atoms: C_28  and  N_29 
ROOT
ATOM      1  C   UNL d   1      -1.512   6.109  -0.186  0.00  0.00     0.065 C 
ATOM      2  C   UNL d   1      -1.856   7.246   0.613  0.00  0.00     0.061 C 
ATOM      3  C   UNL d   1      -1.120   8.451   0.517  0.00  0.00     0.037 C 
ATOM      4  C   UNL d   1       0.044   8.435  -0.247  0.00  0.00     0.032 C 
ATOM      5  C   UNL d   1       0.426   7.318  -0.984  0.00  0.00     0.034 C 
ATOM      6  C   UNL d   1      -0.331   6.144  -1.003  0.00  0.00     0.057 C 
ENDROOT
BRANCH   1   7
ATOM      7  N   UNL d   1      -2.335   4.894  -0.131  0.00  0.00    -0.306 N 
ATOM      8  C   UNL d   1      -1.682   3.752   0.316  0.00  0.00     0.325 C 
ATOM      9  N   UNL d   1      -2.278   2.511   0.092  0.00  0.00    -0.308 N 
ATOM     10  O   UNL d   1      -0.614   3.921   0.905  0.00  0.00    -0.247 OA
ATOM     11  H   UNL d   1      -3.278   2.507  -0.073  0.00  0.00     0.170 HD
ATOM     12  H   UNL d   1      -3.288   5.009   0.184  0.00  0.00     0.170 HD
BRANCH   9  13
ATOM     13  C   UNL d   1      -1.630   1.184   0.140  0.00  0.00     0.043 A 
ATOM     14  C   UNL d   1      -2.458   0.044   0.027  0.00  0.00     0.030 A 
ATOM     15  C   UNL d   1      -1.925  -1.266   0.004  0.00  0.00     0.004 A 
ATOM     16  C   UNL d   1      -0.553  -1.479   0.018  0.00  0.00     0.024 A 
ATOM     17  C   UNL d   1       0.294  -0.392   0.092  0.00  0.00     0.042 A 
ATOM     18  C   UNL d   1      -0.220   0.921   0.206  0.00  0.00    -0.013 A 
ATOM     19 CL   UNL d   1       1.997  -0.737   0.019  0.00  0.00    -0.084 Cl
ATOM     20  C   UNL d   1       0.799   1.988   0.395  0.00  0.00     0.052 C 
ENDBRANCH   9  13
ENDBRANCH   1   7
BRANCH   6  21
ATOM     21  N   UNL d   1       0.094   5.154  -1.870  0.00  0.00    -0.379 N 
ATOM     22  C   UNL d   1      -0.791   4.453  -2.775  0.00  0.00     0.123 C 
ATOM     23  C   UNL d   1      -0.291   3.023  -2.736  0.00  0.00     0.021 C 
ATOM     24  C   UNL d   1       1.221   3.178  -2.566  0.00  0.00     0.021 C 
ATOM     25  C   UNL d   1       1.405   4.498  -1.771  0.00  0.00     0.123 C 
ENDBRANCH   6  21
BRANCH   3  26
ATOM     26  N   UNL d   1      -1.585   9.673   1.114  0.00  0.00    -0.323 N 
ATOM     27  C   UNL d   1      -1.056  10.934   0.809  0.00  0.00     0.256 C 
ATOM     28  O   UNL d   1      -0.096  11.172   0.079  0.00  0.00    -0.267 OA
ATOM     29  H   UNL d   1      -2.451   9.631   1.634  0.00  0.00     0.169 HD
BRANCH  27  30
ATOM     30  C   UNL d   1      -1.674  12.153   1.386  0.00  0.00     0.032 A 
ATOM     31  C   UNL d   1      -1.610  13.335   0.615  0.00  0.00     0.020 A 
ATOM     32  C   UNL d   1      -1.890  14.574   1.189  0.00  0.00     0.043 A 
ATOM     33  C   UNL d   1      -2.307  14.621   2.511  0.00  0.00     0.116 A 
ATOM     34  F   UNL d   1      -2.615  15.803   3.060  0.00  0.00    -0.206 F 
ATOM     35  C   UNL d   1      -2.409  13.459   3.276  0.00  0.00     0.043 A 
ATOM     36  C   UNL d   1      -2.083  12.216   2.718  0.00  0.00     0.020 A 
ENDBRANCH  27  30
ENDBRANCH   3  26
TORSDOF 5
