REMARK  16 active torsions:
REMARK  status: ('A' for Active; 'I' for Inactive)
REMARK    1  A    between atoms: C_2  and  C_3 
REMARK       I    between atoms: C_2  and  N_26 
REMARK    2  A    between atoms: C_3  and  C_4 
REMARK    3  A    between atoms: C_4  and  C_5 
REMARK    4  A    between atoms: C_5  and  C_6 
REMARK    5  A    between atoms: C_6  and  C_7 
REMARK    6  A    between atoms: C_7  and  C_8 
REMARK    7  A    between atoms: C_8  and  C_9 
REMARK    8  A    between atoms: C_9  and  C_10 
REMARK       I    between atoms: C_10  and  N_12 
REMARK    9  A    between atoms: N_12  and  C_13 
REMARK   10  A    between atoms: C_16  and  O_17 
REMARK   11  A    between atoms: O_17  and  C_18 
REMARK   12  A    between atoms: C_18  and  C_19 
REMARK   13  A    between atoms: N_26  and  C_27 
REMARK   14  A    between atoms: C_30  and  O_31 
REMARK   15  A    between atoms: O_31  and  C_32 
REMARK   16  A    between atoms: C_32  and  C_33 
ROOT
ATOM      1  C   UNL d   1       1.824   2.021   4.427  0.00  0.00     0.000 C 
ENDROOT
BRANCH   1   2
ATOM      2  C   UNL d   1       2.781   1.542   3.351  0.00  0.00     0.000 C 
BRANCH   2   3
ATOM      3  C   UNL d   1       1.997   1.018   2.152  0.00  0.00     0.009 C 
BRANCH   3   4
ATOM      4  C   UNL d   1       2.961   0.523   1.095  0.00  0.00     0.103 C 
BRANCH   4   5
ATOM      5  C   UNL d   1       2.277  -0.077  -0.121  0.00  0.00     0.222 C 
ATOM      6  O   UNL d   1       1.046  -0.145  -0.221  0.00  0.00    -0.273 OA
ATOM      7  N   UNL d   1       3.060  -0.470  -1.180  0.00  0.00    -0.327 N 
ATOM      8  H   UNL d   1       2.541  -0.666  -2.027  0.00  0.00     0.169 HD
BRANCH   7   9
ATOM      9  C   UNL d   1       4.458  -0.586  -1.216  0.00  0.00     0.034 A 
ATOM     10  C   UNL d   1       5.159  -0.271  -2.379  0.00  0.00     0.032 A 
ATOM     11  C   UNL d   1       6.553  -0.422  -2.408  0.00  0.00     0.039 A 
ATOM     12  C   UNL d   1       7.251  -0.836  -1.267  0.00  0.00     0.069 A 
ATOM     13  C   UNL d   1       6.542  -1.173  -0.126  0.00  0.00     0.039 A 
ATOM     14  C   UNL d   1       5.159  -1.087  -0.123  0.00  0.00     0.032 A 
BRANCH  12  15
ATOM     15  O   UNL d   1       8.610  -0.904  -1.369  0.00  0.00    -0.349 OA
BRANCH  15  16
ATOM     16  C   UNL d   1       9.327  -1.165  -0.149  0.00  0.00     0.207 C 
BRANCH  16  17
ATOM     17  C   UNL d   1      10.829  -1.042  -0.394  0.00  0.00     0.145 C 
ATOM     18  C   UNL d   1      11.221   0.206  -1.171  0.00  0.00     0.036 C 
ATOM     19  C   UNL d   1      12.408  -0.257  -1.972  0.00  0.00     0.029 C 
ATOM     20  C   UNL d   1      12.098  -1.714  -2.233  0.00  0.00     0.168 C 
ATOM     21  O   UNL d   1      11.300  -2.179  -1.142  0.00  0.00    -0.384 OA
ENDBRANCH  16  17
ENDBRANCH  15  16
ENDBRANCH  12  15
ENDBRANCH   7   9
ENDBRANCH   4   5
ENDBRANCH   3   4
ENDBRANCH   2   3
ENDBRANCH   1   2
BRANCH   1  22
ATOM     22  C   UNL d   1       2.593   2.564   5.627  0.00  0.00     0.000 C 
BRANCH  22  23
ATOM     23  C   UNL d   1       1.621   3.048   6.690  0.00  0.00     0.009 C 
BRANCH  23  24
ATOM     24  C   UNL d   1       2.326   3.615   7.927  0.00  0.00     0.103 C 
BRANCH  24  25
ATOM     25  C   UNL d   1       1.279   4.072   8.928  0.00  0.00     0.222 C 
ATOM     26  O   UNL d   1       0.076   3.942   8.684  0.00  0.00    -0.273 OA
ATOM     27  N   UNL d   1       1.773   4.658  10.082  0.00  0.00    -0.327 N 
ATOM     28  H   UNL d   1       2.748   4.925  10.129  0.00  0.00     0.169 HD
BRANCH  27  29
ATOM     29  C   UNL d   1       0.926   5.058  11.143  0.00  0.00     0.034 A 
ATOM     30  C   UNL d   1       1.214   6.191  11.905  0.00  0.00     0.032 A 
ATOM     31  C   UNL d   1       0.399   6.524  13.003  0.00  0.00     0.039 A 
ATOM     32  C   UNL d   1      -0.719   5.746  13.331  0.00  0.00     0.069 A 
ATOM     33  C   UNL d   1      -0.998   4.620  12.566  0.00  0.00     0.039 A 
ATOM     34  C   UNL d   1      -0.187   4.285  11.482  0.00  0.00     0.032 A 
BRANCH  32  35
ATOM     35  O   UNL d   1      -1.456   6.155  14.412  0.00  0.00    -0.349 OA
BRANCH  35  36
ATOM     36  C   UNL d   1      -2.721   5.501  14.606  0.00  0.00     0.207 C 
BRANCH  36  37
ATOM     37  C   UNL d   1      -3.533   6.187  15.717  0.00  0.00     0.145 C 
ATOM     38  C   UNL d   1      -5.035   5.940  15.607  0.00  0.00     0.036 C 
ATOM     39  C   UNL d   1      -5.627   7.204  16.184  0.00  0.00     0.029 C 
ATOM     40  C   UNL d   1      -4.618   8.259  15.795  0.00  0.00     0.168 C 
ATOM     41  O   UNL d   1      -3.350   7.613  15.692  0.00  0.00    -0.384 OA
ENDBRANCH  36  37
ENDBRANCH  35  36
ENDBRANCH  32  35
ENDBRANCH  27  29
ENDBRANCH  24  25
ENDBRANCH  23  24
ENDBRANCH  22  23
ENDBRANCH   1  22
TORSDOF 16
