REMARK  5 active torsions:
REMARK  status: ('A' for Active; 'I' for Inactive)
REMARK    1  A    between atoms: C_5  and  N_6 
REMARK       I    between atoms: N_6  and  C_7 
REMARK       I    between atoms: C_7  and  N_9 
REMARK    2  A    between atoms: N_9  and  C_10 
REMARK    3  A    between atoms: C_12  and  N_13 
REMARK       I    between atoms: N_13  and  C_14 
REMARK    4  A    between atoms: C_14  and  C_16 
REMARK    5  A    between atoms: C_25  and  N_26 
ROOT
ATOM      1  C   UNL d   1      -3.674  -5.368  -0.013  0.00  0.00     0.065 A 
ATOM      2  C   UNL d   1      -4.576  -6.172  -0.762  0.00  0.00     0.061 A 
ATOM      3  C   UNL d   1      -4.588  -7.580  -0.597  0.00  0.00     0.037 A 
ATOM      4  C   UNL d   1      -3.609  -8.156   0.202  0.00  0.00     0.032 A 
ATOM      5  C   UNL d   1      -2.738  -7.379   0.943  0.00  0.00     0.034 A 
ATOM      6  C   UNL d   1      -2.760  -5.987   0.876  0.00  0.00     0.057 A 
ENDROOT
BRANCH   1   7
ATOM      7  N   UNL d   1      -3.670  -3.933  -0.118  0.00  0.00    -0.306 N 
ATOM      8  C   UNL d   1      -2.459  -3.284  -0.347  0.00  0.00     0.325 C 
ATOM      9  N   UNL d   1      -2.444  -1.924  -0.064  0.00  0.00    -0.308 N 
ATOM     10  O   UNL d   1      -1.472  -3.904  -0.755  0.00  0.00    -0.247 OA
ATOM     11  H   UNL d   1      -3.334  -1.458   0.000  0.00  0.00     0.170 HD
ATOM     12  H   UNL d   1      -4.538  -3.459  -0.304  0.00  0.00     0.170 HD
BRANCH   9  13
ATOM     13  C   UNL d   1      -1.248  -1.123  -0.026  0.00  0.00     0.042 A 
ATOM     14  C   UNL d   1       0.018  -1.730  -0.001  0.00  0.00     0.030 A 
ATOM     15  C   UNL d   1       1.215  -1.018   0.010  0.00  0.00     0.009 A 
ATOM     16  C   UNL d   1       1.200   0.365   0.005  0.00  0.00    -0.061 A 
ATOM     17  C   UNL d   1       2.505   1.106   0.009  0.00  0.00     0.048 C 
ATOM     18  C   UNL d   1      -0.046   1.011   0.002  0.00  0.00     0.015 A 
ATOM     19  C   UNL d   1      -1.276   0.286   0.001  0.00  0.00    -0.035 A 
ATOM     20  C   UNL d   1      -2.547   1.091  -0.004  0.00  0.00     0.050 C 
ENDBRANCH   9  13
ENDBRANCH   1   7
BRANCH   6  21
ATOM     21  N   UNL d   1      -1.911  -5.322   1.738  0.00  0.00    -0.379 N 
ATOM     22  C   UNL d   1      -0.472  -5.448   1.539  0.00  0.00     0.123 C 
ATOM     23  C   UNL d   1       0.144  -5.798   2.885  0.00  0.00     0.020 C 
ATOM     24  C   UNL d   1      -0.276  -4.775   3.951  0.00  0.00     0.003 C 
ATOM     25  C   UNL d   1      -1.796  -4.561   3.990  0.00  0.00     0.020 C 
ATOM     26  C   UNL d   1      -2.339  -4.242   2.602  0.00  0.00     0.123 C 
ENDBRANCH   6  21
BRANCH   3  27
ATOM     27  N   UNL d   1      -5.597  -8.401  -1.178  0.00  0.00    -0.323 N 
ATOM     28  C   UNL d   1      -5.776  -9.763  -0.918  0.00  0.00     0.257 C 
ATOM     29  O   UNL d   1      -5.111 -10.470  -0.158  0.00  0.00    -0.267 OA
ATOM     30  H   UNL d   1      -6.269  -7.946  -1.785  0.00  0.00     0.169 HD
BRANCH  28  31
ATOM     31  C   UNL d   1      -6.886 -10.475  -1.588  0.00  0.00     0.054 A 
ATOM     32  C   UNL d   1      -7.559 -11.475  -0.848  0.00  0.00     0.019 A 
ATOM     33  C   UNL d   1      -8.478 -12.324  -1.468  0.00  0.00     0.001 A 
ATOM     34  C   UNL d   1      -8.777 -12.142  -2.814  0.00  0.00     0.002 A 
ATOM     35  C   UNL d   1      -8.120 -11.153  -3.549  0.00  0.00     0.025 A 
ATOM     36  C   UNL d   1      -7.168 -10.325  -2.946  0.00  0.00     0.049 A 
ATOM     37 CL   UNL d   1      -6.365  -9.185  -3.965  0.00  0.00    -0.083 Cl
ENDBRANCH  28  31
ENDBRANCH   3  27
TORSDOF 5
