@<TRIPOS>MOLECULE
*****
 54 58 0 0 0
SMALL
GASTEIGER

@<TRIPOS>ATOM
      1 C           3.2191    0.0744    1.5159 C.3     1  UNL1       -0.0442
      2 C           2.5636    0.1093    0.1400 C.3     1  UNL1        0.0464
      3 N           2.9135    1.4055   -0.4681 N.3     1  UNL1       -0.2334
      4 N           3.7600    1.3704   -1.5813 N.am    1  UNL1       -0.2465
      5 C           4.0888    0.2623   -2.3092 C.2     1  UNL1        0.2578
      6 O           4.6203    0.4351   -3.4000 O.2     1  UNL1       -0.2691
      7 C           3.7750   -1.0315   -1.7117 C.2     1  UNL1        0.0652
      8 C           3.0289   -1.0799   -0.6129 C.2     1  UNL1       -0.0111
      9 C           2.7722   -2.4892   -0.2316 C.3     1  UNL1        0.0818
     10 C           1.2794   -2.8157   -0.2793 C.3     1  UNL1       -0.0346
     11 O           3.5346   -3.2760   -1.1863 O.3     1  UNL1       -0.3472
     12 C           4.1649   -2.3812   -2.1511 C.3     1  UNL1        0.1566
     13 N           5.5976   -2.5622   -2.0386 N.am    1  UNL1       -0.2834
     14 C           6.4251   -2.0377   -3.0170 C.2     1  UNL1        0.2529
     15 O           5.9712   -1.5448   -4.0462 O.2     1  UNL1       -0.2720
     16 C           7.9362   -2.1267   -2.8189 C.3     1  UNL1        0.1685
     17 O           8.5840   -1.1821   -3.7134 O.3     1  UNL1       -0.4506
     18 C           9.9354   -1.2675   -3.7309 C.2     1  UNL1        0.3604
     19 O          10.5715   -2.0284   -3.0139 O.2     1  UNL1       -0.2431
     20 C          10.5866   -0.4224   -4.7854 C.ar    1  UNL1        0.1756
     21 N          10.2566    0.9029   -4.8765 N.ar    1  UNL1       -0.2449
     22 C          11.0384    1.6423   -5.7133 C.ar    1  UNL1        0.0466
     23 C          12.0940    1.1054   -6.4347 C.ar    1  UNL1        0.0465
     24 N          12.4053   -0.2058   -6.3737 N.ar    1  UNL1       -0.2490
     25 C          11.6338   -0.9655   -5.5336 C.ar    1  UNL1        0.1282
     26 C          12.0314   -2.3667   -5.4391 C.ar    1  UNL1        0.1299
     27 N          13.1943   -2.7797   -4.9845 N.ar    1  UNL1       -0.2374
     28 C          13.1935   -4.1550   -4.8859 C.ar    1  UNL1        0.0789
     29 C          14.2592   -4.9350   -4.4023 C.ar    1  UNL1       -0.0352
     30 C          14.1346   -6.3250   -4.3587 C.ar    1  UNL1       -0.0597
     31 C          12.9570   -6.9405   -4.7728 C.ar    1  UNL1       -0.0606
     32 C          11.8791   -6.1867   -5.2480 C.ar    1  UNL1       -0.0459
     33 C          12.0264   -4.7922   -5.3103 C.ar    1  UNL1        0.0396
     34 S          10.9246   -3.6073   -5.8927 S.2     1  UNL1       -0.0656
     35 H           2.9698    0.9696    2.0928 H       1  UNL1        0.0248
     36 H           4.3114    0.0319    1.4101 H       1  UNL1        0.0248
     37 H           2.8995   -0.7975    2.0927 H       1  UNL1        0.0248
     38 H           1.4707    0.0813    0.2240 H       1  UNL1        0.0521
     39 H           3.3969    1.9762    0.2289 H       1  UNL1        0.1449
     40 H           3.9798    2.2330   -2.0721 H       1  UNL1        0.1693
     41 H           3.1600   -2.7258    0.7657 H       1  UNL1        0.0642
     42 H           0.8576   -2.6229   -1.2719 H       1  UNL1        0.0258
     43 H           0.7203   -2.2095    0.4460 H       1  UNL1        0.0258
     44 H           1.0900   -3.8684   -0.0472 H       1  UNL1        0.0258
     45 H           3.7973   -2.6453   -3.1466 H       1  UNL1        0.0863
     46 H           5.9193   -3.2846   -1.4104 H       1  UNL1        0.1516
     47 H           8.2183   -3.1502   -3.0931 H       1  UNL1        0.0796
     48 H           8.2162   -1.9085   -1.7825 H       1  UNL1        0.0796
     49 H          10.8078    2.7015   -5.7846 H       1  UNL1        0.0845
     50 H          12.7229    1.7144   -7.0785 H       1  UNL1        0.0845
     51 H          15.1693   -4.4427   -4.0756 H       1  UNL1        0.0639
     52 H          14.9675   -6.9237   -3.9999 H       1  UNL1        0.0618
     53 H          12.8756   -8.0244   -4.7337 H       1  UNL1        0.0618
     54 H          10.9613   -6.6684   -5.5709 H       1  UNL1        0.0629
@<TRIPOS>BOND
     1     2     3    1
     2     3     4    1
     3     4     5   am
     4     5     6    2
     5     5     7    1
     6     7     8    2
     7     2     8    1
     8     8     9    1
     9     9    10    1
    10     9    11    1
    11    11    12    1
    12     7    12    1
    13    12    13    1
    14    13    14   am
    15    14    15    2
    16    14    16    1
    17    16    17    1
    18    17    18    1
    19    18    19    2
    20    18    20    1
    21    20    21   ar
    22    21    22   ar
    23    22    23   ar
    24    23    24   ar
    25    24    25   ar
    26    20    25   ar
    27    25    26    1
    28    26    27   ar
    29    27    28   ar
    30    28    29   ar
    31    29    30   ar
    32    30    31   ar
    33    31    32   ar
    34    32    33   ar
    35    28    33   ar
    36    33    34   ar
    37    26    34   ar
    38     2     1    1
    39     1    35    1
    40     1    36    1
    41     1    37    1
    42     2    38    1
    43     3    39    1
    44     4    40    1
    45     9    41    1
    46    10    42    1
    47    10    43    1
    48    10    44    1
    49    12    45    1
    50    13    46    1
    51    16    47    1
    52    16    48    1
    53    22    49    1
    54    23    50    1
    55    29    51    1
    56    30    52    1
    57    31    53    1
    58    32    54    1
