REMARK  8 active torsions:
REMARK  status: ('A' for Active; 'I' for Inactive)
REMARK    1  A    between atoms: C_2  and  C_3 
REMARK       I    between atoms: C_3  and  N_5 
REMARK    2  A    between atoms: N_5  and  C_6 
REMARK    3  A    between atoms: C_10  and  N_11 
REMARK       I    between atoms: N_11  and  C_12 
REMARK       I    between atoms: C_12  and  N_14 
REMARK    4  A    between atoms: N_14  and  C_15 
REMARK    5  A    between atoms: C_15  and  C_16 
REMARK    6  A    between atoms: C_16  and  N_17 
REMARK    7  A    between atoms: N_17  and  C_18 
REMARK    8  A    between atoms: C_23  and  N_24 
ROOT
ATOM      1  N   UNL d   1       4.426  -5.049  -3.925  0.00  0.00    -0.309 N 
ATOM      2  C   UNL d   1       3.419  -4.420  -4.644  0.00  0.00     0.320 C 
ATOM      3  O   UNL d   1       2.837  -3.390  -4.345  0.00  0.00    -0.247 OA
ATOM      4  N   UNL d   1       3.101  -5.004  -5.845  0.00  0.00    -0.341 N 
ATOM      5  H   UNL d   1       4.842  -5.888  -4.299  0.00  0.00     0.170 HD
ATOM      6  H   UNL d   1       3.396  -5.942  -6.062  0.00  0.00     0.164 HD
ENDROOT
BRANCH   1   7
ATOM      7  C   UNL d   1       4.964  -4.530  -2.706  0.00  0.00     0.038 A 
ATOM      8  C   UNL d   1       6.047  -5.139  -2.064  0.00  0.00     0.029 A 
ATOM      9  C   UNL d   1       6.609  -4.545  -0.914  0.00  0.00     0.004 A 
ATOM     10  C   UNL d   1       6.075  -3.366  -0.371  0.00  0.00     0.029 A 
ATOM     11  C   UNL d   1       4.980  -2.774  -0.980  0.00  0.00     0.036 A 
ATOM     12  C   UNL d   1       4.452  -3.366  -2.126  0.00  0.00     0.059 A 
BRANCH  11  13
ATOM     13  N   UNL d   1       4.418  -1.567  -0.498  0.00  0.00    -0.327 N 
ATOM     14  C   UNL d   1       3.042  -1.360  -0.474  0.00  0.00     0.221 C 
ATOM     15  O   UNL d   1       2.211  -2.209  -0.787  0.00  0.00    -0.273 OA
ATOM     16  H   UNL d   1       5.029  -0.917  -0.024  0.00  0.00     0.169 HD
BRANCH  14  17
ATOM     17  C   UNL d   1       2.602  -0.005   0.055  0.00  0.00     0.098 C 
ATOM     18  C   UNL d   1       1.076   0.067   0.086  0.00  0.00     0.014 C 
ENDBRANCH  14  17
ENDBRANCH  11  13
ENDBRANCH   1   7
BRANCH   4  19
ATOM     19  C   UNL d   1       2.000  -4.384  -6.593  0.00  0.00     0.144 C 
BRANCH  19  20
ATOM     20  C   UNL d   1       1.751  -5.060  -7.930  0.00  0.00     0.139 C 
BRANCH  20  21
ATOM     21  N   UNL d   1       0.608  -4.506  -8.647  0.00  0.00    -0.386 N 
ATOM     22  H   UNL d   1       0.097  -3.722  -8.246  0.00  0.00     0.159 HD
BRANCH  21  23
ATOM     23  C   UNL d   1       0.021  -5.173  -9.715  0.00  0.00     0.061 A 
ATOM     24  C   UNL d   1      -0.254  -4.404 -10.868  0.00  0.00     0.031 A 
ATOM     25  C   UNL d   1      -0.792  -4.972 -12.032  0.00  0.00     0.002 A 
ATOM     26  C   UNL d   1      -1.017  -6.340 -12.095  0.00  0.00     0.003 A 
ATOM     27  C   UNL d   1      -0.784  -7.123 -10.970  0.00  0.00     0.038 A 
ATOM     28  C   UNL d   1      -0.302  -6.544  -9.779  0.00  0.00     0.129 A 
BRANCH  28  29
ATOM     29  N   UNL d   1      -0.243  -7.441  -8.615  0.00  0.00    -0.113 N 
ATOM     30  O   UNL d   1      -0.058  -8.648  -8.841  0.00  0.00    -0.532 OA
ATOM     31  O   UNL d   1      -0.410  -6.973  -7.480  0.00  0.00    -0.532 OA
ENDBRANCH  28  29
ENDBRANCH  21  23
ENDBRANCH  20  21
ENDBRANCH  19  20
ENDBRANCH   4  19
TORSDOF 8
