@<TRIPOS>MOLECULE
*****
 29 30 0 0 0
SMALL
GASTEIGER

@<TRIPOS>ATOM
      1 N           1.0648   -0.5922    0.2577 N.am    1  UNL1       -0.3253
      2 C           2.4090   -0.3197    0.2039 C.2     1  UNL1        0.2433
      3 O           3.0339    0.0419    1.1937 O.2     1  UNL1       -0.2704
      4 C           3.0748   -0.4312   -1.1142 C.ar    1  UNL1        0.0576
      5 C           4.2392   -1.2180   -1.0894 C.ar    1  UNL1       -0.0478
      6 C           4.9988   -1.4024   -2.2382 C.ar    1  UNL1       -0.0609
      7 C           4.5649   -0.8501   -3.4379 C.ar    1  UNL1       -0.0600
      8 C           3.4055   -0.0559   -3.4760 C.ar    1  UNL1       -0.0397
      9 C           2.6477    0.1907   -2.3125 C.ar    1  UNL1        0.0458
     10 N           1.4905    1.0317   -2.4480 N.am    1  UNL1       -0.2808
     11 C           0.9293    1.7394   -1.4023 C.2     1  UNL1        0.2498
     12 O           1.4978    1.9663   -0.3330 O.2     1  UNL1       -0.2698
     13 C          -0.4211    2.3131   -1.4966 C.ar    1  UNL1        0.0566
     14 C          -1.3811    1.9929   -2.4393 C.ar    1  UNL1        0.0414
     15 N          -2.6017    2.5875   -2.4738 N.ar    1  UNL1       -0.2413
     16 C          -2.8598    3.5402   -1.5319 C.ar    1  UNL1        0.1474
     17 CL         -4.3955    4.2875   -1.7152 Cl      1  UNL1       -0.0605
     18 C          -1.9764    3.8972   -0.5263 C.ar    1  UNL1        0.0784
     19 CL         -2.2537    5.1424    0.6275 Cl      1  UNL1       -0.0804
     20 C          -0.7637    3.2345   -0.4925 C.ar    1  UNL1       -0.0269
     21 H           0.6307   -0.0129    0.9703 H       1  UNL1        0.1453
     22 H           0.5588   -0.6291   -0.6138 H       1  UNL1        0.1453
     23 H           4.5457   -1.6916   -0.1577 H       1  UNL1        0.0626
     24 H           5.9235   -1.9729   -2.1895 H       1  UNL1        0.0618
     25 H           5.1386   -1.0383   -4.3443 H       1  UNL1        0.0618
     26 H           3.1402    0.3909   -4.4319 H       1  UNL1        0.0636
     27 H           1.2501    1.3214   -3.3904 H       1  UNL1        0.1552
     28 H          -1.2265    1.2354   -3.2025 H       1  UNL1        0.0838
     29 H          -0.0615    3.4502    0.3139 H       1  UNL1        0.0641
@<TRIPOS>BOND
     1     1     2   am
     2     2     3    2
     3     2     4    1
     4     4     5   ar
     5     5     6   ar
     6     6     7   ar
     7     7     8   ar
     8     8     9   ar
     9     4     9   ar
    10     9    10    1
    11    10    11   am
    12    11    12    2
    13    11    13    1
    14    13    14   ar
    15    14    15   ar
    16    15    16   ar
    17    16    17    1
    18    16    18   ar
    19    18    19    1
    20    18    20   ar
    21    13    20   ar
    22     1    21    1
    23     1    22    1
    24     5    23    1
    25     6    24    1
    26     7    25    1
    27     8    26    1
    28    10    27    1
    29    14    28    1
    30    20    29    1
