REMARK  4 active torsions:
REMARK  status: ('A' for Active; 'I' for Inactive)
REMARK    1  A    between atoms: C_5  and  N_6 
REMARK       I    between atoms: N_6  and  C_7 
REMARK    2  A    between atoms: C_7  and  C_9 
REMARK    3  A    between atoms: C_12  and  C_14 
REMARK       I    between atoms: C_14  and  N_16 
REMARK    4  A    between atoms: N_16  and  N_17 
ROOT
ATOM      1  C   UNL d   1      -5.483   1.203  -0.068  0.00  0.00     0.087 C 
ATOM      2  C   UNL d   1      -6.098   2.490   0.554  0.00  0.00     0.016 C 
ATOM      3  C   UNL d   1      -7.371   2.096   1.300  0.00  0.00     0.020 C 
ATOM      4  C   UNL d   1      -7.566   0.587   1.051  0.00  0.00     0.046 C 
ATOM      5  C   UNL d   1      -8.181  -0.093   2.288  0.00  0.00     0.026 C 
ATOM      6  C   UNL d   1      -6.091   0.059   0.775  0.00  0.00    -0.020 C 
ATOM      7  C   UNL d   1      -6.084  -1.308   0.057  0.00  0.00     0.017 C 
ATOM      8  C   UNL d   1      -5.290  -0.111   2.096  0.00  0.00     0.017 C 
ENDROOT
BRANCH   1   9
ATOM      9  C   UNL d   1      -3.957   1.359  -0.100  0.00  0.00     0.227 C 
ATOM     10  N   UNL d   1      -3.194   0.201  -0.144  0.00  0.00    -0.327 N 
ATOM     11  H   UNL d   1      -3.654  -0.691  -0.161  0.00  0.00     0.169 HD
ATOM     12  O   UNL d   1      -3.497   2.503  -0.128  0.00  0.00    -0.273 OA
BRANCH  10  13
ATOM     13  C   UNL d   1      -1.786   0.123  -0.061  0.00  0.00     0.034 A 
ATOM     14  C   UNL d   1      -1.149  -1.127  -0.027  0.00  0.00     0.030 A 
ATOM     15  C   UNL d   1       0.254  -1.199   0.003  0.00  0.00     0.009 A 
ATOM     16  C   UNL d   1       1.020  -0.028   0.007  0.00  0.00    -0.062 A 
ATOM     17  C   UNL d   1       2.515  -0.034  -0.010  0.00  0.00     0.048 C 
ATOM     18  C   UNL d   1       0.376   1.204   0.011  0.00  0.00     0.009 A 
ATOM     19  C   UNL d   1      -1.006   1.271  -0.012  0.00  0.00     0.030 A 
ENDBRANCH  10  13
ENDBRANCH   1   9
BRANCH   4  20
ATOM     20  C   UNL d   1      -8.540   0.426  -0.157  0.00  0.00     0.240 C 
ATOM     21  O   UNL d   1      -8.199   0.024  -1.274  0.00  0.00    -0.271 OA
ATOM     22  N   UNL d   1      -9.858   0.813   0.045  0.00  0.00    -0.293 N 
ATOM     23  H   UNL d   1     -10.188   1.169   0.938  0.00  0.00     0.183 HD
BRANCH  22  24
ATOM     24  N   UNL d   1     -10.802   0.537  -0.975  0.00  0.00    -0.247 NA
ATOM     25  H   UNL d   1     -10.274   0.081  -1.738  0.00  0.00     0.143 HD
ATOM     26  H   UNL d   1     -11.103   1.423  -1.387  0.00  0.00     0.143 HD
ENDBRANCH  22  24
ENDBRANCH   4  20
TORSDOF 4
