REMARK  9 active torsions:
REMARK  status: ('A' for Active; 'I' for Inactive)
REMARK    1  A    between atoms: O_2  and  C_3 
REMARK    2  A    between atoms: C_3  and  C_5 
REMARK    3  A    between atoms: C_8  and  N_9 
REMARK    4  A    between atoms: N_12  and  C_13 
REMARK    5  A    between atoms: C_13  and  C_14 
REMARK    6  A    between atoms: C_22  and  N_23 
REMARK    7  A    between atoms: N_23  and  C_24 
REMARK    8  A    between atoms: C_24  and  N_26 
REMARK       I    between atoms: N_26  and  C_27 
REMARK    9  A    between atoms: C_27  and  C_29 
ROOT
ATOM      1  C   UNL d   1       4.660  -0.994   0.954  0.00  0.00     0.041 A 
ATOM      2  C   UNL d   1       5.444  -2.083   1.244  0.00  0.00     0.020 A 
ATOM      3  C   UNL d   1       6.845  -1.911   1.374  0.00  0.00     0.033 A 
ATOM      4  C   UNL d   1       7.524  -0.656   1.201  0.00  0.00     0.057 A 
ATOM      5  C   UNL d   1       6.694   0.472   0.933  0.00  0.00     0.062 A 
ATOM      6  C   UNL d   1       5.316   0.212   0.789  0.00  0.00     0.049 A 
ENDROOT
BRANCH   5   7
ATOM      7  N   UNL d   1       7.176   1.847   0.795  0.00  0.00    -0.331 N 
ATOM      8  H   UNL d   1       8.149   1.938   0.988  0.00  0.00     0.168 HD
BRANCH   7   9
ATOM      9  C   UNL d   1       6.425   3.045   0.590  0.00  0.00     0.179 C 
ATOM     10  S   UNL d   1       4.749   3.171   0.438  0.00  0.00    -0.040 SA
BRANCH   9  11
ATOM     11  N   UNL d   1       7.197   4.226   0.500  0.00  0.00    -0.299 N 
ATOM     12  C   UNL d   1       6.608   5.497   0.318  0.00  0.00     0.257 C 
ATOM     13  O   UNL d   1       5.423   5.748   0.113  0.00  0.00    -0.267 OA
ATOM     14  H   UNL d   1       8.191   4.208   0.654  0.00  0.00     0.171 HD
BRANCH  12  15
ATOM     15  C   UNL d   1       7.403   6.718   0.289  0.00  0.00     0.033 A 
ATOM     16  C   UNL d   1       6.792   7.872   0.822  0.00  0.00     0.023 A 
ATOM     17  C   UNL d   1       7.286   9.135   0.512  0.00  0.00    -0.061 A 
ATOM     18  C   UNL d   1       6.517  10.380   0.841  0.00  0.00     0.048 C 
ATOM     19  C   UNL d   1       8.463   9.223  -0.230  0.00  0.00     0.013 A 
ATOM     20  C   UNL d   1       9.060   8.077  -0.778  0.00  0.00    -0.061 A 
ATOM     21  C   UNL d   1      10.226   8.207  -1.703  0.00  0.00     0.048 C 
ATOM     22  C   UNL d   1       8.512   6.815  -0.537  0.00  0.00     0.023 A 
ENDBRANCH  12  15
ENDBRANCH   9  11
ENDBRANCH   7   9
ENDBRANCH   5   7
BRANCH   4  23
ATOM     23  N   UNL d   1       8.915  -0.673   1.272  0.00  0.00    -0.376 N 
ATOM     24  C   UNL d   1       9.756   0.172   2.116  0.00  0.00     0.150 C 
ATOM     25  C   UNL d   1      10.583   1.155   1.244  0.00  0.00     0.255 C 
ATOM     26  N   UNL d   1      11.351   0.446   0.117  0.00  0.00    -0.064 N 
ATOM     27  C   UNL d   1      10.459  -0.593  -0.610  0.00  0.00     0.255 C 
ATOM     28  H   UNL d   1      12.136  -0.065   0.540  0.00  0.00     0.280 HD
ATOM     29  C   UNL d   1       9.691  -1.514   0.353  0.00  0.00     0.150 C 
BRANCH  26  30
ATOM     30  C   UNL d   1      11.989   1.466  -0.836  0.00  0.00     0.273 C 
BRANCH  30  31
ATOM     31  C   UNL d   1      12.943   0.890  -1.853  0.00  0.00    -0.033 A 
ATOM     32  C   UNL d   1      14.286   1.292  -1.913  0.00  0.00     0.009 A 
ATOM     33  C   UNL d   1      15.124   0.797  -2.920  0.00  0.00     0.001 A 
ATOM     34  C   UNL d   1      14.673  -0.189  -3.796  0.00  0.00     0.000 A 
ATOM     35  C   UNL d   1      13.353  -0.603  -3.742  0.00  0.00     0.001 A 
ATOM     36  C   UNL d   1      12.489  -0.011  -2.829  0.00  0.00     0.009 A 
ENDBRANCH  30  31
ENDBRANCH  26  30
ENDBRANCH   4  23
BRANCH   1  37
ATOM     37  C   UNL d   1       3.163  -0.985   0.993  0.00  0.00     0.293 C 
ATOM     38  O   UNL d   1       2.535  -1.616   1.842  0.00  0.00    -0.259 OA
BRANCH  37  39
ATOM     39  O   UNL d   1       2.615  -0.186   0.038  0.00  0.00    -0.323 OA
ATOM     40  C   UNL d   1       1.175  -0.118   0.042  0.00  0.00     0.213 C 
ENDBRANCH  37  39
ENDBRANCH   1  37
TORSDOF 9
