@<TRIPOS>MOLECULE
*****
 63 66 0 0 0
SMALL
GASTEIGER

@<TRIPOS>ATOM
      1 C           0.9524    0.0785   -0.0911 C.3     1  UNL1       -0.0613
      2 C           2.4769    0.0386   -0.0980 C.3     1  UNL1       -0.0305
      3 C           2.9347   -0.9881    0.9055 C.ar    1  UNL1       -0.0475
      4 C           2.8379   -2.3643    0.6540 C.ar    1  UNL1       -0.0568
      5 C           3.0035   -3.3059    1.6922 C.ar    1  UNL1       -0.0402
      6 C           3.3858   -2.8894    2.9724 C.ar    1  UNL1        0.0348
      7 N           3.6839   -3.8431    4.0055 N.am    1  UNL1       -0.2692
      8 C           4.3812   -3.5050    5.1662 C.2     1  UNL1        0.3082
      9 O           4.8942   -2.3942    5.3441 O.2     1  UNL1       -0.2522
     10 N           4.4452   -4.4886    6.1462 N.am    1  UNL1       -0.2675
     11 C           4.7727   -4.1363    7.5072 C.ar    1  UNL1        0.0576
     12 C           5.7055   -4.9071    8.2578 C.ar    1  UNL1       -0.0174
     13 C           5.9251   -4.6439    9.6319 C.ar    1  UNL1        0.0355
     14 N           6.6910   -5.5235   10.4574 N.am    1  UNL1       -0.2814
     15 C           6.7728   -5.4342   11.8484 C.2     1  UNL1        0.2497
     16 O           6.2252   -4.5860   12.5611 O.2     1  UNL1       -0.2698
     17 C           7.5615   -6.4240   12.6179 C.ar    1  UNL1        0.0553
     18 C           7.0894   -6.7153   13.9200 C.ar    1  UNL1       -0.0482
     19 C           7.8902   -7.3863   14.8424 C.ar    1  UNL1       -0.0610
     20 C           9.1433   -7.8415   14.4520 C.ar    1  UNL1       -0.0603
     21 C           9.6015   -7.5986   13.1536 C.ar    1  UNL1       -0.0427
     22 C           8.8190   -6.8881   12.2335 C.ar    1  UNL1        0.0531
     23 CL          9.5045   -6.5964   10.6773 Cl      1  UNL1       -0.0828
     24 C           5.3141   -3.5256   10.1872 C.ar    1  UNL1       -0.0386
     25 C           4.4152   -2.7624    9.4638 C.ar    1  UNL1       -0.0371
     26 C           4.1090   -3.0480    8.1315 C.ar    1  UNL1        0.0514
     27 N           3.1082   -2.2857    7.5640 N.pl3   1  UNL1       -0.3285
     28 C           3.3081   -0.8513    7.3878 C.3     1  UNL1        0.0122
     29 C           2.0903   -0.1491    7.9772 C.3     1  UNL1       -0.0372
     30 C           0.7913   -0.7077    7.3775 C.3     1  UNL1       -0.0502
     31 C           0.7252   -2.2388    7.4529 C.3     1  UNL1       -0.0372
     32 C           1.9803   -2.8610    6.8620 C.3     1  UNL1        0.0122
     33 C           3.4823   -1.5080    3.1909 C.ar    1  UNL1       -0.0402
     34 C           3.2848   -0.5699    2.1811 C.ar    1  UNL1       -0.0568
     35 H           0.5775    0.8237   -0.7964 H       1  UNL1        0.0233
     36 H           0.5693    0.3285    0.9063 H       1  UNL1        0.0233
     37 H           0.5331   -0.8959   -0.3657 H       1  UNL1        0.0233
     38 H           2.8657    1.0321    0.1636 H       1  UNL1        0.0311
     39 H           2.8586   -0.1967   -1.0966 H       1  UNL1        0.0311
     40 H           2.5983   -2.7038   -0.3523 H       1  UNL1        0.0621
     41 H           2.8177   -4.3516    1.4656 H       1  UNL1        0.0636
     42 H           3.5559   -4.8200    3.7831 H       1  UNL1        0.1564
     43 H           4.5222   -5.4555    5.8755 H       1  UNL1        0.1564
     44 H           6.2888   -5.6749    7.7567 H       1  UNL1        0.0655
     45 H           7.1424   -6.3102   10.0053 H       1  UNL1        0.1551
     46 H           6.1048   -6.3664   14.2370 H       1  UNL1        0.0625
     47 H           7.5511   -7.5171   15.8684 H       1  UNL1        0.0618
     48 H           9.7699   -8.3772   15.1609 H       1  UNL1        0.0618
     49 H          10.5971   -7.9348   12.8749 H       1  UNL1        0.0632
     50 H           5.4788   -3.2068   11.2076 H       1  UNL1        0.0637
     51 H           3.8812   -1.9765    9.9921 H       1  UNL1        0.0637
     52 H           3.3687   -0.6112    6.3211 H       1  UNL1        0.0464
     53 H           4.2356   -0.4824    7.8428 H       1  UNL1        0.0464
     54 H           2.1571    0.9285    7.7941 H       1  UNL1        0.0280
     55 H           2.0818   -0.3012    9.0628 H       1  UNL1        0.0280
     56 H           0.7210   -0.3988    6.3267 H       1  UNL1        0.0266
     57 H          -0.0681   -0.2812    7.9023 H       1  UNL1        0.0266
     58 H          -0.1511   -2.6100    6.9128 H       1  UNL1        0.0280
     59 H           0.6322   -2.5490    8.5004 H       1  UNL1        0.0280
     60 H           2.0244   -2.6058    5.7991 H       1  UNL1        0.0464
     61 H           1.9369   -3.9513    6.9538 H       1  UNL1        0.0464
     62 H           3.6897   -1.0947    4.1687 H       1  UNL1        0.0636
     63 H           3.3776    0.4862    2.4233 H       1  UNL1        0.0621
@<TRIPOS>BOND
     1     1     2    1
     2     2     3    1
     3     3     4   ar
     4     4     5   ar
     5     5     6   ar
     6     6     7    1
     7     7     8   am
     8     8     9    2
     9     8    10   am
    10    10    11    1
    11    11    12   ar
    12    12    13   ar
    13    13    14    1
    14    14    15   am
    15    15    16    2
    16    15    17    1
    17    17    18   ar
    18    18    19   ar
    19    19    20   ar
    20    20    21   ar
    21    21    22   ar
    22    17    22   ar
    23    22    23    1
    24    13    24   ar
    25    24    25   ar
    26    25    26   ar
    27    11    26   ar
    28    26    27    1
    29    27    28    1
    30    28    29    1
    31    29    30    1
    32    30    31    1
    33    31    32    1
    34    27    32    1
    35     6    33   ar
    36    33    34   ar
    37     3    34   ar
    38     1    35    1
    39     1    36    1
    40     1    37    1
    41     2    38    1
    42     2    39    1
    43     4    40    1
    44     5    41    1
    45     7    42    1
    46    10    43    1
    47    12    44    1
    48    14    45    1
    49    18    46    1
    50    19    47    1
    51    20    48    1
    52    21    49    1
    53    24    50    1
    54    25    51    1
    55    28    52    1
    56    28    53    1
    57    29    54    1
    58    29    55    1
    59    30    56    1
    60    30    57    1
    61    31    58    1
    62    31    59    1
    63    32    60    1
    64    32    61    1
    65    33    62    1
    66    34    63    1
