REMARK  5 active torsions:
REMARK  status: ('A' for Active; 'I' for Inactive)
REMARK    1  A    between atoms: C_2  and  C_3 
REMARK       I    between atoms: C_2  and  N_21 
REMARK    2  A    between atoms: C_3  and  N_4 
REMARK    3  A    between atoms: N_7  and  C_8 
REMARK    4  A    between atoms: C_8  and  C_9 
REMARK    5  A    between atoms: N_21  and  C_22 
ROOT
ATOM      1  N   UNL d   1       2.026   0.137   2.312  0.00  0.00     0.100 N 
ATOM      2  C   UNL d   1       2.349  -0.989   3.241  0.00  0.00     0.303 C 
ATOM      3  C   UNL d   1       3.738  -0.878   3.958  0.00  0.00     0.303 C 
ATOM      4  N   UNL d   1       3.944   0.439   4.624  0.00  0.00     0.097 N 
ATOM      5  C   UNL d   1       3.765   1.455   3.560  0.00  0.00     0.303 C 
ATOM      6  C   UNL d   1       2.324   1.422   2.955  0.00  0.00     0.303 C 
ENDROOT
BRANCH   1   7
ATOM      7  C   UNL d   1       2.898   0.058   1.128  0.00  0.00     0.375 C 
BRANCH   7   8
ATOM      8  C   UNL d   1       2.187  -0.031  -0.236  0.00  0.00     0.250 C 
ATOM      9  O   UNL d   1       0.970  -0.108  -0.381  0.00  0.00    -0.271 OA
ATOM     10  N   UNL d   1       3.063   0.082  -1.336  0.00  0.00    -0.326 N 
ATOM     11  H   UNL d   1       2.624   0.155  -2.250  0.00  0.00     0.169 HD
BRANCH  10  12
ATOM     12  C   UNL d   1       4.453  -0.124  -1.187  0.00  0.00     0.037 C 
ATOM     13  C   UNL d   1       5.537   0.466  -1.758  0.00  0.00     0.029 C 
ATOM     14  C   UNL d   1       6.972   0.171  -1.132  0.00  0.00     0.024 C 
ATOM     15  C   UNL d   1       7.035  -0.606   0.088  0.00  0.00     0.168 C 
ATOM     16  C   UNL d   1       6.187  -1.513  -0.300  0.00  0.00     0.090 C 
ATOM     17  O   UNL d   1       7.771  -1.255   0.881  0.00  0.00    -0.365 OA
ATOM     18  C   UNL d   1       4.827  -1.234  -0.475  0.00  0.00     0.065 C 
ATOM     19  O   UNL d   1       6.527  -2.798  -0.772  0.00  0.00    -0.352 OA
ATOM     20  C   UNL d   1       6.355  -3.671   0.341  0.00  0.00     0.177 C 
ATOM     21  C   UNL d   1       7.642  -3.838   0.982  0.00  0.00     0.053 C 
ATOM     22  C   UNL d   1       7.614  -2.464   1.809  0.00  0.00     0.172 C 
ENDBRANCH  10  12
ENDBRANCH   7   8
ENDBRANCH   1   7
BRANCH   4  23
ATOM     23  C   UNL d   1       2.979   0.580   5.732  0.00  0.00     0.329 C 
BRANCH  23  24
ATOM     24  C   UNL d   1       3.013   1.928   6.433  0.00  0.00     0.044 C 
ATOM     25  C   UNL d   1       2.685   3.086   5.828  0.00  0.00     0.101 C 
ATOM     26  C   UNL d   1       2.895   4.351   6.481  0.00  0.00     0.255 C 
ATOM     27  O   UNL d   1       2.797   5.435   5.946  0.00  0.00    -0.268 OA
ATOM     28  N   UNL d   1       3.220   4.218   7.825  0.00  0.00    -0.269 N 
ATOM     29  C   UNL d   1       3.330   5.281   8.688  0.00  0.00     0.109 A 
ATOM     30  C   UNL d   1       3.431   3.057   8.414  0.00  0.00     0.158 A 
ATOM     31  C   UNL d   1       3.592   4.908   9.948  0.00  0.00     0.071 A 
ATOM     32  S   UNL d   1       3.764   3.173  10.113  0.00  0.00    -0.064 SA
ATOM     33  N   UNL d   1       3.377   1.921   7.763  0.00  0.00    -0.338 N 
ATOM     34  H   UNL d   1       3.577   1.062   8.268  0.00  0.00     0.168 HD
ENDBRANCH  23  24
ENDBRANCH   4  23
TORSDOF 5
