@<TRIPOS>MOLECULE
*****
 55 57 0 0 0
SMALL
GASTEIGER

@<TRIPOS>ATOM
      1 C           1.0840    0.0984   -0.1107 C.3     1  UNL1        0.0790
      2 O           2.5105    0.0381   -0.0950 O.3     1  UNL1       -0.4914
      3 C           3.1907    0.8117   -1.0076 C.ar    1  UNL1        0.1634
      4 C           2.8121    2.1378   -1.2721 C.ar    1  UNL1       -0.0080
      5 C           3.6017    2.9490   -2.0944 C.ar    1  UNL1        0.0021
      6 C           3.2286    4.3807   -2.3430 C.3     1  UNL1       -0.0075
      7 N           4.2107    5.0819   -3.2185 N.4     1  UNL1        0.2314
      8 C           3.8812    6.5058   -3.4836 C.3     1  UNL1       -0.0175
      9 C           4.9573    7.1094   -4.3847 C.3     1  UNL1        0.0492
     10 N           4.6285    8.4684   -4.7694 N.pl3   1  UNL1       -0.3376
     11 C           5.4791    9.1747   -5.6210 C.ar    1  UNL1        0.0463
     12 C           5.9213   10.4570   -5.2350 C.ar    1  UNL1       -0.0330
     13 C           6.8471   11.1739   -6.0124 C.ar    1  UNL1        0.0174
     14 C           7.3491   10.6006   -7.1866 C.ar    1  UNL1        0.2747
     15 N           8.3339   11.3147   -8.0065 N.pl3   1  UNL1        0.0796
     16 O           8.7069   12.4243   -7.6250 O.2     1  UNL1        0.0414
     17 O           8.7371   10.7411   -9.0348 O.co2   1  UNL1       -0.5760
     18 C           6.9154    9.3439   -7.5977 C.ar    1  UNL1        0.0357
     19 C           5.9822    8.6495   -6.8335 C.ar    1  UNL1        0.0682
     20 CL          5.3897    7.1867   -7.5532 Cl      1  UNL1       -0.0814
     21 C           4.7546    2.3987   -2.6562 C.ar    1  UNL1       -0.0314
     22 C           5.1431    1.0847   -2.4235 C.ar    1  UNL1        0.0866
     23 CL          6.6058    0.7033   -3.2784 Cl      1  UNL1       -0.0796
     24 C           4.3763    0.2684   -1.5778 C.ar    1  UNL1        0.1806
     25 O           4.6402   -1.0318   -1.2228 O.3     1  UNL1       -0.4822
     26 C           5.8097   -1.6339   -1.7646 C.3     1  UNL1        0.1163
     27 C           5.9348   -3.0436   -1.3037 C.ar    1  UNL1        0.0077
     28 C           6.2402   -3.3443    0.0218 C.ar    1  UNL1       -0.0525
     29 C           6.3044   -4.6731    0.4112 C.ar    1  UNL1       -0.0432
     30 C           6.0752   -5.6487   -0.5466 C.ar    1  UNL1        0.0276
     31 N           5.8260   -5.3901   -1.8484 N.ar    1  UNL1       -0.2629
     32 C           5.7640   -4.0927   -2.1990 C.ar    1  UNL1        0.0339
     33 H           0.7128   -0.5792    0.6667 H       1  UNL1        0.0660
     34 H           0.6908   -0.2466   -1.0720 H       1  UNL1        0.0660
     35 H           0.6970    1.0933    0.1311 H       1  UNL1        0.0660
     36 H           1.9265    2.5596   -0.8018 H       1  UNL1        0.0660
     37 H           3.2059    4.9347   -1.3997 H       1  UNL1        0.0866
     38 H           2.2606    4.4366   -2.8495 H       1  UNL1        0.0866
     39 H           4.2646    4.5769   -4.1163 H       1  UNL1        0.2017
     40 H           5.1425    5.0258   -2.7831 H       1  UNL1        0.2017
     41 H           3.8312    7.0181   -2.5200 H       1  UNL1        0.0829
     42 H           2.9045    6.5190   -3.9765 H       1  UNL1        0.0829
     43 H           5.0103    6.4486   -5.2484 H       1  UNL1        0.0514
     44 H           5.9384    7.0575   -3.8943 H       1  UNL1        0.0514
     45 H           3.9319    9.0064   -4.2607 H       1  UNL1        0.1463
     46 H           5.5654   10.9174   -4.3128 H       1  UNL1        0.0638
     47 H           7.1715   12.1628   -5.6892 H       1  UNL1        0.0686
     48 H           7.2778    8.8980   -8.5215 H       1  UNL1        0.0701
     49 H           5.4139    2.9760   -3.2973 H       1  UNL1        0.0638
     50 H           6.7044   -1.1009   -1.4227 H       1  UNL1        0.0748
     51 H           5.7372   -1.6491   -2.8571 H       1  UNL1        0.0748
     52 H           6.4154   -2.5495    0.7427 H       1  UNL1        0.0622
     53 H           6.5142   -4.9415    1.4393 H       1  UNL1        0.0633
     54 H           6.0810   -6.7009   -0.2825 H       1  UNL1        0.0829
     55 H           5.5682   -3.9131   -3.2537 H       1  UNL1        0.0833
@<TRIPOS>UNITY_ATOM_ATTR
7 1
charge 1
15 1
charge 1
17 1
charge -1
@<TRIPOS>BOND
     1     1     2    1
     2     2     3    1
     3     3     4   ar
     4     4     5   ar
     5     5     6    1
     6     6     7    1
     7     7     8    1
     8     8     9    1
     9     9    10    1
    10    10    11    1
    11    11    12   ar
    12    12    13   ar
    13    13    14   ar
    14    14    15    1
    15    15    16    2
    16    15    17    1
    17    14    18   ar
    18    18    19   ar
    19    11    19   ar
    20    19    20    1
    21     5    21   ar
    22    21    22   ar
    23    22    23    1
    24    22    24   ar
    25     3    24   ar
    26    24    25    1
    27    25    26    1
    28    26    27    1
    29    27    28   ar
    30    28    29   ar
    31    29    30   ar
    32    30    31   ar
    33    31    32   ar
    34    27    32   ar
    35     1    33    1
    36     1    34    1
    37     1    35    1
    38     4    36    1
    39     6    37    1
    40     6    38    1
    41     7    39    1
    42     7    40    1
    43     8    41    1
    44     8    42    1
    45     9    43    1
    46     9    44    1
    47    10    45    1
    48    12    46    1
    49    13    47    1
    50    18    48    1
    51    21    49    1
    52    26    50    1
    53    26    51    1
    54    28    52    1
    55    29    53    1
    56    30    54    1
    57    32    55    1
