REMARK  10 active torsions:
REMARK  status: ('A' for Active; 'I' for Inactive)
REMARK    1  A    between atoms: C_7  and  N_8 
REMARK       I    between atoms: N_8  and  C_9 
REMARK    2  A    between atoms: C_9  and  C_11 
REMARK    3  A    between atoms: C_14  and  N_15 
REMARK    4  A    between atoms: N_15  and  C_16 
REMARK    5  A    between atoms: C_16  and  C_17 
REMARK    6  A    between atoms: C_17  and  C_18 
REMARK    7  A    between atoms: C_17  and  C_20 
REMARK    8  A    between atoms: C_18  and  O_19 
REMARK    9  A    between atoms: C_20  and  C_21 
REMARK   10  A    between atoms: C_26  and  N_27 
ROOT
ATOM      1  N   UNL d   1      -3.085   0.033   0.033  0.00  0.00    -0.191 NA
ATOM      2  C   UNL d   1      -1.931   0.061  -0.020  0.00  0.00     0.099 C 
ATOM      3  C   UNL d   1      -0.495   0.058  -0.049  0.00  0.00     0.046 A 
ATOM      4  C   UNL d   1       0.242   1.234  -0.038  0.00  0.00     0.023 A 
ATOM      5  C   UNL d   1       1.637   1.167   0.016  0.00  0.00     0.004 A 
ATOM      6  C   UNL d   1       2.297  -0.078   0.059  0.00  0.00     0.029 A 
ATOM      7  C   UNL d   1       1.558  -1.269   0.012  0.00  0.00     0.036 A 
ATOM      8  C   UNL d   1       0.166  -1.167  -0.048  0.00  0.00     0.052 A 
ENDROOT
BRANCH   7   9
ATOM      9  N   UNL d   1       2.205  -2.538   0.029  0.00  0.00    -0.323 N 
ATOM     10  C   UNL d   1       1.534  -3.760  -0.070  0.00  0.00     0.256 C 
ATOM     11  O   UNL d   1       0.324  -3.938  -0.162  0.00  0.00    -0.267 OA
ATOM     12  H   UNL d   1       3.218  -2.536   0.084  0.00  0.00     0.169 HD
BRANCH  10  13
ATOM     13  C   UNL d   1       2.321  -5.006  -0.023  0.00  0.00     0.034 A 
ATOM     14  C   UNL d   1       1.926  -6.103  -0.782  0.00  0.00     0.019 A 
ATOM     15  C   UNL d   1       2.503  -7.355  -0.538  0.00  0.00     0.032 A 
ATOM     16  C   UNL d   1       3.554  -7.550   0.409  0.00  0.00     0.061 A 
ATOM     17  C   UNL d   1       3.908  -6.416   1.202  0.00  0.00     0.130 A 
ATOM     18  C   UNL d   1       3.288  -5.167   0.953  0.00  0.00     0.055 A 
BRANCH  16  19
ATOM     19  N   UNL d   1       3.991  -8.886   0.493  0.00  0.00    -0.387 N 
ATOM     20  H   UNL d   1       3.909  -9.403  -0.387  0.00  0.00     0.159 HD
BRANCH  19  21
ATOM     21  C   UNL d   1       5.218  -9.179   1.205  0.00  0.00     0.127 C 
BRANCH  21  22
ATOM     22  C   UNL d   1       5.839 -10.543   1.017  0.00  0.00     0.033 C 
BRANCH  22  23
ATOM     23  C   UNL d   1       6.338 -10.694  -0.416  0.00  0.00     0.170 C 
BRANCH  23  24
ATOM     24  O   UNL d   1       5.252 -10.554  -1.327  0.00  0.00    -0.400 OA
ATOM     25  H   UNL d   1       4.600 -11.232  -1.073  0.00  0.00     0.209 HD
ENDBRANCH  23  24
ENDBRANCH  22  23
BRANCH  22  26
ATOM     26  C   UNL d   1       7.000 -10.657   2.031  0.00  0.00     0.073 C 
BRANCH  26  27
ATOM     27  C   UNL d   1       7.681 -11.964   1.924  0.00  0.00     0.053 A 
ATOM     28  C   UNL d   1       8.962 -12.288   1.545  0.00  0.00     0.034 A 
ATOM     29  C   UNL d   1       9.014 -13.696   1.504  0.00  0.00     0.027 A 
ATOM     30  C   UNL d   1       7.762 -14.140   1.866  0.00  0.00     0.142 A 
ATOM     31  O   UNL d   1       6.940 -13.088   2.124  0.00  0.00    -0.327 OA
ENDBRANCH  26  27
ENDBRANCH  22  26
ENDBRANCH  21  22
ENDBRANCH  19  21
ENDBRANCH  16  19
BRANCH  17  32
ATOM     32  N   UNL d   1       4.870  -6.327   2.351  0.00  0.00    -0.113 N 
ATOM     33  O   UNL d   1       5.529  -7.285   2.745  0.00  0.00    -0.532 OA
ATOM     34  O   UNL d   1       4.996  -5.218   2.891  0.00  0.00    -0.532 OA
ENDBRANCH  17  32
ENDBRANCH  10  13
ENDBRANCH   7   9
TORSDOF 10
