REMARK  5 active torsions:
REMARK  status: ('A' for Active; 'I' for Inactive)
REMARK       I    between atoms: C_2  and  N_4 
REMARK    1  A    between atoms: N_7  and  C_8 
REMARK    2  A    between atoms: C_11  and  N_12 
REMARK    3  A    between atoms: N_12  and  C_13 
REMARK    4  A    between atoms: C_13  and  N_15 
REMARK       I    between atoms: N_15  and  C_16 
REMARK    5  A    between atoms: C_16  and  C_18 
ROOT
ATOM      1  N   UNL d   1       5.899   9.226  -1.313  0.00  0.00    -0.333 N 
ATOM      2  H   UNL d   1       5.980   9.707  -2.205  0.00  0.00     0.168 HD
ENDROOT
BRANCH   1   3
ATOM      3  C   UNL d   1       5.327   7.870  -1.413  0.00  0.00     0.036 A 
ATOM      4  C   UNL d   1       4.921   7.255  -2.605  0.00  0.00     0.032 A 
ATOM      5  C   UNL d   1       4.358   5.921  -2.600  0.00  0.00     0.033 A 
ATOM      6  C   UNL d   1       4.162   5.161  -1.422  0.00  0.00     0.052 A 
ATOM      7  C   UNL d   1       4.599   5.779  -0.266  0.00  0.00     0.062 A 
ATOM      8  C   UNL d   1       5.140   7.062  -0.300  0.00  0.00     0.055 A 
ATOM      9 CL   UNL d   1       4.593   5.059   1.311  0.00  0.00    -0.082 Cl
BRANCH   6  10
ATOM     10  N   UNL d   1       3.527   3.931  -1.429  0.00  0.00    -0.376 N 
ATOM     11  C   UNL d   1       4.145   2.731  -2.028  0.00  0.00     0.143 C 
ATOM     12  C   UNL d   1       4.354   1.590  -0.979  0.00  0.00     0.145 C 
ATOM     13  N   UNL d   1       3.103   1.356  -0.233  0.00  0.00    -0.349 N 
ATOM     14  C   UNL d   1       2.568   0.108   0.016  0.00  0.00     0.215 C 
ATOM     15  C   UNL d   1       2.633   2.542   0.462  0.00  0.00     0.145 C 
ATOM     16  C   UNL d   1       1.050   0.065   0.088  0.00  0.00     0.117 C 
ATOM     17  O   UNL d   1       3.238  -0.926   0.046  0.00  0.00    -0.274 OA
ATOM     18  C   UNL d   1       2.374   3.678  -0.537  0.00  0.00     0.143 C 
ENDBRANCH   6  10
ENDBRANCH   1   3
BRANCH   1  19
ATOM     19  C   UNL d   1       6.335   9.896  -0.116  0.00  0.00     0.179 C 
ATOM     20  S   UNL d   1       6.290   9.265   1.452  0.00  0.00    -0.040 SA
BRANCH  19  21
ATOM     21  N   UNL d   1       6.845  11.209  -0.283  0.00  0.00    -0.299 N 
ATOM     22  C   UNL d   1       7.352  11.984   0.795  0.00  0.00     0.257 C 
ATOM     23  O   UNL d   1       7.383  11.678   1.990  0.00  0.00    -0.267 OA
ATOM     24  H   UNL d   1       6.918  11.605  -1.210  0.00  0.00     0.171 HD
BRANCH  22  25
ATOM     25  C   UNL d   1       7.927  13.313   0.604  0.00  0.00     0.035 A 
ATOM     26  C   UNL d   1       9.064  13.636   1.381  0.00  0.00     0.020 A 
ATOM     27  C   UNL d   1       9.577  14.927   1.385  0.00  0.00     0.040 A 
ATOM     28  C   UNL d   1       8.935  15.905   0.637  0.00  0.00     0.102 A 
ATOM     29  C   UNL d   1       7.782  15.588  -0.102  0.00  0.00     0.103 A 
ATOM     30  O   UNL d   1       9.492  17.155   0.667  0.00  0.00    -0.346 OA
ATOM     31  C   UNL d   1       7.258  14.297  -0.105  0.00  0.00     0.056 A 
ATOM     32  O   UNL d   1       7.093  16.513  -0.842  0.00  0.00    -0.346 OA
ATOM     33  C   UNL d   1       7.899  17.664  -1.103  0.00  0.00     0.202 C 
ATOM     34  C   UNL d   1       8.595  18.146   0.159  0.00  0.00     0.202 C 
ENDBRANCH  22  25
ENDBRANCH  19  21
ENDBRANCH   1  19
TORSDOF 5
