REMARK  4 active torsions:
REMARK  status: ('A' for Active; 'I' for Inactive)
REMARK    1  A    between atoms: C_7  and  S_8 
REMARK    2  A    between atoms: S_8  and  C_9 
REMARK    3  A    between atoms: C_9  and  C_10 
REMARK       I    between atoms: C_10  and  N_12 
REMARK    4  A    between atoms: N_12  and  N_13 
ROOT
ATOM      1  C   UNL d   1       8.822   3.620   0.179  0.00  0.00     0.246 C 
ATOM      2  O   UNL d   1      10.001   3.329   0.323  0.00  0.00    -0.271 OA
ATOM      3  N   UNL d   1       8.340   4.940   0.104  0.00  0.00    -0.256 N 
ATOM      4  H   UNL d   1       7.364   5.226   0.121  0.00  0.00     0.191 HD
ENDROOT
BRANCH   1   5
ATOM      5  C   UNL d   1       7.718   2.610   0.107  0.00  0.00     0.187 C 
BRANCH   5   6
ATOM      6  S   UNL d   1       8.085   0.869   0.109  0.00  0.00    -0.080 SA
BRANCH   6   7
ATOM      7  C   UNL d   1       6.629  -0.129   0.100  0.00  0.00     0.211 A 
ATOM      8  N   UNL d   1       5.260   0.159   0.092  0.00  0.00    -0.122 N 
ATOM      9  C   UNL d   1       4.455   1.307   0.088  0.00  0.00     0.035 A 
ATOM     10  C   UNL d   1       4.622  -1.102   0.088  0.00  0.00     0.754 A 
ATOM     11  C   UNL d   1       3.128   1.211   0.076  0.00  0.00     0.053 A 
ATOM     12  C   UNL d   1       4.932   2.684   0.100  0.00  0.00     0.069 C 
ATOM     13  C   UNL d   1       2.551  -0.135   0.078  0.00  0.00     0.051 A 
ATOM     14  C   UNL d   1       1.047  -0.132   0.078  0.00  0.00     0.071 C 
ATOM     15  N   UNL d   1       3.248  -1.233   0.082  0.00  0.00    -0.066 NA
ATOM     16  N   UNL d   1       5.543  -2.041   0.092  0.00  0.00     0.047 NA
ATOM     17  N   UNL d   1       6.778  -1.442   0.099  0.00  0.00    -0.107 NA
ENDBRANCH   6   7
ENDBRANCH   5   6
ENDBRANCH   1   5
BRANCH   3  18
ATOM     18  N   UNL d   1       9.276   5.961   0.089  0.00  0.00    -0.167 N 
ATOM     19  C   UNL d   1       9.250   7.065   0.910  0.00  0.00     0.345 A 
ATOM     20  O   UNL d   1       8.396   7.394   1.706  0.00  0.00    -0.245 OA
ATOM     21  N   UNL d   1      10.397   7.794   0.640  0.00  0.00    -0.323 N 
ATOM     22  C   UNL d   1      11.207   7.186  -0.403  0.00  0.00     0.117 A 
ATOM     23  H   UNL d   1      10.615   8.648   1.139  0.00  0.00     0.165 HD
ATOM     24  C   UNL d   1      11.313   8.080  -1.637  0.00  0.00     0.041 C 
ATOM     25  C   UNL d   1      12.579   6.755   0.115  0.00  0.00     0.041 C 
ATOM     26  C   UNL d   1      10.357   5.965  -0.756  0.00  0.00     0.275 A 
ATOM     27  C   UNL d   1      12.205   9.287  -1.375  0.00  0.00     0.003 C 
ATOM     28  C   UNL d   1      13.573   8.869  -0.843  0.00  0.00     0.000 C 
ATOM     29  C   UNL d   1      13.464   7.969   0.387  0.00  0.00     0.003 C 
ATOM     30  O   UNL d   1      10.599   5.178  -1.665  0.00  0.00    -0.268 OA
ENDBRANCH   3  18
TORSDOF 4
