REMARK  7 active torsions:
REMARK  status: ('A' for Active; 'I' for Inactive)
REMARK    1  A    between atoms: C_7  and  C_8 
REMARK    2  A    between atoms: C_8  and  C_9 
REMARK    3  A    between atoms: C_8  and  N_16 
REMARK       I    between atoms: C_9  and  N_11 
REMARK    4  A    between atoms: N_11  and  C_12 
REMARK       I    between atoms: N_16  and  C_17 
REMARK    5  A    between atoms: N_16  and  C_28 
REMARK    6  A    between atoms: C_17  and  C_19 
REMARK    7  A    between atoms: C_23  and  N_24 
ROOT
ATOM      1  N   UNL d   1       2.473   2.425  -0.345  0.00  0.00    -0.296 N 
ATOM      2  C   UNL d   1       3.213   1.239  -0.653  0.00  0.00     0.259 C 
ATOM      3  O   UNL d   1       4.285   1.090  -0.034  0.00  0.00    -0.267 OA
ENDROOT
BRANCH   1   4
ATOM      4  C   UNL d   1       1.021   2.468   0.081  0.00  0.00     0.219 C 
BRANCH   4   5
ATOM      5  C   UNL d   1       0.301   1.100   0.210  0.00  0.00    -0.020 C 
ATOM      6  C   UNL d   1      -1.114   1.121  -0.006  0.00  0.00     0.010 C 
ATOM      7  C   UNL d   1      -1.872  -0.041  -0.006  0.00  0.00     0.001 C 
ATOM      8  C   UNL d   1      -1.221  -1.255   0.066  0.00  0.00     0.001 C 
ATOM      9  C   UNL d   1       0.148  -1.303   0.296  0.00  0.00     0.007 C 
ATOM     10  C   UNL d   1       0.913  -0.153   0.526  0.00  0.00    -0.053 C 
ATOM     11  C   UNL d   1       2.318  -0.446   1.058  0.00  0.00     0.049 C 
ENDBRANCH   4   5
BRANCH   4  12
ATOM     12  C   UNL d   1       0.628   3.207   1.383  0.00  0.00     0.246 C 
ATOM     13  O   UNL d   1       1.425   3.233   2.352  0.00  0.00    -0.271 OA
ATOM     14  N   UNL d   1      -0.642   3.757   1.492  0.00  0.00    -0.351 N 
ATOM     15  H   UNL d   1      -1.350   3.602   0.787  0.00  0.00     0.163 HD
BRANCH  14  16
ATOM     16  C   UNL d   1      -1.067   4.494   2.683  0.00  0.00     0.022 C 
ATOM     17  C   UNL d   1      -0.772   3.698   3.965  0.00  0.00     0.037 C 
ATOM     18  C   UNL d   1      -0.338   5.839   2.685  0.00  0.00     0.037 C 
ATOM     19  C   UNL d   1      -2.583   4.754   2.641  0.00  0.00     0.037 C 
ENDBRANCH  14  16
ENDBRANCH   4  12
ENDBRANCH   1   4
BRANCH   1  20
ATOM     20  C   UNL d   1       3.365   3.563  -0.161  0.00  0.00     0.040 A 
ATOM     21  C   UNL d   1       4.573   3.506  -0.891  0.00  0.00     0.030 A 
ATOM     22  C   UNL d   1       5.620   4.379  -0.676  0.00  0.00     0.004 A 
ATOM     23  C   UNL d   1       5.430   5.442   0.187  0.00  0.00     0.024 A 
ATOM     24  C   UNL d   1       4.246   5.547   0.906  0.00  0.00     0.036 A 
ATOM     25 CL   UNL d   1       4.042   6.799   2.072  0.00  0.00    -0.084 Cl
ATOM     26  C   UNL d   1       3.213   4.632   0.716  0.00  0.00     0.053 A 
ENDBRANCH   1  20
BRANCH   2  27
ATOM     27  C   UNL d   1       2.658   0.061  -1.641  0.00  0.00     0.035 A 
ATOM     28  C   UNL d   1       3.028  -1.369  -1.559  0.00  0.00     0.017 A 
ATOM     29  C   UNL d   1       2.278  -2.420  -2.136  0.00  0.00     0.003 A 
ATOM     30  C   UNL d   1       1.181  -2.073  -2.904  0.00  0.00     0.036 A 
ATOM     31  C   UNL d   1       0.801  -0.709  -2.985  0.00  0.00     0.103 A 
ATOM     32  C   UNL d   1       1.513   0.338  -2.367  0.00  0.00     0.053 A 
BRANCH  31  33
ATOM     33  N   UNL d   1      -0.405  -0.347  -3.729  0.00  0.00    -0.116 N 
ATOM     34  O   UNL d   1      -0.924  -1.200  -4.438  0.00  0.00    -0.532 OA
ATOM     35  O   UNL d   1      -0.808   0.836  -3.623  0.00  0.00    -0.532 OA
ENDBRANCH  31  33
ENDBRANCH   2  27
TORSDOF 7
