REMARK  7 active torsions:
REMARK  status: ('A' for Active; 'I' for Inactive)
REMARK    1  A    between atoms: C_2  and  N_11 
REMARK    2  A    between atoms: C_2  and  C_3 
REMARK    3  A    between atoms: C_3  and  C_4 
REMARK    4  A    between atoms: C_7  and  O_8 
REMARK       I    between atoms: N_11  and  C_12 
REMARK       I    between atoms: C_12  and  N_14 
REMARK    5  A    between atoms: N_14  and  N_15 
REMARK    6  A    between atoms: N_15  and  C_16 
REMARK    7  A    between atoms: C_19  and  N_20 
ROOT
ATOM      1  N   UNL d   1       3.125   0.482  -1.457  0.00  0.00    -0.338 N 
ATOM      2  C   UNL d   1       4.486   0.711  -1.573  0.00  0.00     0.331 C 
ATOM      3  O   UNL d   1       5.303   0.357  -0.719  0.00  0.00    -0.246 OA
ATOM      4  N   UNL d   1       4.873   1.352  -2.736  0.00  0.00    -0.267 N 
ATOM      5  H   UNL d   1       2.496   0.981  -2.068  0.00  0.00     0.164 HD
ATOM      6  H   UNL d   1       4.234   1.618  -3.473  0.00  0.00     0.186 HD
ENDROOT
BRANCH   1   7
ATOM      7  C   UNL d   1       2.586  -0.084  -0.207  0.00  0.00     0.086 C 
ATOM      8  C   UNL d   1       3.019  -1.542  -0.027  0.00  0.00     0.032 C 
BRANCH   7   9
ATOM      9  C   UNL d   1       1.036  -0.004  -0.070  0.00  0.00     0.063 C 
BRANCH   9  10
ATOM     10  C   UNL d   1       0.486   0.551   1.240  0.00  0.00    -0.056 A 
ATOM     11  C   UNL d   1       1.293   0.933   2.324  0.00  0.00     0.010 A 
ATOM     12  C   UNL d   1       0.743   1.413   3.514  0.00  0.00     0.037 A 
ATOM     13  C   UNL d   1      -0.633   1.504   3.639  0.00  0.00     0.065 A 
ATOM     14  C   UNL d   1      -1.462   1.126   2.592  0.00  0.00     0.037 A 
ATOM     15  C   UNL d   1      -0.908   0.655   1.396  0.00  0.00     0.010 A 
BRANCH  13  16
ATOM     16  O   UNL d   1      -1.212   1.960   4.786  0.00  0.00    -0.361 OA
ATOM     17  H   UNL d   1      -0.509   2.196   5.413  0.00  0.00     0.217 HD
ENDBRANCH  13  16
ENDBRANCH   9  10
ENDBRANCH   7   9
ENDBRANCH   1   7
BRANCH   4  18
ATOM     18  N   UNL d   1       6.268   1.629  -2.880  0.00  0.00    -0.183 NA
ATOM     19  H   UNL d   1       6.843   0.858  -2.524  0.00  0.00     0.154 HD
BRANCH  18  20
ATOM     20  C   UNL d   1       6.738   2.087  -4.134  0.00  0.00     0.143 A 
ATOM     21  C   UNL d   1       6.201   3.237  -4.701  0.00  0.00     0.051 A 
ATOM     22  C   UNL d   1       6.810   3.839  -5.814  0.00  0.00     0.058 A 
ATOM     23  C   UNL d   1       7.912   3.229  -6.393  0.00  0.00     0.172 A 
ATOM     24  N   UNL d   1       8.389   2.073  -5.890  0.00  0.00    -0.129 NA
ATOM     25  N   UNL d   1       7.819   1.528  -4.722  0.00  0.00    -0.135 NA
BRANCH  23  26
ATOM     26  N   UNL d   1       8.560   3.860  -7.492  0.00  0.00    -0.225 N 
ATOM     27  C   UNL d   1       9.039   5.157  -7.530  0.00  0.00     0.122 A 
ATOM     28  C   UNL d   1       9.467   5.396  -8.815  0.00  0.00     0.040 A 
ATOM     29  C   UNL d   1       9.176   4.208  -9.504  0.00  0.00     0.141 A 
ATOM     30  N   UNL d   1       8.661   3.264  -8.710  0.00  0.00    -0.179 NA
ENDBRANCH  23  26
ENDBRANCH  18  20
ENDBRANCH   4  18
TORSDOF 7
