@<TRIPOS>MOLECULE
*****
 60 64 0 0 0
SMALL
GASTEIGER

@<TRIPOS>ATOM
      1 C          -1.5479    2.8506    4.4625 C.3     1  UNL1       -0.0011
      2 N          -1.1300    4.1260    3.8575 N.pl3   1  UNL1       -0.3320
      3 C           0.1751    4.5069    4.2757 C.ar    1  UNL1        0.1223
      4 C           1.1094    3.5890    4.0059 C.ar    1  UNL1        0.0013
      5 C           2.3006    3.6034    4.6853 C.ar    1  UNL1        0.0671
      6 C           3.0081    2.2687    4.5079 C.3     1  UNL1        0.0698
      7 C           3.5214    2.0323    2.9857 C.3     1  UNL1       -0.0016
      8 C           3.8497    3.2710    2.1449 C.ar    1  UNL1       -0.0202
      9 C           3.8008    4.5792    2.5572 C.ar    1  UNL1        0.0060
     10 N           4.0655    5.4500    1.5680 N.ar    1  UNL1       -0.3604
     11 C           4.3571    4.7522    0.4511 C.ar    1  UNL1        0.0467
     12 C           4.7012    5.2815   -0.7817 C.ar    1  UNL1       -0.0378
     13 C           4.9319    4.3676   -1.7923 C.ar    1  UNL1       -0.0598
     14 C           4.8301    2.9946   -1.5532 C.ar    1  UNL1       -0.0611
     15 C           4.4869    2.4837   -0.2884 C.ar    1  UNL1       -0.0523
     16 C           4.2356    3.3876    0.7563 C.ar    1  UNL1        0.0029
     17 N           1.8949    1.3130    4.8574 N.am    1  UNL1       -0.3026
     18 C           1.2149    1.2766    6.0606 C.2     1  UNL1        0.2481
     19 O           1.5323    1.9901    7.0366 O.2     1  UNL1       -0.2701
     20 C          -0.0252    0.4331    6.1493 C.ar    1  UNL1        0.0782
     21 C          -1.1047    0.9687    6.9191 C.ar    1  UNL1       -0.0461
     22 C          -2.3343    0.3124    7.0528 C.ar    1  UNL1       -0.0608
     23 C          -2.4896   -0.9326    6.4718 C.ar    1  UNL1       -0.0583
     24 C          -1.4283   -1.4920    5.7528 C.ar    1  UNL1       -0.0192
     25 C          -0.1950   -0.8313    5.5585 C.ar    1  UNL1        0.1322
     26 O           0.6624   -1.6332    4.8464 O.3     1  UNL1       -0.4944
     27 C           1.9226   -1.1599    4.4217 C.3     1  UNL1        0.0788
     28 N           2.7209    4.7015    5.3394 N.ar    1  UNL1       -0.2346
     29 C           1.8870    5.7724    5.1986 C.ar    1  UNL1        0.1345
     30 C           2.4093    7.1974    5.3595 C.3     1  UNL1        0.0190
     31 C           3.8531    7.5450    5.6336 C.3     1  UNL1       -0.0427
     32 C           3.2423    7.9494    4.3260 C.3     1  UNL1       -0.0427
     33 N           0.5712    5.6656    4.7942 N.ar    1  UNL1       -0.2173
     34 H          -2.5933    2.6092    4.2590 H       1  UNL1        0.0426
     35 H          -1.4369    2.9263    5.5428 H       1  UNL1        0.0426
     36 H          -0.9794    1.9801    4.0960 H       1  UNL1        0.0426
     37 H          -1.7872    4.8744    4.0119 H       1  UNL1        0.1471
     38 H           0.8383    2.7826    3.3490 H       1  UNL1        0.0670
     39 H           3.8234    2.0543    5.2080 H       1  UNL1        0.0567
     40 H           4.4003    1.3702    2.9950 H       1  UNL1        0.0336
     41 H           2.7641    1.4574    2.4246 H       1  UNL1        0.0336
     42 H           3.5645    5.0549    3.4692 H       1  UNL1        0.0810
     43 H           4.0377    6.4537    1.6644 H       1  UNL1        0.1653
     44 H           4.7706    6.3550   -0.9269 H       1  UNL1        0.0638
     45 H           5.1902    4.7441   -2.7760 H       1  UNL1        0.0618
     46 H           5.0184    2.3064   -2.3704 H       1  UNL1        0.0618
     47 H           4.4145    1.4141   -0.1264 H       1  UNL1        0.0624
     48 H           1.2734    1.1180    4.0790 H       1  UNL1        0.1497
     49 H          -1.0149    1.9515    7.3910 H       1  UNL1        0.0626
     50 H          -3.1534    0.7598    7.6165 H       1  UNL1        0.0618
     51 H          -3.4180   -1.4861    6.5961 H       1  UNL1        0.0619
     52 H          -1.5500   -2.4961    5.3504 H       1  UNL1        0.0654
     53 H           2.5667   -1.9378    4.0184 H       1  UNL1        0.0660
     54 H           2.4847   -0.7437    5.2634 H       1  UNL1        0.0660
     55 H           1.7624   -0.5113    3.5545 H       1  UNL1        0.0660
     56 H           1.6514    7.8313    5.8053 H       1  UNL1        0.0379
     57 H           4.6224    6.7816    5.5895 H       1  UNL1        0.0272
     58 H           4.0206    8.2950    6.3975 H       1  UNL1        0.0272
     59 H           3.6699    7.4918    3.4467 H       1  UNL1        0.0272
     60 H           3.0161    9.0014    4.1656 H       1  UNL1        0.0272
@<TRIPOS>BOND
     1     1     2    1
     2     2     3    1
     3     3     4   ar
     4     4     5   ar
     5     7     8    1
     6     8     9   ar
     7     9    10   ar
     8    10    11   ar
     9    11    12   ar
    10    12    13   ar
    11    13    14   ar
    12    14    15   ar
    13    15    16   ar
    14     8    16   ar
    15    11    16   ar
    16     6    17    1
    17    17    18   am
    18    18    19    2
    19    18    20    1
    20    20    21   ar
    21    21    22   ar
    22    22    23   ar
    23    23    24   ar
    24    24    25   ar
    25    20    25   ar
    26    25    26    1
    27    26    27    1
    28     5    28   ar
    29    28    29   ar
    30    29    30    1
    31    30    31    1
    32    31    32    1
    33    30    32    1
    34    29    33   ar
    35     3    33   ar
    36     6     7    1
    37     6     5    1
    38     1    34    1
    39     1    35    1
    40     1    36    1
    41     2    37    1
    42     4    38    1
    43     6    39    1
    44     7    40    1
    45     7    41    1
    46     9    42    1
    47    10    43    1
    48    12    44    1
    49    13    45    1
    50    14    46    1
    51    15    47    1
    52    17    48    1
    53    21    49    1
    54    22    50    1
    55    23    51    1
    56    24    52    1
    57    27    53    1
    58    27    54    1
    59    27    55    1
    60    30    56    1
    61    31    57    1
    62    31    58    1
    63    32    59    1
    64    32    60    1
