@<TRIPOS>MOLECULE
*****
 57 59 0 0 0
SMALL
GASTEIGER

@<TRIPOS>ATOM
      1 C           8.4360   -3.1879   -9.8131 C.3     1  UNL1        0.0820
      2 O           9.2703   -3.0013   -8.6587 O.3     1  UNL1       -0.4645
      3 C           8.5646   -2.8524   -7.4943 C.2     1  UNL1        0.3389
      4 O           7.3706   -2.8664   -7.3838 O.2     1  UNL1       -0.2450
      5 C           9.4865   -2.6561   -6.3312 C.ar    1  UNL1        0.0591
      6 C           9.1589   -3.2113   -5.0890 C.ar    1  UNL1       -0.0460
      7 C           9.9069   -2.8775   -3.9371 C.ar    1  UNL1       -0.0401
      8 C          11.0447   -2.0555   -4.0123 C.ar    1  UNL1        0.0275
      9 N          11.8143   -1.7810   -2.8902 N.pl3   1  UNL1       -0.3354
     10 C          13.0601   -0.9739   -2.9128 C.3     1  UNL1        0.0861
     11 C          13.6328   -0.7192   -1.4839 C.2     1  UNL1        0.2343
     12 O          13.0167   -1.1531   -0.5068 O.2     1  UNL1       -0.2738
     13 N          14.8003    0.0893   -1.3778 N.am    1  UNL1       -0.2842
     14 C          15.5687    0.2041   -0.1540 C.ar    1  UNL1        0.0341
     15 C          16.2031    1.2786    0.3917 C.ar    1  UNL1       -0.0404
     16 C          17.0116    1.0928    1.5642 C.ar    1  UNL1       -0.0593
     17 C          17.1387   -0.1519    2.2477 C.ar    1  UNL1       -0.0495
     18 C          16.6414   -1.2860    1.6441 C.ar    1  UNL1        0.0385
     19 C          16.8183   -2.7121    2.3789 C.2     1  UNL1        0.2446
     20 O          17.5082   -2.7468    3.4062 O.2     1  UNL1       -0.2702
     21 N          16.2072   -3.9537    2.0327 N.am    1  UNL1       -0.3048
     22 C          15.3674   -4.2979    0.8858 C.3     1  UNL1        0.0458
     23 C          14.7141   -3.0798    0.4811 C.3     1  UNL1       -0.0424
     24 C          14.1948   -5.1762    1.0224 C.ar    1  UNL1       -0.0275
     25 C          12.8746   -4.6792    1.2126 C.ar    1  UNL1       -0.0568
     26 C          11.8387   -5.5424    1.4122 C.ar    1  UNL1       -0.0614
     27 C          12.1046   -6.8953    1.2879 C.ar    1  UNL1       -0.0617
     28 C          13.3824   -7.3766    0.9609 C.ar    1  UNL1       -0.0614
     29 C          14.4366   -6.5128    0.8091 C.ar    1  UNL1       -0.0568
     30 C          16.0771   -0.9638    0.3629 C.ar    1  UNL1       -0.0284
     31 C          11.3386   -1.5080   -5.2673 C.ar    1  UNL1       -0.0401
     32 C          10.5818   -1.8010   -6.4143 C.ar    1  UNL1       -0.0460
     33 H           9.0792   -3.3480  -10.6852 H       1  UNL1        0.0661
     34 H           7.8286   -2.2957   -9.9994 H       1  UNL1        0.0661
     35 H           7.7948   -4.0691   -9.7006 H       1  UNL1        0.0661
     36 H           8.3175   -3.8979   -5.0053 H       1  UNL1        0.0626
     37 H           9.5679   -3.2612   -2.9754 H       1  UNL1        0.0636
     38 H          11.6046   -2.2560   -2.0122 H       1  UNL1        0.1466
     39 H          12.8217    0.0126   -3.3135 H       1  UNL1        0.0557
     40 H          13.8040   -1.4748   -3.5450 H       1  UNL1        0.0557
     41 H          15.2380    0.4291   -2.2248 H       1  UNL1        0.1549
     42 H          16.1079    2.2535   -0.0657 H       1  UNL1        0.0636
     43 H          17.5850    1.9344    1.9414 H       1  UNL1        0.0618
     44 H          17.6973   -0.2274    3.1811 H       1  UNL1        0.0625
     45 H          16.4951   -4.7440    2.6012 H       1  UNL1        0.1496
     46 H          16.0331   -4.6326    0.0635 H       1  UNL1        0.0545
     47 H          14.3095   -2.4751    1.3168 H       1  UNL1        0.0251
     48 H          14.1392   -3.0683   -0.4324 H       1  UNL1        0.0251
     49 H          15.6784   -2.8442    0.1786 H       1  UNL1        0.0251
     50 H          12.6160   -3.6144    1.1919 H       1  UNL1        0.0621
     51 H          10.8691   -5.1392    1.6825 H       1  UNL1        0.0618
     52 H          11.2958   -7.5913    1.4452 H       1  UNL1        0.0618
     53 H          13.5775   -8.4339    0.8608 H       1  UNL1        0.0618
     54 H          15.4356   -6.8393    0.5273 H       1  UNL1        0.0621
     55 H          16.1402   -1.6004   -0.5137 H       1  UNL1        0.0644
     56 H          12.1630   -0.8122   -5.3746 H       1  UNL1        0.0636
     57 H          10.8463   -1.3272   -7.3553 H       1  UNL1        0.0626
@<TRIPOS>BOND
     1     1     2    1
     2     2     3    1
     3     3     4    2
     4     3     5    1
     5     5     6   ar
     6     6     7   ar
     7     7     8   ar
     8     8     9    1
     9     9    10    1
    10    10    11    1
    11    11    12    2
    12    11    13   am
    13    13    14    1
    14    14    15   ar
    15    15    16   ar
    16    16    17   ar
    17    17    18   ar
    18    18    19    1
    19    19    20    2
    20    19    21   am
    21    22    24    1
    22    24    25   ar
    23    25    26   ar
    24    26    27   ar
    25    27    28   ar
    26    28    29   ar
    27    24    29   ar
    28    18    30   ar
    29    14    30   ar
    30     8    31   ar
    31    31    32   ar
    32     5    32   ar
    33    22    23    1
    34    22    21    1
    35     1    33    1
    36     1    34    1
    37     1    35    1
    38     6    36    1
    39     7    37    1
    40     9    38    1
    41    10    39    1
    42    10    40    1
    43    13    41    1
    44    15    42    1
    45    16    43    1
    46    17    44    1
    47    21    45    1
    48    22    46    1
    49    23    47    1
    50    23    48    1
    51    23    49    1
    52    25    50    1
    53    26    51    1
    54    27    52    1
    55    28    53    1
    56    29    54    1
    57    30    55    1
    58    31    56    1
    59    32    57    1
