REMARK  4 active torsions:
REMARK  status: ('A' for Active; 'I' for Inactive)
REMARK       I    between atoms: C_2  and  N_3 
REMARK    1  A    between atoms: C_2  and  C_12 
REMARK    2  A    between atoms: N_3  and  C_4 
REMARK    3  A    between atoms: C_4  and  C_5 
REMARK    4  A    between atoms: C_9  and  O_10 
ROOT
ATOM      1  O   UNL d   1       0.898   0.079  -0.042  0.00  0.00    -0.268 OA
ATOM      2  C   UNL d   1       2.127   0.068   0.004  0.00  0.00     0.253 C 
ATOM      3  N   UNL d   1       2.842   0.514   1.093  0.00  0.00    -0.353 N 
ATOM      4  H   UNL d   1       3.854   0.543   1.067  0.00  0.00     0.163 HD
ENDROOT
BRANCH   2   5
ATOM      5  C   UNL d   1       2.937  -0.463  -1.141  0.00  0.00     0.049 A 
ATOM      6  C   UNL d   1       2.574  -0.080  -2.379  0.00  0.00     0.092 A 
ATOM      7  C   UNL d   1       3.284  -0.564  -3.589  0.00  0.00     0.246 A 
ATOM      8  O   UNL d   1       2.966  -0.181  -4.708  0.00  0.00    -0.268 OA
ATOM      9  N   UNL d   1       4.308  -1.449  -3.393  0.00  0.00    -0.323 N 
ATOM     10  C   UNL d   1       4.693  -1.913  -2.130  0.00  0.00     0.046 A 
ATOM     11  H   UNL d   1       4.774  -1.780  -4.229  0.00  0.00     0.169 HD
ATOM     12  C   UNL d   1       5.721  -2.854  -2.028  0.00  0.00     0.030 A 
ATOM     13  C   UNL d   1       4.027  -1.444  -0.987  0.00  0.00     0.006 A 
ATOM     14  C   UNL d   1       6.095  -3.332  -0.772  0.00  0.00     0.002 A 
ATOM     15  C   UNL d   1       5.434  -2.888   0.368  0.00  0.00     0.001 A 
ATOM     16  C   UNL d   1       4.395  -1.968   0.257  0.00  0.00     0.015 A 
ENDBRANCH   2   5
BRANCH   3  17
ATOM     17  C   UNL d   1       2.174   0.935   2.308  0.00  0.00     0.161 C 
BRANCH  17  18
ATOM     18  C   UNL d   1       3.136   1.355   3.392  0.00  0.00    -0.038 A 
ATOM     19  C   UNL d   1       3.912   0.416   4.090  0.00  0.00     0.009 A 
ATOM     20  C   UNL d   1       4.772   0.825   5.118  0.00  0.00     0.003 A 
ATOM     21  C   UNL d   1       4.874   2.176   5.457  0.00  0.00     0.036 A 
ATOM     22  C   UNL d   1       4.113   3.108   4.760  0.00  0.00     0.066 A 
ATOM     23  C   UNL d   1       3.250   2.708   3.743  0.00  0.00     0.045 A 
BRANCH  22  24
ATOM     24  O   UNL d   1       4.172   4.442   5.038  0.00  0.00    -0.361 OA
ATOM     25  H   UNL d   1       4.823   4.595   5.742  0.00  0.00     0.217 HD
ENDBRANCH  22  24
ENDBRANCH  17  18
ENDBRANCH   3  17
TORSDOF 4
