@<TRIPOS>MOLECULE
*****
 34 35 0 0 0
SMALL
GASTEIGER

@<TRIPOS>ATOM
      1 N           1.1084   -0.2830    0.1245 N.am    1  UNL1       -0.3253
      2 C           2.4756   -0.4064    0.0595 C.2     1  UNL1        0.2434
      3 O           3.0733   -0.6420   -0.9840 O.2     1  UNL1       -0.2704
      4 C           3.2043   -0.2619    1.3377 C.ar    1  UNL1        0.0590
      5 C           2.8519   -1.2281    2.2933 C.ar    1  UNL1       -0.0295
      6 C           3.5724   -1.3416    3.4697 C.ar    1  UNL1        0.0418
      7 CL          3.1317   -2.5513    4.6099 Cl      1  UNL1       -0.0835
      8 C           4.6554   -0.5008    3.7046 C.ar    1  UNL1       -0.0416
      9 C           5.0039    0.4863    2.7589 C.ar    1  UNL1       -0.0384
     10 C           4.2720    0.6433    1.5598 C.ar    1  UNL1        0.0459
     11 N           4.6698    1.6888    0.6561 N.am    1  UNL1       -0.2813
     12 C           3.8829    2.1763   -0.3712 C.2     1  UNL1        0.2411
     13 O           2.6570    2.0431   -0.4402 O.2     1  UNL1       -0.2705
     14 C           4.5272    3.0519   -1.3797 C.2     1  UNL1        0.0011
     15 C           3.8580    3.2116   -2.5405 C.2     1  UNL1       -0.0469
     16 C           4.1875    4.2051   -3.5667 C.ar    1  UNL1        0.0103
     17 C           3.1543    4.8796   -4.2417 C.ar    1  UNL1       -0.0518
     18 C           3.4525    5.8147   -5.2394 C.ar    1  UNL1       -0.0610
     19 C           4.7807    6.0728   -5.5784 C.ar    1  UNL1       -0.0590
     20 C           5.8089    5.4039   -4.9177 C.ar    1  UNL1       -0.0259
     21 C           5.5080    4.4818   -3.9226 C.ar    1  UNL1        0.1305
     22 F           6.5223    3.8546   -3.3078 F       1  UNL1       -0.2049
     23 H           0.6822    0.0151   -0.7455 H       1  UNL1        0.1453
     24 H           0.6446    0.0252    0.9683 H       1  UNL1        0.1453
     25 H           2.0402   -1.9195    2.0806 H       1  UNL1        0.0640
     26 H           5.2316   -0.6166    4.6218 H       1  UNL1        0.0633
     27 H           5.8531    1.1250    2.9977 H       1  UNL1        0.0637
     28 H           5.5423    2.1677    0.8503 H       1  UNL1        0.1551
     29 H           5.4080    3.6211   -1.1218 H       1  UNL1        0.0670
     30 H           2.9712    2.6123   -2.7570 H       1  UNL1        0.0626
     31 H           2.1096    4.6933   -3.9933 H       1  UNL1        0.0624
     32 H           2.6499    6.3374   -5.7564 H       1  UNL1        0.0618
     33 H           5.0165    6.7895   -6.3603 H       1  UNL1        0.0618
     34 H           6.8478    5.5830   -5.1708 H       1  UNL1        0.0646
@<TRIPOS>BOND
     1     1     2   am
     2     2     3    2
     3     2     4    1
     4     4     5   ar
     5     5     6   ar
     6     6     7    1
     7     6     8   ar
     8     8     9   ar
     9     9    10   ar
    10     4    10   ar
    11    10    11    1
    12    11    12   am
    13    12    13    2
    14    12    14    1
    15    14    15    2
    16    15    16    1
    17    16    17   ar
    18    17    18   ar
    19    18    19   ar
    20    19    20   ar
    21    20    21   ar
    22    16    21   ar
    23    21    22    1
    24     1    23    1
    25     1    24    1
    26     5    25    1
    27     8    26    1
    28     9    27    1
    29    11    28    1
    30    14    29    1
    31    15    30    1
    32    17    31    1
    33    18    32    1
    34    19    33    1
    35    20    34    1
