REMARK  4 active torsions:
REMARK  status: ('A' for Active; 'I' for Inactive)
REMARK    1  A    between atoms: C_2  and  N_3 
REMARK       I    between atoms: N_3  and  C_4 
REMARK       I    between atoms: C_4  and  N_6 
REMARK    2  A    between atoms: N_6  and  C_8 
REMARK    3  A    between atoms: C_8  and  C_9 
REMARK    4  A    between atoms: C_12  and  O_13 
ROOT
ATOM      1  C   UNL d   1       6.239  -1.875  -2.607  0.00  0.00     0.165 C 
ENDROOT
BRANCH   1   2
ATOM      2  N   UNL d   1       4.785  -1.695  -2.362  0.00  0.00    -0.334 N 
ATOM      3  C   UNL d   1       4.413  -0.915  -1.272  0.00  0.00     0.318 C 
ATOM      4  N   UNL d   1       3.064  -0.761  -1.055  0.00  0.00    -0.343 N 
ATOM      5  O   UNL d   1       5.243  -0.386  -0.529  0.00  0.00    -0.247 OA
ATOM      6  H   UNL d   1       2.395  -1.190  -1.664  0.00  0.00     0.164 HD
ATOM      7  C   UNL d   1       3.862  -2.343  -3.289  0.00  0.00     0.154 C 
BRANCH   4   8
ATOM      8  C   UNL d   1       2.525   0.025   0.042  0.00  0.00     0.120 C 
ATOM      9  C   UNL d   1       1.001   0.032   0.052  0.00  0.00     0.026 C 
ENDBRANCH   4   8
ENDBRANCH   1   2
BRANCH   1  10
ATOM     10  C   UNL d   1       6.574  -2.743  -3.814  0.00  0.00    -0.040 A 
ATOM     11  C   UNL d   1       6.522  -4.146  -3.719  0.00  0.00     0.011 A 
ATOM     12  C   UNL d   1       6.578  -4.944  -4.868  0.00  0.00     0.037 A 
ATOM     13  C   UNL d   1       6.719  -4.340  -6.113  0.00  0.00     0.065 A 
ATOM     14  C   UNL d   1       6.836  -2.959  -6.221  0.00  0.00     0.037 A 
ATOM     15  C   UNL d   1       6.768  -2.161  -5.076  0.00  0.00     0.011 A 
BRANCH  13  16
ATOM     16  O   UNL d   1       6.731  -5.062  -7.270  0.00  0.00    -0.361 OA
ATOM     17  H   UNL d   1       6.627  -6.004  -7.061  0.00  0.00     0.217 HD
ENDBRANCH  13  16
ENDBRANCH   1  10
TORSDOF 4
