REMARK  5 active torsions:
REMARK  status: ('A' for Active; 'I' for Inactive)
REMARK    1  A    between atoms: C_4  and  C_2 
REMARK    2  A    between atoms: C_4  and  C_14 
REMARK    3  A    between atoms: C_4  and  N_5 
REMARK       I    between atoms: N_5  and  C_6 
REMARK    4  A    between atoms: C_6  and  C_8 
REMARK       I    between atoms: C_14  and  N_16 
REMARK    5  A    between atoms: N_16  and  C_17 
ROOT
ATOM      1  C   UNL d   1       6.736  -2.073  -1.745  0.00  0.00     0.055 A 
ATOM      2  C   UNL d   1       7.437  -2.147  -2.955  0.00  0.00     0.031 A 
ATOM      3  C   UNL d   1       8.831  -2.280  -2.945  0.00  0.00     0.002 A 
ATOM      4  C   UNL d   1       9.537  -2.240  -1.743  0.00  0.00     0.002 A 
ATOM      5  C   UNL d   1       8.855  -2.108  -0.538  0.00  0.00     0.025 A 
ATOM      6  C   UNL d   1       7.461  -2.029  -0.520  0.00  0.00     0.071 A 
ATOM      7  C   UNL d   1       6.833  -1.958   0.777  0.00  0.00     0.102 C 
ATOM      8  N   UNL d   1       6.306  -1.909   1.821  0.00  0.00    -0.191 NA
ENDROOT
BRANCH   1   9
ATOM      9  N   UNL d   1       5.304  -2.046  -1.773  0.00  0.00    -0.324 N 
ATOM     10  C   UNL d   1       4.684  -1.097  -0.986  0.00  0.00     0.245 C 
ATOM     11  O   UNL d   1       5.417  -0.299  -0.415  0.00  0.00    -0.271 OA
ATOM     12  H   UNL d   1       4.819  -2.473  -2.550  0.00  0.00     0.169 HD
BRANCH  10  13
ATOM     13  C   UNL d   1       3.141  -1.003  -0.903  0.00  0.00     0.180 C 
BRANCH  13  14
ATOM     14  N   UNL d   1       2.658  -0.086   0.185  0.00  0.00    -0.343 N 
ATOM     15  C   UNL d   1       3.288   1.095   0.583  0.00  0.00     0.252 C 
ATOM     16  O   UNL d   1       4.356   1.557   0.205  0.00  0.00    -0.268 OA
ATOM     17  H   UNL d   1       1.669  -0.134   0.389  0.00  0.00     0.163 HD
BRANCH  15  18
ATOM     18  C   UNL d   1       2.618   1.982   1.538  0.00  0.00     0.032 A 
ATOM     19  C   UNL d   1       2.936   3.352   1.450  0.00  0.00     0.017 A 
ATOM     20  C   UNL d   1       2.491   4.238   2.416  0.00  0.00     0.001 A 
ATOM     21  C   UNL d   1       1.648   3.773   3.419  0.00  0.00     0.000 A 
ATOM     22  C   UNL d   1       1.338   2.410   3.514  0.00  0.00     0.001 A 
ATOM     23  C   UNL d   1       1.841   1.502   2.583  0.00  0.00     0.017 A 
ENDBRANCH  15  18
ENDBRANCH  13  14
BRANCH  13  24
ATOM     24  C   UNL d   1       2.567  -0.672  -2.300  0.00  0.00     0.009 C 
ATOM     25  C   UNL d   1       2.577   0.832  -2.538  0.00  0.00     0.012 C 
ATOM     26  C   UNL d   1       1.161  -1.233  -2.521  0.00  0.00     0.012 C 
ENDBRANCH  13  24
ENDBRANCH  10  13
ENDBRANCH   1   9
TORSDOF 5
