REMARK  9 active torsions:
REMARK  status: ('A' for Active; 'I' for Inactive)
REMARK    1  A    between atoms: C_2  and  C_3 
REMARK    2  A    between atoms: C_3  and  C_4 
REMARK       I    between atoms: C_4  and  N_6 
REMARK    3  A    between atoms: N_6  and  C_7 
REMARK    4  A    between atoms: C_10  and  N_11 
REMARK    5  A    between atoms: N_11  and  C_12 
REMARK    6  A    between atoms: C_12  and  N_14 
REMARK       I    between atoms: N_14  and  C_15 
REMARK    7  A    between atoms: C_15  and  C_17 
REMARK    8  A    between atoms: C_20  and  N_21 
REMARK    9  A    between atoms: C_26  and  N_27 
ROOT
ATOM      1  N   UNL d   1      13.019  -2.047  -0.565  0.00  0.00    -0.299 N 
ATOM      2  C   UNL d   1      13.873  -2.052   0.570  0.00  0.00     0.257 C 
ATOM      3  O   UNL d   1      13.538  -2.039   1.756  0.00  0.00    -0.267 OA
ATOM      4  H   UNL d   1      13.448  -2.076  -1.478  0.00  0.00     0.171 HD
ENDROOT
BRANCH   1   5
ATOM      5  C   UNL d   1      11.604  -2.001  -0.467  0.00  0.00     0.179 C 
ATOM      6  S   UNL d   1      10.921  -1.814   1.069  0.00  0.00    -0.040 SA
BRANCH   5   7
ATOM      7  N   UNL d   1      10.886  -2.116  -1.707  0.00  0.00    -0.333 N 
ATOM      8  H   UNL d   1      11.403  -2.112  -2.581  0.00  0.00     0.168 HD
BRANCH   7   9
ATOM      9  C   UNL d   1       9.427  -2.098  -1.879  0.00  0.00     0.034 C 
ATOM     10  C   UNL d   1       8.771  -2.078  -3.124  0.00  0.00     0.032 C 
ATOM     11  C   UNL d   1       7.337  -1.942  -3.207  0.00  0.00     0.032 C 
ATOM     12  C   UNL d   1       6.552  -1.825  -2.054  0.00  0.00     0.034 C 
ATOM     13  C   UNL d   1       7.195  -1.904  -0.848  0.00  0.00     0.032 C 
ATOM     14  C   UNL d   1       8.563  -2.083  -0.793  0.00  0.00     0.032 C 
BRANCH  12  15
ATOM     15  N   UNL d   1       5.144  -1.706  -2.037  0.00  0.00    -0.327 N 
ATOM     16  C   UNL d   1       4.494  -0.937  -1.070  0.00  0.00     0.222 C 
ATOM     17  O   UNL d   1       5.073  -0.209  -0.262  0.00  0.00    -0.273 OA
ATOM     18  H   UNL d   1       4.615  -2.178  -2.756  0.00  0.00     0.169 HD
BRANCH  16  19
ATOM     19  C   UNL d   1       2.978  -1.000  -1.091  0.00  0.00     0.103 C 
BRANCH  19  20
ATOM     20  C   UNL d   1       2.407  -0.026  -0.049  0.00  0.00     0.005 C 
ATOM     21  C   UNL d   1       0.892  -0.011  -0.033  0.00  0.00     0.005 C 
ENDBRANCH  19  20
ENDBRANCH  16  19
ENDBRANCH  12  15
ENDBRANCH   7   9
ENDBRANCH   5   7
ENDBRANCH   1   5
BRANCH   2  22
ATOM     22  C   UNL d   1      15.335  -2.056   0.465  0.00  0.00     0.035 A 
ATOM     23  C   UNL d   1      16.058  -2.762   1.435  0.00  0.00     0.019 A 
ATOM     24  C   UNL d   1      17.439  -2.585   1.562  0.00  0.00     0.033 A 
ATOM     25  C   UNL d   1      18.178  -1.728   0.713  0.00  0.00     0.063 A 
ATOM     26  C   UNL d   1      17.405  -0.982  -0.223  0.00  0.00     0.130 A 
ATOM     27  C   UNL d   1      15.996  -1.149  -0.335  0.00  0.00     0.055 A 
BRANCH  25  28
ATOM     28  N   UNL d   1      19.542  -1.730   0.913  0.00  0.00    -0.379 N 
ATOM     29  C   UNL d   1      20.402  -0.562   1.043  0.00  0.00     0.123 C 
ATOM     30  C   UNL d   1      21.562  -0.872   0.101  0.00  0.00     0.021 C 
ATOM     31  C   UNL d   1      21.765  -2.365   0.306  0.00  0.00     0.021 C 
ATOM     32  C   UNL d   1      20.358  -2.917   0.599  0.00  0.00     0.123 C 
ENDBRANCH  25  28
BRANCH  26  33
ATOM     33  N   UNL d   1      17.961  -0.002  -1.177  0.00  0.00    -0.113 N 
ATOM     34  O   UNL d   1      19.169   0.127  -1.311  0.00  0.00    -0.532 OA
ATOM     35  O   UNL d   1      17.141   0.648  -1.858  0.00  0.00    -0.532 OA
ENDBRANCH  26  33
ENDBRANCH   2  22
TORSDOF 9
