REMARK  7 active torsions:
REMARK  status: ('A' for Active; 'I' for Inactive)
REMARK    1  A    between atoms: C_11  and  N_12 
REMARK    2  A    between atoms: N_12  and  N_13 
REMARK       I    between atoms: N_13  and  C_14 
REMARK    3  A    between atoms: C_14  and  C_16 
REMARK    4  A    between atoms: C_18  and  C_19 
REMARK    5  A    between atoms: C_22  and  O_23 
REMARK    6  A    between atoms: O_23  and  C_24 
REMARK    7  A    between atoms: C_24  and  C_25 
ROOT
ATOM      1  C   UNL d   1       4.082  -7.416  -0.055  0.00  0.00     0.121 A 
ATOM      2  C   UNL d   1       3.113  -8.019  -0.833  0.00  0.00     0.071 A 
ATOM      3  C   UNL d   1       3.105  -9.395  -0.478  0.00  0.00     0.089 A 
ATOM      4  N   UNL d   1       4.001  -9.630   0.492  0.00  0.00    -0.174 NA
ATOM      5  N   UNL d   1       4.620  -8.444   0.675  0.00  0.00    -0.272 N 
ATOM      6  H   UNL d   1       5.379  -8.399   1.352  0.00  0.00     0.189 HD
ENDROOT
BRANCH   1   7
ATOM      7  C   UNL d   1       4.531  -6.049  -0.009  0.00  0.00     0.288 C 
ATOM      8  N   UNL d   1       3.522  -5.088  -0.091  0.00  0.00    -0.265 N 
ATOM      9  H   UNL d   1       2.540  -5.324  -0.025  0.00  0.00     0.190 HD
ATOM     10  O   UNL d   1       5.726  -5.745   0.108  0.00  0.00    -0.264 OA
BRANCH   8  11
ATOM     11  N   UNL d   1       3.889  -3.749  -0.009  0.00  0.00    -0.308 N 
ATOM     12  H   UNL d   1       4.897  -3.629  -0.035  0.00  0.00     0.186 HD
BRANCH  11  13
ATOM     13  C   UNL d   1       3.100  -2.618  -0.034  0.00  0.00     0.121 C 
ATOM     14  C   UNL d   1       3.506  -1.334  -0.044  0.00  0.00     0.018 A 
ATOM     15  C   UNL d   1       4.879  -0.828  -0.051  0.00  0.00     0.006 A 
ATOM     16  C   UNL d   1       2.680  -0.071  -0.045  0.00  0.00     0.044 A 
ATOM     17  C   UNL d   1       6.118  -1.445  -0.063  0.00  0.00     0.015 A 
ATOM     18  C   UNL d   1       4.765   0.570  -0.052  0.00  0.00     0.068 A 
ATOM     19  C   UNL d   1       7.266  -0.667  -0.072  0.00  0.00     0.001 A 
ATOM     20  C   UNL d   1       7.169   0.725  -0.071  0.00  0.00     0.002 A 
ATOM     21  C   UNL d   1       5.914   1.355  -0.061  0.00  0.00     0.032 A 
ATOM     22  N   UNL d   1       3.418   1.020  -0.047  0.00  0.00    -0.252 NA
ATOM     23  C   UNL d   1       1.178  -0.059  -0.042  0.00  0.00     0.071 C 
ENDBRANCH  11  13
ENDBRANCH   8  11
ENDBRANCH   1   7
BRANCH   3  24
ATOM     24  C   UNL d   1       2.207 -10.426  -1.001  0.00  0.00    -0.005 A 
ATOM     25  C   UNL d   1       2.089 -10.667  -2.376  0.00  0.00     0.016 A 
ATOM     26  C   UNL d   1       1.075 -11.507  -2.864  0.00  0.00     0.037 A 
ATOM     27  C   UNL d   1       0.228 -12.186  -1.985  0.00  0.00     0.069 A 
ATOM     28  C   UNL d   1       0.435 -12.049  -0.612  0.00  0.00     0.037 A 
ATOM     29  C   UNL d   1       1.382 -11.139  -0.125  0.00  0.00     0.016 A 
BRANCH  27  30
ATOM     30  O   UNL d   1      -0.757 -12.934  -2.576  0.00  0.00    -0.347 OA
BRANCH  30  31
ATOM     31  C   UNL d   1      -1.658 -13.597  -1.687  0.00  0.00     0.214 C 
BRANCH  31  32
ATOM     32  C   UNL d   1      -2.698 -14.374  -2.459  0.00  0.00    -0.034 A 
ATOM     33  C   UNL d   1      -3.496 -13.775  -3.442  0.00  0.00     0.010 A 
ATOM     34  C   UNL d   1      -4.542 -14.490  -4.034  0.00  0.00     0.007 A 
ATOM     35  C   UNL d   1      -4.748 -15.837  -3.717  0.00  0.00    -0.062 A 
ATOM     36  C   UNL d   1      -5.899 -16.602  -4.298  0.00  0.00     0.048 C 
ATOM     37  C   UNL d   1      -3.881 -16.465  -2.819  0.00  0.00     0.007 A 
ATOM     38  C   UNL d   1      -2.910 -15.723  -2.149  0.00  0.00     0.010 A 
ENDBRANCH  31  32
ENDBRANCH  30  31
ENDBRANCH  27  30
ENDBRANCH   3  24
TORSDOF 7
