REMARK  6 active torsions:
REMARK  status: ('A' for Active; 'I' for Inactive)
REMARK    1  A    between atoms: C_2  and  C_3 
REMARK       I    between atoms: C_2  and  N_11 
REMARK    2  A    between atoms: C_4  and  O_5 
REMARK    3  A    between atoms: C_9  and  O_10 
REMARK    4  A    between atoms: C_14  and  C_15 
REMARK    5  A    between atoms: C_17  and  C_18 
REMARK    6  A    between atoms: C_18  and  C_19 
ROOT
ATOM      1  O   UNL d   1       1.152  -0.055  -0.054  0.00  0.00    -0.267 OA
ATOM      2  C   UNL d   1       2.385  -0.082   0.018  0.00  0.00     0.259 C 
ATOM      3  N   UNL d   1       3.104  -1.087   0.648  0.00  0.00    -0.348 N 
ATOM      4  C   UNL d   1       4.225  -0.791   1.538  0.00  0.00     0.127 C 
ATOM      5  C   UNL d   1       5.474  -1.594   1.171  0.00  0.00     0.030 C 
ATOM      6  C   UNL d   1       5.189  -3.102   0.998  0.00  0.00     0.040 C 
ATOM      7  C   UNL d   1       3.958  -3.325   0.084  0.00  0.00     0.030 C 
ATOM      8  C   UNL d   1       2.728  -2.486   0.483  0.00  0.00     0.127 C 
ENDROOT
BRANCH   6   9
ATOM      9  C   UNL d   1       4.992  -3.726   2.344  0.00  0.00     0.034 A 
ATOM     10  C   UNL d   1       4.019  -3.461   3.264  0.00  0.00     0.056 A 
ATOM     11  C   UNL d   1       4.282  -4.221   4.403  0.00  0.00     0.060 A 
ATOM     12  N   UNL d   1       5.392  -4.955   4.217  0.00  0.00    -0.179 NA
ATOM     13  N   UNL d   1       5.801  -4.639   2.962  0.00  0.00    -0.282 N 
ATOM     14  H   UNL d   1       6.649  -5.071   2.608  0.00  0.00     0.189 HD
BRANCH  11  15
ATOM     15  C   UNL d   1       3.470  -4.237   5.665  0.00  0.00     0.099 C 
BRANCH  15  16
ATOM     16  C   UNL d   1       2.240  -3.342   5.493  0.00  0.00    -0.052 A 
ATOM     17  C   UNL d   1       2.032  -2.236   6.331  0.00  0.00     0.007 A 
ATOM     18  C   UNL d   1       0.859  -1.477   6.228  0.00  0.00     0.001 A 
ATOM     19  C   UNL d   1      -0.068  -1.741   5.220  0.00  0.00     0.000 A 
ATOM     20  C   UNL d   1       0.146  -2.800   4.345  0.00  0.00     0.001 A 
ATOM     21  C   UNL d   1       1.265  -3.618   4.511  0.00  0.00     0.007 A 
ENDBRANCH  15  16
ENDBRANCH  11  15
ENDBRANCH   6   9
BRANCH   2  22
ATOM     22  C   UNL d   1       3.164   0.995  -0.647  0.00  0.00     0.098 A 
ATOM     23  C   UNL d   1       2.796   2.341  -0.548  0.00  0.00     0.084 A 
ATOM     24  C   UNL d   1       3.583   3.330  -1.146  0.00  0.00     0.038 A 
ATOM     25  C   UNL d   1       4.730   2.982  -1.863  0.00  0.00     0.005 A 
ATOM     26  C   UNL d   1       5.074   1.643  -2.017  0.00  0.00     0.038 A 
ATOM     27  C   UNL d   1       4.277   0.659  -1.437  0.00  0.00     0.084 A 
BRANCH  23  28
ATOM     28  O   UNL d   1       1.681   2.773   0.117  0.00  0.00    -0.360 OA
ATOM     29  H   UNL d   1       1.129   1.992   0.329  0.00  0.00     0.217 HD
ENDBRANCH  23  28
BRANCH  27  30
ATOM     30  O   UNL d   1       4.569  -0.652  -1.700  0.00  0.00    -0.360 OA
ATOM     31  H   UNL d   1       5.436  -0.719  -2.127  0.00  0.00     0.217 HD
ENDBRANCH  27  30
ENDBRANCH   2  22
TORSDOF 6
