REMARK  10 active torsions:
REMARK  status: ('A' for Active; 'I' for Inactive)
REMARK    1  A    between atoms: C_2  and  O_3 
REMARK    2  A    between atoms: O_3  and  C_4 
REMARK    3  A    between atoms: C_4  and  C_6 
REMARK    4  A    between atoms: C_6  and  C_7 
REMARK    5  A    between atoms: C_7  and  C_8 
REMARK       I    between atoms: C_8  and  N_10 
REMARK    6  A    between atoms: N_10  and  C_11 
REMARK    7  A    between atoms: C_11  and  N_13 
REMARK    8  A    between atoms: N_13  and  C_14 
REMARK    9  A    between atoms: C_18  and  N_19 
REMARK       I    between atoms: N_19  and  C_20 
REMARK   10  A    between atoms: C_20  and  C_22 
ROOT
ATOM      1  N   UNL d   1      10.062  -5.079  -3.724  0.00  0.00    -0.333 N 
ATOM      2  H   UNL d   1      10.664  -4.565  -3.094  0.00  0.00     0.168 HD
ENDROOT
BRANCH   1   3
ATOM      3  C   UNL d   1       8.644  -4.980  -3.611  0.00  0.00     0.178 C 
ATOM      4  S   UNL d   1       7.595  -6.165  -4.225  0.00  0.00    -0.040 SA
BRANCH   3   5
ATOM      5  N   UNL d   1       8.174  -3.852  -2.880  0.00  0.00    -0.304 N 
ATOM      6  C   UNL d   1       6.811  -3.558  -2.665  0.00  0.00     0.224 C 
ATOM      7  O   UNL d   1       5.882  -4.199  -3.159  0.00  0.00    -0.273 OA
ATOM      8  H   UNL d   1       8.858  -3.235  -2.462  0.00  0.00     0.171 HD
BRANCH   6   9
ATOM      9  C   UNL d   1       6.415  -2.378  -1.786  0.00  0.00     0.113 C 
BRANCH   9  10
ATOM     10  C   UNL d   1       4.854  -2.293  -1.720  0.00  0.00     0.120 C 
BRANCH  10  11
ATOM     11  C   UNL d   1       4.368  -1.144  -0.873  0.00  0.00     0.259 C 
ATOM     12  O   UNL d   1       5.126  -0.362  -0.294  0.00  0.00    -0.265 OA
BRANCH  11  13
ATOM     13  O   UNL d   1       3.004  -1.073  -0.820  0.00  0.00    -0.322 OA
BRANCH  13  14
ATOM     14  C   UNL d   1       2.502   0.016  -0.018  0.00  0.00     0.174 C 
ATOM     15  C   UNL d   1       0.980   0.031  -0.007  0.00  0.00     0.034 C 
ENDBRANCH  13  14
ENDBRANCH  11  13
ENDBRANCH  10  11
ENDBRANCH   9  10
ENDBRANCH   6   9
ENDBRANCH   3   5
ENDBRANCH   1   3
BRANCH   1  16
ATOM     16  C   UNL d   1      10.714  -6.129  -4.474  0.00  0.00     0.036 A 
ATOM     17  C   UNL d   1      11.750  -6.904  -3.971  0.00  0.00     0.029 A 
ATOM     18  C   UNL d   1      12.270  -7.963  -4.749  0.00  0.00     0.004 A 
ATOM     19  C   UNL d   1      11.742  -8.274  -6.021  0.00  0.00     0.029 A 
ATOM     20  C   UNL d   1      10.741  -7.470  -6.561  0.00  0.00     0.036 A 
ATOM     21  C   UNL d   1      10.289  -6.403  -5.775  0.00  0.00     0.059 A 
BRANCH  20  22
ATOM     22  N   UNL d   1      10.203  -7.715  -7.863  0.00  0.00    -0.327 N 
ATOM     23  C   UNL d   1       9.216  -6.926  -8.452  0.00  0.00     0.225 C 
ATOM     24  O   UNL d   1       8.715  -5.924  -7.944  0.00  0.00    -0.273 OA
ATOM     25  H   UNL d   1      10.578  -8.500  -8.381  0.00  0.00     0.169 HD
BRANCH  23  26
ATOM     26  C   UNL d   1       8.762  -7.292  -9.859  0.00  0.00     0.070 C 
ATOM     27  C   UNL d   1       8.171  -8.689  -9.925  0.00  0.00     0.019 C 
ATOM     28  C   UNL d   1       7.685  -6.269 -10.281  0.00  0.00     0.019 C 
ENDBRANCH  23  26
ENDBRANCH  20  22
ENDBRANCH   1  16
TORSDOF 10
