REMARK  4 active torsions:
REMARK  status: ('A' for Active; 'I' for Inactive)
REMARK    1  A    between atoms: O_2  and  C_3 
REMARK    2  A    between atoms: C_6  and  C_5 
REMARK    3  A    between atoms: C_28  and  O_29 
REMARK    4  A    between atoms: C_31  and  O_32 
ROOT
ATOM      1  C   UNL d   1       6.868   2.108   0.007  0.00  0.00     0.090 C 
ATOM      2  C   UNL d   1       7.408   2.880   1.250  0.00  0.00     0.072 C 
ATOM      3  C   UNL d   1       8.910   2.708   1.545  0.00  0.00     0.013 C 
ATOM      4  C   UNL d   1       9.371   1.974   2.594  0.00  0.00     0.118 C 
ATOM      5  C   UNL d   1       8.480   1.166   3.448  0.00  0.00     0.266 C 
ATOM      6  O   UNL d   1       7.528   1.617   4.082  0.00  0.00    -0.267 OA
ATOM      7  N   UNL d   1       8.839  -0.145   3.473  0.00  0.00    -0.274 N 
ATOM      8  C   UNL d   1      10.155  -0.463   3.627  0.00  0.00     0.331 C 
ATOM      9  O   UNL d   1      10.522  -1.297   4.447  0.00  0.00    -0.246 OA
ATOM     10  N   UNL d   1      10.997   0.269   2.826  0.00  0.00    -0.270 N 
ATOM     11  C   UNL d   1      12.084  -0.403   2.156  0.00  0.00     0.164 C 
ATOM     12  C   UNL d   1      10.817   1.632   2.708  0.00  0.00     0.268 C 
ATOM     13  O   UNL d   1      11.715   2.466   2.747  0.00  0.00    -0.267 OA
ATOM     14  N   UNL d   1       9.797   3.292   0.625  0.00  0.00    -0.261 NA
ATOM     15  C   UNL d   1      10.047   2.659  -0.625  0.00  0.00     0.029 C 
ATOM     16  C   UNL d   1      11.323   2.101  -0.786  0.00  0.00     0.025 C 
ATOM     17  C   UNL d   1      11.635   1.281  -1.870  0.00  0.00     0.002 C 
ATOM     18  C   UNL d   1      10.696   1.071  -2.868  0.00  0.00     0.001 C 
ATOM     19  C   UNL d   1       9.478   1.751  -2.812  0.00  0.00     0.020 C 
ATOM     20  C   UNL d   1       9.120   2.517  -1.671  0.00  0.00     0.022 C 
ATOM     21  S   UNL d   1       7.400   3.036  -1.528  0.00  0.00    -0.118 SA
ATOM     22  H   UNL d   1       8.191  -0.779   3.917  0.00  0.00     0.173 HD
ATOM     23  H   UNL d   1       9.631   4.288   0.485  0.00  0.00     0.133 HD
ENDROOT
BRANCH   1  24
ATOM     24  C   UNL d   1       7.138   0.596   0.029  0.00  0.00    -0.038 C 
ATOM     25  C   UNL d   1       6.798  -0.211   1.109  0.00  0.00     0.048 C 
ATOM     26  C   UNL d   1       7.226  -1.556   1.170  0.00  0.00     0.104 C 
ATOM     27  C   UNL d   1       8.009  -2.119   0.137  0.00  0.00     0.133 C 
ATOM     28  C   UNL d   1       8.290  -1.364  -0.984  0.00  0.00     0.104 C 
ATOM     29  C   UNL d   1       7.755  -0.076  -1.029  0.00  0.00     0.048 C 
BRANCH  26  30
ATOM     30  O   UNL d   1       6.852  -2.195   2.333  0.00  0.00    -0.353 OA
ATOM     31  C   UNL d   1       7.223  -3.567   2.439  0.00  0.00     0.210 C 
ENDBRANCH  26  30
BRANCH  27  32
ATOM     32  O   UNL d   1       8.457  -3.393   0.305  0.00  0.00    -0.356 OA
ATOM     33  H   UNL d   1       8.753  -3.824  -0.496  0.00  0.00     0.218 HD
ENDBRANCH  27  32
BRANCH  28  34
ATOM     34  O   UNL d   1       9.041  -1.649  -2.091  0.00  0.00    -0.353 OA
ATOM     35  C   UNL d   1       9.602  -2.935  -2.239  0.00  0.00     0.210 C 
ENDBRANCH  28  34
ENDBRANCH   1  24
TORSDOF 4
