@<TRIPOS>MOLECULE
*****
 63 66 0 0 0
SMALL
GASTEIGER

@<TRIPOS>ATOM
      1 C           6.3096    8.6020  -14.5514 C.3     1  UNL1        0.0788
      2 O           5.8008    7.4397  -13.8953 O.3     1  UNL1       -0.4951
      3 C           5.7223    7.5402  -12.5331 C.ar    1  UNL1        0.1201
      4 C           5.9571    6.3889  -11.7810 C.ar    1  UNL1       -0.0196
      5 C           5.8160    6.4132  -10.3806 C.ar    1  UNL1       -0.0536
      6 C           5.5025    7.6099   -9.7051 C.ar    1  UNL1       -0.0301
      7 C           5.5142    7.6617   -8.1865 C.3     1  UNL1        0.0369
      8 N           5.2427    8.9768   -7.5986 N.am    1  UNL1       -0.3084
      9 C           5.2682    9.1789   -6.2311 C.2     1  UNL1        0.2510
     10 O           5.5031    8.2654   -5.4526 O.2     1  UNL1       -0.2721
     11 C           4.9683   10.6176   -5.7532 C.3     1  UNL1        0.1681
     12 O           5.0265   10.6133   -4.2960 O.3     1  UNL1       -0.4539
     13 C           4.5985   11.7602   -3.6781 C.2     1  UNL1        0.3284
     14 O           4.2727   12.7250   -4.3252 O.2     1  UNL1       -0.2487
     15 C           4.6002   11.6185   -2.0243 C.3     1  UNL1        0.1247
     16 C           3.6911   10.0545   -1.5748 C.3     1  UNL1        0.0032
     17 C           3.4964    9.0466   -0.0732 C.ar    1  UNL1       -0.0201
     18 C           3.2692    9.9890    0.9053 C.ar    1  UNL1        0.0060
     19 N           4.0900    9.3797    1.8381 N.ar    1  UNL1       -0.3604
     20 C           3.3106    8.3570    2.2906 C.ar    1  UNL1        0.0467
     21 C           3.0752    8.0834    3.6545 C.ar    1  UNL1       -0.0378
     22 C           2.1092    7.2210    4.0930 C.ar    1  UNL1       -0.0598
     23 C           1.3786    6.6384    3.0774 C.ar    1  UNL1       -0.0611
     24 C           1.6797    6.8958    1.5761 C.ar    1  UNL1       -0.0523
     25 C           2.7502    7.8896    1.0835 C.ar    1  UNL1        0.0029
     26 N           4.0180   13.0448   -1.6221 N.am    1  UNL1       -0.2981
     27 C           4.5184   14.3286   -2.0737 C.2     1  UNL1        0.2447
     28 O           5.5167   14.4880   -2.7413 O.2     1  UNL1       -0.2702
     29 C           3.7676   15.6080   -1.6743 C.ar    1  UNL1        0.0368
     30 C           3.6173   16.7076   -2.5630 C.ar    1  UNL1       -0.0483
     31 C           3.1419   17.9631   -2.1111 C.ar    1  UNL1       -0.0427
     32 C           2.7596   18.1155   -0.7825 C.ar    1  UNL1        0.0410
     33 CL          2.0899   19.6055   -0.2317 Cl      1  UNL1       -0.0835
     34 C           2.9000   17.0465    0.1019 C.ar    1  UNL1       -0.0427
     35 C           3.4054   15.8076   -0.3409 C.ar    1  UNL1       -0.0483
     36 C           5.2316    8.7344  -10.4905 C.ar    1  UNL1       -0.0536
     37 C           5.3346    8.7008  -11.8791 C.ar    1  UNL1       -0.0196
     38 H           6.2057    8.4569  -15.6304 H       1  UNL1        0.0660
     39 H           7.3715    8.7205  -14.3160 H       1  UNL1        0.0660
     40 H           5.7644    9.5209  -14.3142 H       1  UNL1        0.0660
     41 H           6.2684    5.4727  -12.2799 H       1  UNL1        0.0654
     42 H           5.9595    5.4848   -9.8277 H       1  UNL1        0.0622
     43 H           6.5092    7.3528   -7.8397 H       1  UNL1        0.0512
     44 H           4.7832    6.9520   -7.7814 H       1  UNL1        0.0512
     45 H           5.0968    9.7720   -8.1964 H       1  UNL1        0.1491
     46 H           3.9690   10.9076   -6.1096 H       1  UNL1        0.0796
     47 H           5.7163   11.3054   -6.1721 H       1  UNL1        0.0796
     48 H           5.6652   11.6445   -1.7214 H       1  UNL1        0.0618
     49 H           2.6826   10.4451   -1.6747 H       1  UNL1        0.0337
     50 H           4.0428    9.3639   -2.3403 H       1  UNL1        0.0337
     51 H           2.2077   10.2061    1.0907 H       1  UNL1        0.0810
     52 H           5.0520    9.1283    1.6771 H       1  UNL1        0.1653
     53 H           3.5908    8.7103    4.3679 H       1  UNL1        0.0638
     54 H           1.9571    7.0894    5.1724 H       1  UNL1        0.0618
     55 H           0.5581    5.9961    3.4548 H       1  UNL1        0.0618
     56 H           1.0039    6.2721    0.9789 H       1  UNL1        0.0624
     57 H           3.1587   13.0613   -1.1044 H       1  UNL1        0.1498
     58 H           3.8746   16.6149   -3.6178 H       1  UNL1        0.0625
     59 H           3.0901   18.8188   -2.7863 H       1  UNL1        0.0632
     60 H           2.6442   17.1788    1.1506 H       1  UNL1        0.0632
     61 H           3.5628   15.0167    0.3832 H       1  UNL1        0.0625
     62 H           4.9229    9.6791  -10.0649 H       1  UNL1        0.0622
     63 H           5.0861    9.6079  -12.4153 H       1  UNL1        0.0654
@<TRIPOS>BOND
     1     1     2    1
     2     2     3    1
     3     3     4   ar
     4     4     5   ar
     5     5     6   ar
     6     6     7    1
     7     7     8    1
     8     8     9   am
     9     9    10    2
    10     9    11    1
    11    11    12    1
    12    12    13    1
    13    13    14    2
    14    16    17    1
    15    17    18   ar
    16    18    19   ar
    17    19    20   ar
    18    20    21   ar
    19    21    22   ar
    20    22    23   ar
    21    23    24   ar
    22    24    25   ar
    23    17    25   ar
    24    20    25   ar
    25    15    26    1
    26    26    27   am
    27    27    28    2
    28    27    29    1
    29    29    30   ar
    30    30    31   ar
    31    31    32   ar
    32    32    33    1
    33    32    34   ar
    34    34    35   ar
    35    29    35   ar
    36     6    36   ar
    37    36    37   ar
    38     3    37   ar
    39    15    16    1
    40    15    13    1
    41     1    38    1
    42     1    39    1
    43     1    40    1
    44     4    41    1
    45     5    42    1
    46     7    43    1
    47     7    44    1
    48     8    45    1
    49    11    46    1
    50    11    47    1
    51    15    48    1
    52    16    49    1
    53    16    50    1
    54    18    51    1
    55    19    52    1
    56    21    53    1
    57    22    54    1
    58    23    55    1
    59    24    56    1
    60    26    57    1
    61    30    58    1
    62    31    59    1
    63    34    60    1
    64    35    61    1
    65    36    62    1
    66    37    63    1
