REMARK  7 active torsions:
REMARK  status: ('A' for Active; 'I' for Inactive)
REMARK    1  A    between atoms: C_2  and  N_3 
REMARK       I    between atoms: N_3  and  C_4 
REMARK    2  A    between atoms: C_4  and  C_6 
REMARK    3  A    between atoms: C_10  and  N_11 
REMARK       I    between atoms: N_11  and  C_12 
REMARK    4  A    between atoms: C_12  and  C_14 
REMARK    5  A    between atoms: C_14  and  N_15 
REMARK    6  A    between atoms: N_15  and  C_16 
REMARK    7  A    between atoms: C_22  and  S_23 
ROOT
ATOM      1  N   UNL d   1       4.368   0.544  -6.337  0.00  0.00    -0.326 N 
ATOM      2  C   UNL d   1       3.381   1.514  -6.142  0.00  0.00     0.239 C 
ATOM      3  O   UNL d   1       2.682   1.602  -5.125  0.00  0.00    -0.271 OA
ATOM      4  H   UNL d   1       4.765   0.410  -7.262  0.00  0.00     0.169 HD
ENDROOT
BRANCH   1   5
ATOM      5  C   UNL d   1       4.901  -0.259  -5.277  0.00  0.00     0.035 A 
ATOM      6  C   UNL d   1       5.965  -1.148  -5.493  0.00  0.00     0.029 A 
ATOM      7  C   UNL d   1       6.568  -1.807  -4.399  0.00  0.00     0.003 A 
ATOM      8  C   UNL d   1       6.078  -1.640  -3.098  0.00  0.00     0.017 A 
ATOM      9  C   UNL d   1       5.006  -0.783  -2.881  0.00  0.00     0.034 A 
ATOM     10  C   UNL d   1       4.444  -0.112  -3.961  0.00  0.00     0.046 A 
BRANCH   9  11
ATOM     11  C   UNL d   1       4.552  -0.439  -1.502  0.00  0.00     0.251 C 
ATOM     12  N   UNL d   1       3.178  -0.321  -1.317  0.00  0.00    -0.357 N 
ATOM     13  H   UNL d   1       2.541  -0.489  -2.084  0.00  0.00     0.162 HD
ATOM     14  O   UNL d   1       5.372  -0.263  -0.627  0.00  0.00    -0.268 OA
BRANCH  12  15
ATOM     15  C   UNL d   1       2.637   0.013  -0.012  0.00  0.00     0.118 C 
ATOM     16  C   UNL d   1       1.118   0.021   0.006  0.00  0.00     0.026 C 
ENDBRANCH  12  15
ENDBRANCH   9  11
ENDBRANCH   1   5
BRANCH   2  17
ATOM     17  C   UNL d   1       3.112   2.540  -7.257  0.00  0.00     0.223 C 
BRANCH  17  18
ATOM     18  N   UNL d   1       1.929   3.297  -6.895  0.00  0.00    -0.380 N 
ATOM     19  H   UNL d   1       1.488   3.064  -5.999  0.00  0.00     0.160 HD
BRANCH  18  20
ATOM     20  C   UNL d   1       1.130   3.860  -7.873  0.00  0.00     0.046 A 
ATOM     21  C   UNL d   1       0.817   5.210  -7.582  0.00  0.00     0.054 A 
ATOM     22  C   UNL d   1       0.075   5.998  -8.444  0.00  0.00     0.036 A 
ATOM     23 CL   UNL d   1      -0.347   7.600  -7.983  0.00  0.00    -0.084 Cl
ATOM     24  C   UNL d   1      -0.332   5.474  -9.655  0.00  0.00     0.025 A 
ATOM     25  C   UNL d   1      -0.075   4.121  -9.947  0.00  0.00     0.022 A 
ATOM     26  C   UNL d   1       0.632   3.260  -9.058  0.00  0.00     0.026 A 
BRANCH  26  27
ATOM     27  S   UNL d   1       0.730   1.542  -9.713  0.00  0.00    -0.132 SA
ATOM     28  C   UNL d   1       1.577   0.391  -8.550  0.00  0.00     0.095 C 
ENDBRANCH  26  27
ENDBRANCH  18  20
ENDBRANCH  17  18
ENDBRANCH   2  17
TORSDOF 7
