@<TRIPOS>MOLECULE
*****
 60 63 0 0 0
SMALL
GASTEIGER

@<TRIPOS>ATOM
      1 C           2.0169    0.2942   -0.0245 C.3     1  UNL1       -0.0612
      2 C           3.4485    0.0244    0.0616 C.3     1  UNL1       -0.0288
      3 C           3.7509    1.4364    0.3528 C.ar    1  UNL1       -0.0264
      4 C           4.0797    1.5621    1.7258 C.ar    1  UNL1       -0.0568
      5 C           3.9987    2.7856    2.3227 C.ar    1  UNL1       -0.0614
      6 C           3.5711    3.8616    1.5450 C.ar    1  UNL1       -0.0600
      7 C           3.1355    3.7215    0.1895 C.ar    1  UNL1       -0.0402
      8 C           3.2490    2.5045   -0.4936 C.ar    1  UNL1        0.0379
      9 N           2.5732    2.3371   -1.8705 N.am    1  UNL1       -0.2689
     10 C           2.4739    1.1113   -2.6430 C.2     1  UNL1        0.3082
     11 O           3.2444    0.1989   -2.6016 O.2     1  UNL1       -0.2522
     12 N           1.3000    0.9836   -3.4415 N.am    1  UNL1       -0.2675
     13 C           0.9981   -0.3973   -3.9159 C.ar    1  UNL1        0.0576
     14 C           1.3318   -0.7652   -5.2863 C.ar    1  UNL1       -0.0174
     15 C           1.0516   -2.0599   -5.8034 C.ar    1  UNL1        0.0355
     16 N           1.1442   -2.3950   -7.2048 N.am    1  UNL1       -0.2814
     17 C           0.6009   -3.5653   -7.7675 C.2     1  UNL1        0.2483
     18 O           0.0611   -4.4947   -7.1696 O.2     1  UNL1       -0.2699
     19 C           0.6348   -3.7520   -9.2395 C.ar    1  UNL1        0.0372
     20 C          -0.4452   -4.4276   -9.8510 C.ar    1  UNL1       -0.0469
     21 C          -0.3626   -4.8381  -11.1824 C.ar    1  UNL1       -0.0257
     22 C           0.7715   -4.5170  -11.9149 C.ar    1  UNL1        0.1234
     23 F           0.8374   -4.8570  -13.2086 F       1  UNL1       -0.2055
     24 C           1.8420   -3.8450  -11.3257 C.ar    1  UNL1       -0.0257
     25 C           1.7828   -3.4698   -9.9792 C.ar    1  UNL1       -0.0469
     26 C           0.6090   -3.0097   -4.8937 C.ar    1  UNL1       -0.0386
     27 C           0.3091   -2.6871   -3.5692 C.ar    1  UNL1       -0.0371
     28 C           0.4423   -1.3969   -3.0315 C.ar    1  UNL1        0.0514
     29 N          -0.0339   -1.2567   -1.7261 N.pl3   1  UNL1       -0.3285
     30 C          -0.9424   -0.1983   -1.2763 C.3     1  UNL1        0.0123
     31 C          -0.5944    0.1041    0.1820 C.3     1  UNL1       -0.0358
     32 C           0.0591   -1.2495    0.6948 C.3     1  UNL1       -0.0358
     33 C           0.4720   -2.0875   -0.5968 C.3     1  UNL1        0.0123
     34 H           1.7158   -0.5227   -0.5835 H       1  UNL1        0.0233
     35 H           1.5494    1.0369   -0.6521 H       1  UNL1        0.0233
     36 H           1.6155    0.5461    0.9673 H       1  UNL1        0.0233
     37 H           3.9807   -0.3787   -0.7842 H       1  UNL1        0.0311
     38 H           3.5194   -0.7402    0.8499 H       1  UNL1        0.0311
     39 H           4.2638    0.6652    2.3268 H       1  UNL1        0.0621
     40 H           4.2444    2.8729    3.3772 H       1  UNL1        0.0618
     41 H           3.5838    4.8406    2.0146 H       1  UNL1        0.0618
     42 H           2.6837    4.5904   -0.2770 H       1  UNL1        0.0636
     43 H           1.9491    3.0918   -2.1181 H       1  UNL1        0.1564
     44 H           1.2671    1.6799   -4.1739 H       1  UNL1        0.1564
     45 H           1.8685   -0.0618   -5.9228 H       1  UNL1        0.0655
     46 H           1.4488   -1.6668   -7.8386 H       1  UNL1        0.1551
     47 H          -1.3396   -4.6690   -9.2758 H       1  UNL1        0.0626
     48 H          -1.1567   -5.4221  -11.6395 H       1  UNL1        0.0646
     49 H           2.7332   -3.6503  -11.9136 H       1  UNL1        0.0646
     50 H           2.6498   -3.0209   -9.5065 H       1  UNL1        0.0626
     51 H           0.4447   -4.0445   -5.1693 H       1  UNL1        0.0637
     52 H          -0.1268   -3.4801   -2.9672 H       1  UNL1        0.0637
     53 H          -1.9627   -0.5742   -1.2731 H       1  UNL1        0.0464
     54 H          -0.8797    0.6889   -1.9142 H       1  UNL1        0.0464
     55 H          -1.3586    0.4894    0.8635 H       1  UNL1        0.0281
     56 H          -0.0412    1.0558    0.1342 H       1  UNL1        0.0281
     57 H          -0.6480   -1.7771    1.3293 H       1  UNL1        0.0281
     58 H           0.9259   -1.1553    1.3808 H       1  UNL1        0.0281
     59 H           0.1178   -3.1174   -0.5448 H       1  UNL1        0.0464
     60 H           1.5721   -2.2407   -0.6991 H       1  UNL1        0.0464
@<TRIPOS>BOND
     1     1     2    1
     2     2     3    1
     3     3     4   ar
     4     4     5   ar
     5     5     6   ar
     6     6     7   ar
     7     7     8   ar
     8     3     8   ar
     9     8     9    1
    10     9    10   am
    11    10    11    2
    12    10    12   am
    13    12    13    1
    14    13    14   ar
    15    14    15   ar
    16    15    16    1
    17    16    17   am
    18    17    18    2
    19    17    19    1
    20    19    20   ar
    21    20    21   ar
    22    21    22   ar
    23    22    23    1
    24    22    24   ar
    25    24    25   ar
    26    19    25   ar
    27    15    26   ar
    28    26    27   ar
    29    27    28   ar
    30    13    28   ar
    31    28    29    1
    32    29    30    1
    33    30    31    1
    34    31    32    1
    35    32    33    1
    36    29    33    1
    37     1    34    1
    38     1    35    1
    39     1    36    1
    40     2    37    1
    41     2    38    1
    42     4    39    1
    43     5    40    1
    44     6    41    1
    45     7    42    1
    46     9    43    1
    47    12    44    1
    48    14    45    1
    49    16    46    1
    50    20    47    1
    51    21    48    1
    52    24    49    1
    53    25    50    1
    54    26    51    1
    55    27    52    1
    56    30    53    1
    57    30    54    1
    58    31    55    1
    59    31    56    1
    60    32    57    1
    61    32    58    1
    62    33    59    1
    63    33    60    1
