@<TRIPOS>MOLECULE
*****
 59 62 0 0 0
SMALL
GASTEIGER

@<TRIPOS>ATOM
      1 O           1.0138   -0.1538   -0.1453 O.2     1  UNL1       -0.2723
      2 C           2.2370   -0.0580   -0.0349 C.2     1  UNL1        0.2488
      3 C           2.9224    0.8339    0.9775 C.3     1  UNL1        0.1009
      4 N           2.0136    1.6091    1.8249 N.ar    1  UNL1       -0.3378
      5 C           1.0550    1.0512    2.6399 C.ar    1  UNL1        0.0062
      6 C           0.4205    2.0630    3.3192 C.ar    1  UNL1       -0.0364
      7 C           1.0327    3.2843    2.9422 C.ar    1  UNL1       -0.0001
      8 C           0.8124    4.6238    3.3202 C.ar    1  UNL1       -0.0526
      9 C           1.5994    5.6347    2.7669 C.ar    1  UNL1       -0.0611
     10 C           2.5909    5.3241    1.8420 C.ar    1  UNL1       -0.0598
     11 C           2.8269    4.0002    1.4459 C.ar    1  UNL1       -0.0376
     12 C           2.0342    2.9841    2.0089 C.ar    1  UNL1        0.0495
     13 N           3.0276   -0.8140   -0.8722 N.am    1  UNL1       -0.2337
     14 N           4.4511   -0.8694   -0.9584 N.am    1  UNL1       -0.2455
     15 C           5.0223   -1.7408   -1.9069 C.2     1  UNL1        0.1533
     16 S           4.0361   -2.5946   -2.9786 S.2     1  UNL1       -0.0170
     17 N           6.4311   -1.8162   -1.8606 N.am    1  UNL1       -0.2626
     18 C           7.2211   -2.7254   -2.5891 C.2     1  UNL1        0.2531
     19 O           6.8041   -3.8078   -3.0072 O.2     1  UNL1       -0.2697
     20 C           8.6835   -2.4920   -2.7568 C.ar    1  UNL1        0.0786
     21 C           9.4392   -2.5245   -1.5704 C.ar    1  UNL1       -0.0461
     22 C          10.8275   -2.3606   -1.5939 C.ar    1  UNL1       -0.0608
     23 C          11.4976   -2.2983   -2.8098 C.ar    1  UNL1       -0.0583
     24 C          10.7750   -2.4086   -4.0010 C.ar    1  UNL1       -0.0192
     25 C           9.3619   -2.4494   -4.0032 C.ar    1  UNL1        0.1328
     26 O           8.8480   -2.4098   -5.2869 O.3     1  UNL1       -0.4878
     27 C           7.4293   -2.4316   -5.4204 C.3     1  UNL1        0.1235
     28 C           6.9232   -2.3021   -6.8489 C.3     1  UNL1        0.1235
     29 O           5.4821   -2.3137   -6.7899 O.3     1  UNL1       -0.4886
     30 C           4.8720   -2.2688   -8.0116 C.ar    1  UNL1        0.1207
     31 C           5.2999   -3.0222   -9.1018 C.ar    1  UNL1       -0.0199
     32 C           4.7437   -2.8033  -10.3602 C.ar    1  UNL1       -0.0583
     33 C           3.6627   -1.9370  -10.5021 C.ar    1  UNL1       -0.0615
     34 C           3.1213   -1.3142   -9.3784 C.ar    1  UNL1       -0.0583
     35 C           3.7495   -1.4496   -8.1380 C.ar    1  UNL1       -0.0199
     36 H           3.5729    1.5272    0.4399 H       1  UNL1        0.0588
     37 H           3.5252    0.2163    1.6518 H       1  UNL1        0.0588
     38 H           0.8682   -0.0150    2.6426 H       1  UNL1        0.0809
     39 H          -0.4009    1.9438    4.0133 H       1  UNL1        0.0639
     40 H           0.0347    4.8675    4.0385 H       1  UNL1        0.0624
     41 H           1.4300    6.6674    3.0617 H       1  UNL1        0.0618
     42 H           3.1892    6.1265    1.4163 H       1  UNL1        0.0618
     43 H           3.6007    3.7881    0.7170 H       1  UNL1        0.0638
     44 H           2.5199   -1.4071   -1.5363 H       1  UNL1        0.1728
     45 H           4.9960   -0.3462   -0.2852 H       1  UNL1        0.1718
     46 H           6.9250   -1.1050   -1.3400 H       1  UNL1        0.1569
     47 H           8.9560   -2.7356   -0.6197 H       1  UNL1        0.0626
     48 H          11.3911   -2.3170   -0.6643 H       1  UNL1        0.0618
     49 H          12.5808   -2.1840   -2.8308 H       1  UNL1        0.0619
     50 H          11.3286   -2.4624   -4.9395 H       1  UNL1        0.0654
     51 H           6.9854   -1.6230   -4.8312 H       1  UNL1        0.0731
     52 H           7.0752   -3.4128   -5.1115 H       1  UNL1        0.0731
     53 H           7.3119   -3.1538   -7.4147 H       1  UNL1        0.0731
     54 H           7.2763   -1.3707   -7.3044 H       1  UNL1        0.0731
     55 H           6.0604   -3.7869   -8.9885 H       1  UNL1        0.0654
     56 H           5.1517   -3.3165  -11.2259 H       1  UNL1        0.0619
     57 H           3.2321   -1.7646  -11.4846 H       1  UNL1        0.0618
     58 H           2.2207   -0.7134   -9.4728 H       1  UNL1        0.0619
     59 H           3.3697   -0.9045   -7.2778 H       1  UNL1        0.0654
@<TRIPOS>BOND
     1     1     2    2
     2     2     3    1
     3     3     4    1
     4     4     5   ar
     5     5     6   ar
     6     6     7   ar
     7     7     8   ar
     8     8     9   ar
     9     9    10   ar
    10    10    11   ar
    11    11    12   ar
    12     7    12   ar
    13     4    12   ar
    14     2    13   am
    15    13    14    1
    16    14    15    1
    17    15    16    2
    18    15    17    1
    19    17    18   am
    20    18    19    2
    21    18    20    1
    22    20    21   ar
    23    21    22   ar
    24    22    23   ar
    25    23    24   ar
    26    24    25   ar
    27    20    25   ar
    28    25    26    1
    29    26    27    1
    30    27    28    1
    31    28    29    1
    32    29    30    1
    33    30    31   ar
    34    31    32   ar
    35    32    33   ar
    36    33    34   ar
    37    34    35   ar
    38    30    35   ar
    39     3    36    1
    40     3    37    1
    41     5    38    1
    42     6    39    1
    43     8    40    1
    44     9    41    1
    45    10    42    1
    46    11    43    1
    47    13    44    1
    48    14    45    1
    49    17    46    1
    50    21    47    1
    51    22    48    1
    52    23    49    1
    53    24    50    1
    54    27    51    1
    55    27    52    1
    56    28    53    1
    57    28    54    1
    58    31    55    1
    59    32    56    1
    60    33    57    1
    61    34    58    1
    62    35    59    1
