REMARK  15 active torsions:
REMARK  status: ('A' for Active; 'I' for Inactive)
REMARK    1  A    between atoms: C_2  and  C_3 
REMARK    2  A    between atoms: C_3  and  C_4 
REMARK    3  A    between atoms: C_4  and  C_5 
REMARK    4  A    between atoms: C_5  and  C_6 
REMARK    5  A    between atoms: C_6  and  N_7 
REMARK    6  A    between atoms: N_7  and  S_8 
REMARK    7  A    between atoms: S_8  and  C_11 
REMARK    8  A    between atoms: C_14  and  N_15 
REMARK       I    between atoms: N_15  and  C_16 
REMARK    9  A    between atoms: C_16  and  C_18 
REMARK   10  A    between atoms: C_20  and  O_21 
REMARK   11  A    between atoms: O_21  and  C_22 
REMARK   12  A    between atoms: C_24  and  O_25 
REMARK   13  A    between atoms: O_25  and  C_26 
REMARK   14  A    between atoms: C_28  and  O_29 
REMARK   15  A    between atoms: O_29  and  C_30 
ROOT
ATOM      1  N   UNL d   1      10.988  -9.785   0.308  0.00  0.00    -0.323 N 
ATOM      2  C   UNL d   1      12.319 -10.092   0.621  0.00  0.00     0.256 C 
ATOM      3  O   UNL d   1      13.206  -9.294   0.907  0.00  0.00    -0.267 OA
ATOM      4  H   UNL d   1      10.355 -10.544   0.084  0.00  0.00     0.169 HD
ENDROOT
BRANCH   1   5
ATOM      5  C   UNL d   1      10.448  -8.462   0.246  0.00  0.00     0.035 A 
ATOM      6  C   UNL d   1       9.105  -8.245  -0.118  0.00  0.00     0.031 A 
ATOM      7  C   UNL d   1       8.594  -6.933  -0.278  0.00  0.00     0.027 A 
ATOM      8  C   UNL d   1       9.409  -5.836   0.004  0.00  0.00     0.074 A 
ATOM      9  C   UNL d   1      10.727  -6.044   0.396  0.00  0.00     0.027 A 
ATOM     10  C   UNL d   1      11.230  -7.337   0.514  0.00  0.00     0.031 A 
BRANCH   8  11
ATOM     11  S   UNL d   1       8.871  -4.148  -0.020  0.00  0.00     0.241 S 
ATOM     12  O   UNL d   1       9.262  -3.587  -1.288  0.00  0.00    -0.206 OA
ATOM     13  O   UNL d   1       9.282  -3.551   1.240  0.00  0.00    -0.206 OA
BRANCH  11  14
ATOM     14  N   UNL d   1       7.166  -4.173  -0.013  0.00  0.00    -0.216 NA
ATOM     15  H   UNL d   1       6.835  -4.645  -0.854  0.00  0.00     0.139 HD
BRANCH  14  16
ATOM     16  C   UNL d   1       6.624  -2.785   0.042  0.00  0.00     0.104 C 
BRANCH  16  17
ATOM     17  C   UNL d   1       5.102  -2.804   0.041  0.00  0.00     0.015 C 
BRANCH  17  18
ATOM     18  C   UNL d   1       4.569  -1.371   0.048  0.00  0.00     0.001 C 
BRANCH  18  19
ATOM     19  C   UNL d   1       3.047  -1.351   0.046  0.00  0.00    -0.000 C 
BRANCH  19  20
ATOM     20  C   UNL d   1       2.523   0.082   0.055  0.00  0.00    -0.005 C 
ATOM     21  C   UNL d   1       1.006   0.094   0.055  0.00  0.00     0.005 C 
ENDBRANCH  19  20
ENDBRANCH  18  19
ENDBRANCH  17  18
ENDBRANCH  16  17
ENDBRANCH  14  16
ENDBRANCH  11  14
ENDBRANCH   8  11
ENDBRANCH   1   5
BRANCH   2  22
ATOM     22  C   UNL d   1      12.761 -11.509   0.553  0.00  0.00     0.037 C 
ATOM     23  C   UNL d   1      13.720 -11.992   1.463  0.00  0.00     0.057 C 
ATOM     24  C   UNL d   1      14.336 -13.244   1.270  0.00  0.00     0.105 C 
ATOM     25  C   UNL d   1      13.904 -14.065   0.206  0.00  0.00     0.135 C 
ATOM     26  C   UNL d   1      12.983 -13.546  -0.728  0.00  0.00     0.105 C 
ATOM     27  C   UNL d   1      12.420 -12.278  -0.551  0.00  0.00     0.057 C 
BRANCH  24  28
ATOM     28  O   UNL d   1      15.364 -13.521   2.156  0.00  0.00    -0.349 OA
BRANCH  28  29
ATOM     29  C   UNL d   1      16.158 -14.683   1.876  0.00  0.00     0.171 C 
ATOM     30  C   UNL d   1      17.339 -14.797   2.816  0.00  0.00     0.034 C 
ENDBRANCH  28  29
ENDBRANCH  24  28
BRANCH  25  31
ATOM     31  O   UNL d   1      14.414 -15.338   0.172  0.00  0.00    -0.346 OA
BRANCH  31  32
ATOM     32  C   UNL d   1      14.013 -16.267  -0.820  0.00  0.00     0.171 C 
ATOM     33  C   UNL d   1      14.690 -17.599  -0.564  0.00  0.00     0.034 C 
ENDBRANCH  31  32
ENDBRANCH  25  31
BRANCH  26  34
ATOM     34  O   UNL d   1      12.712 -14.315  -1.822  0.00  0.00    -0.349 OA
BRANCH  34  35
ATOM     35  C   UNL d   1      11.841 -13.814  -2.817  0.00  0.00     0.171 C 
ATOM     36  C   UNL d   1      11.731 -14.876  -3.889  0.00  0.00     0.034 C 
ENDBRANCH  34  35
ENDBRANCH  26  34
ENDBRANCH   2  22
TORSDOF 15
