REMARK  8 active torsions:
REMARK  status: ('A' for Active; 'I' for Inactive)
REMARK    1  A    between atoms: C_3  and  C_4 
REMARK       I    between atoms: C_4  and  N_6 
REMARK    2  A    between atoms: N_6  and  N_7 
REMARK    3  A    between atoms: N_13  and  C_14 
REMARK    4  A    between atoms: C_14  and  C_15 
REMARK    5  A    between atoms: N_23  and  C_24 
REMARK    6  A    between atoms: C_24  and  C_25 
REMARK       I    between atoms: C_25  and  N_27 
REMARK    7  A    between atoms: N_27  and  C_28 
REMARK    8  A    between atoms: C_28  and  C_29 
ROOT
ATOM      1  C   UNL d   1       1.206   0.063  -0.008  0.00  0.00     0.051 C 
ATOM      2  C   UNL d   1       2.726  -0.012  -0.017  0.00  0.00    -0.021 A 
ATOM      3  C   UNL d   1       3.491  -1.218  -0.013  0.00  0.00     0.083 A 
ATOM      4  S   UNL d   1       5.162  -0.861  -0.046  0.00  0.00    -0.065 SA
ATOM      5  C   UNL d   1       4.935   0.784  -0.092  0.00  0.00     0.098 A 
ATOM      6  C   UNL d   1       3.631   1.202  -0.050  0.00  0.00     0.074 A 
ATOM      7  C   UNL d   1       3.429   2.691  -0.066  0.00  0.00     0.265 C 
ATOM      8  O   UNL d   1       2.311   3.198  -0.009  0.00  0.00    -0.267 OA
ATOM      9  N   UNL d   1       4.627   3.462  -0.103  0.00  0.00    -0.261 N 
ATOM     10  C   UNL d   1       5.816   2.885   0.286  0.00  0.00     0.333 C 
ATOM     11  O   UNL d   1       6.619   3.477   1.016  0.00  0.00    -0.246 OA
ATOM     12  N   UNL d   1       6.064   1.585  -0.093  0.00  0.00    -0.283 N 
ENDROOT
BRANCH  12  13
ATOM     13  C   UNL d   1       7.446   1.062  -0.008  0.00  0.00     0.237 C 
BRANCH  13  14
ATOM     14  C   UNL d   1       8.625   2.049  -0.114  0.00  0.00     0.236 C 
ATOM     15  O   UNL d   1       8.548   3.239  -0.382  0.00  0.00    -0.272 OA
ATOM     16  N   UNL d   1       9.877   1.533   0.036  0.00  0.00    -0.355 N 
ATOM     17  H   UNL d   1      10.015   0.536   0.014  0.00  0.00     0.162 HD
BRANCH  16  18
ATOM     18  C   UNL d   1      10.961   2.497  -0.006  0.00  0.00     0.161 C 
BRANCH  18  19
ATOM     19  C   UNL d   1      12.328   1.900  -0.010  0.00  0.00    -0.041 A 
ATOM     20  C   UNL d   1      13.441   2.753  -0.014  0.00  0.00     0.009 A 
ATOM     21  C   UNL d   1      14.723   2.211  -0.018  0.00  0.00     0.001 A 
ATOM     22  C   UNL d   1      14.895   0.826  -0.017  0.00  0.00     0.000 A 
ATOM     23  C   UNL d   1      13.797  -0.021  -0.018  0.00  0.00     0.001 A 
ATOM     24  C   UNL d   1      12.524   0.516  -0.019  0.00  0.00     0.009 A 
ENDBRANCH  18  19
ENDBRANCH  16  18
ENDBRANCH  13  14
ENDBRANCH  12  13
BRANCH   9  25
ATOM     25  C   UNL d   1       4.592   4.961  -0.056  0.00  0.00     0.175 C 
BRANCH  25  26
ATOM     26  C   UNL d   1       5.945   5.724  -0.115  0.00  0.00    -0.040 A 
ATOM     27  C   UNL d   1       6.392   6.496   0.982  0.00  0.00     0.009 A 
ATOM     28  C   UNL d   1       7.706   6.997   1.040  0.00  0.00     0.001 A 
ATOM     29  C   UNL d   1       8.605   6.730   0.012  0.00  0.00     0.000 A 
ATOM     30  C   UNL d   1       8.181   5.991  -1.088  0.00  0.00     0.001 A 
ATOM     31  C   UNL d   1       6.859   5.514  -1.166  0.00  0.00     0.009 A 
ENDBRANCH  25  26
ENDBRANCH   9  25
BRANCH   3  32
ATOM     32  C   UNL d   1       3.193  -2.683   0.003  0.00  0.00     0.273 C 
ATOM     33  O   UNL d   1       2.061  -3.166  -0.009  0.00  0.00    -0.266 OA
ATOM     34  N   UNL d   1       4.333  -3.546   0.042  0.00  0.00    -0.289 N 
ATOM     35  H   UNL d   1       5.266  -3.140  -0.031  0.00  0.00     0.183 HD
BRANCH  34  36
ATOM     36  N   UNL d   1       4.236  -4.960  -0.056  0.00  0.00    -0.247 NA
ATOM     37  H   UNL d   1       3.240  -5.206  -0.033  0.00  0.00     0.143 HD
ATOM     38  H   UNL d   1       4.638  -5.386   0.786  0.00  0.00     0.143 HD
ENDBRANCH  34  36
ENDBRANCH   3  32
TORSDOF 8
