REMARK  4 active torsions:
REMARK  status: ('A' for Active; 'I' for Inactive)
REMARK    1  A    between atoms: C_3  and  C_14 
REMARK    2  A    between atoms: C_4  and  C_5 
REMARK       I    between atoms: C_14  and  N_16 
REMARK    3  A    between atoms: N_16  and  C_17 
REMARK    4  A    between atoms: C_21  and  O_22 
ROOT
ATOM      1  N   UNL d   1       0.964   0.018  -0.091  0.00  0.00    -0.096 N 
ATOM      2  C   UNL d   1       2.225   0.018  -0.091  0.00  0.00     0.025 C 
ATOM      3  C   UNL d   1       3.745   0.018  -0.091  0.00  0.00     0.099 C 
ATOM      4  C   UNL d   1       4.384  -0.388   1.026  0.00  0.00     0.038 C 
ENDROOT
BRANCH   3   5
ATOM      5  C   UNL d   1       4.460   0.486  -1.341  0.00  0.00     0.265 C 
ATOM      6  O   UNL d   1       3.776   0.837  -2.308  0.00  0.00    -0.267 OA
ATOM      7  N   UNL d   1       5.855   0.435  -1.375  0.00  0.00    -0.322 N 
ATOM      8  H   UNL d   1       6.367  -0.062  -0.659  0.00  0.00     0.169 HD
BRANCH   7   9
ATOM      9  C   UNL d   1       6.636   0.847  -2.494  0.00  0.00     0.037 A 
ATOM     10  C   UNL d   1       6.286   1.963  -3.258  0.00  0.00     0.029 A 
ATOM     11  C   UNL d   1       7.067   2.362  -4.351  0.00  0.00     0.005 A 
ATOM     12  C   UNL d   1       8.203   1.638  -4.707  0.00  0.00     0.036 A 
ATOM     13  C   UNL d   1       8.563   0.534  -3.942  0.00  0.00     0.067 A 
ATOM     14  C   UNL d   1       7.804   0.147  -2.829  0.00  0.00     0.066 A 
BRANCH  13  15
ATOM     15  O   UNL d   1       9.664  -0.214  -4.255  0.00  0.00    -0.361 OA
ATOM     16  H   UNL d   1      10.094   0.165  -5.041  0.00  0.00     0.217 HD
ENDBRANCH  13  15
ENDBRANCH   7   9
ENDBRANCH   3   5
BRANCH   4  17
ATOM     17  C   UNL d   1       3.674  -0.809   2.248  0.00  0.00    -0.034 A 
ATOM     18  C   UNL d   1       2.608  -1.721   2.209  0.00  0.00     0.014 A 
ATOM     19  C   UNL d   1       1.851  -2.021   3.343  0.00  0.00     0.031 A 
ATOM     20  C   UNL d   1       2.269  -1.458   4.548  0.00  0.00     0.042 A 
ATOM     21  N   UNL d   1       1.763  -1.606   5.818  0.00  0.00    -0.365 N 
ATOM     22  C   UNL d   1       3.364  -0.600   4.640  0.00  0.00    -0.007 A 
ATOM     23  C   UNL d   1       2.541  -0.924   6.715  0.00  0.00     0.089 A 
ATOM     24  H   UNL d   1       0.959  -2.173   6.052  0.00  0.00     0.165 HD
ATOM     25  C   UNL d   1       3.518  -0.262   6.009  0.00  0.00     0.030 A 
ATOM     26  C   UNL d   1       4.067  -0.254   3.471  0.00  0.00     0.025 A 
ENDBRANCH   4  17
TORSDOF 4
