REMARK  6 active torsions:
REMARK  status: ('A' for Active; 'I' for Inactive)
REMARK    1  A    between atoms: O_2  and  C_3 
REMARK    2  A    between atoms: C_3  and  C_5 
REMARK    3  A    between atoms: C_7  and  S_8 
REMARK    4  A    between atoms: S_8  and  N_11 
REMARK    5  A    between atoms: N_11  and  C_12 
REMARK    6  A    between atoms: C_25  and  O_26 
ROOT
ATOM      1  S   UNL d   1       7.529   0.832   3.765  0.00  0.00     0.263 S 
ATOM      2  O   UNL d   1       7.192   2.071   4.434  0.00  0.00    -0.200 OA
ATOM      3  O   UNL d   1       7.187  -0.454   4.333  0.00  0.00    -0.200 OA
ENDROOT
BRANCH   1   4
ATOM      4  C   UNL d   1       6.673   0.879   2.180  0.00  0.00     0.081 A 
ATOM      5  C   UNL d   1       5.259   0.849   2.184  0.00  0.00     0.045 A 
ATOM      6  C   UNL d   1       4.529   0.839   0.974  0.00  0.00     0.074 A 
ATOM      7  C   UNL d   1       5.229   0.883  -0.237  0.00  0.00     0.082 A 
ATOM      8  C   UNL d   1       6.629   0.924  -0.241  0.00  0.00     0.039 A 
ATOM      9  C   UNL d   1       7.353   0.918   0.963  0.00  0.00     0.028 A 
BRANCH   6  10
ATOM     10  C   UNL d   1       3.039   0.888   1.018  0.00  0.00     0.295 C 
ATOM     11  O   UNL d   1       2.435   1.601   1.811  0.00  0.00    -0.259 OA
BRANCH  10  12
ATOM     12  O   UNL d   1       2.467   0.028   0.135  0.00  0.00    -0.322 OA
ATOM     13  C   UNL d   1       1.032   0.047   0.116  0.00  0.00     0.213 C 
ENDBRANCH  10  12
ENDBRANCH   6  10
BRANCH   7  14
ATOM     14  O   UNL d   1       4.546   0.934  -1.420  0.00  0.00    -0.360 OA
ATOM     15  H   UNL d   1       5.156   0.901  -2.174  0.00  0.00     0.217 HD
ENDBRANCH   7  14
ENDBRANCH   1   4
BRANCH   1  16
ATOM     16  N   UNL d   1       9.199   0.848   3.470  0.00  0.00    -0.281 N 
ATOM     17  H   UNL d   1       9.571   0.983   2.540  0.00  0.00     0.179 HD
BRANCH  16  18
ATOM     18  C   UNL d   1      10.133   0.846   4.564  0.00  0.00     0.043 A 
ATOM     19  C   UNL d   1      10.002  -0.045   5.619  0.00  0.00     0.032 A 
ATOM     20  C   UNL d   1      10.934  -0.062   6.665  0.00  0.00     0.032 A 
ATOM     21  C   UNL d   1      12.052   0.786   6.695  0.00  0.00     0.036 A 
ATOM     22  C   UNL d   1      12.213   1.653   5.596  0.00  0.00    -0.029 A 
ATOM     23  N   UNL d   1      12.931   0.809   7.774  0.00  0.00    -0.385 N 
ATOM     24  C   UNL d   1      11.261   1.676   4.540  0.00  0.00     0.039 A 
ATOM     25  C   UNL d   1      13.445   2.525   5.506  0.00  0.00     0.042 C 
ATOM     26  C   UNL d   1      14.061   2.802   6.870  0.00  0.00     0.024 C 
ATOM     27  C   UNL d   1      14.205   1.514   7.661  0.00  0.00     0.123 C 
ATOM     28  C   UNL d   1      12.834  -0.196   8.826  0.00  0.00     0.149 C 
ENDBRANCH  16  18
ENDBRANCH   1  16
TORSDOF 6
