@<TRIPOS>MOLECULE
*****
 67 68 0 0 0
SMALL
GASTEIGER

@<TRIPOS>ATOM
      1 C           8.0078   -2.9594  -10.9108 C.3     1  UNL1       -0.0652
      2 C           7.1246   -2.3484   -9.8377 C.3     1  UNL1       -0.0545
      3 C           7.5140   -2.8432   -8.4560 C.3     1  UNL1       -0.0376
      4 C           6.5712   -2.2542   -7.3937 C.3     1  UNL1        0.0116
      5 N           6.7702   -2.7446   -6.0500 N.am    1  UNL1       -0.3135
      6 C           6.2717   -2.0659   -4.9596 C.2     1  UNL1        0.2384
      7 O           5.2590   -1.4273   -5.0529 O.2     1  UNL1       -0.2734
      8 C           7.0321   -2.3661   -3.6129 C.3     1  UNL1        0.1347
      9 C           6.2185   -1.5444   -2.2495 C.ar    1  UNL1        0.0648
     10 C           5.9434   -0.2102   -2.5288 C.ar    1  UNL1        0.1292
     11 O           6.3702    0.4966   -3.6225 O.3     1  UNL1       -0.5062
     12 C           5.3713    0.5577   -1.5103 C.ar    1  UNL1        0.0219
     13 C           5.0733    0.0812   -0.2029 C.ar    1  UNL1        0.1238
     14 O           4.5519    0.8767    0.7639 O.3     1  UNL1       -0.5065
     15 C           5.3298   -1.1684    0.2315 C.ar    1  UNL1        0.0219
     16 C           5.9328   -1.9506   -0.7042 C.ar    1  UNL1        0.1292
     17 O           6.5495   -2.8653    0.2006 O.3     1  UNL1       -0.5062
     18 N           8.6550   -2.4989   -3.6843 N.am    1  UNL1       -0.2782
     19 C           9.4768   -1.9085   -2.6747 C.2     1  UNL1        0.2503
     20 O          10.6938   -1.8274   -2.6406 O.2     1  UNL1       -0.2723
     21 C           8.7195   -1.4824   -1.4978 C.3     1  UNL1        0.1591
     22 O           8.3167   -2.8997   -1.0686 O.3     1  UNL1       -0.3659
     23 C           7.3181   -3.9096   -1.6400 C.3     1  UNL1        0.0379
     24 C           9.5081   -0.5762   -0.5179 C.ar    1  UNL1       -0.0101
     25 C          10.3903   -1.1679    0.3727 C.ar    1  UNL1       -0.0556
     26 C          11.0693   -0.4030    1.3208 C.ar    1  UNL1       -0.0614
     27 C          10.9638    0.9887    1.3328 C.ar    1  UNL1       -0.0617
     28 C          10.1360    1.6259    0.4148 C.ar    1  UNL1       -0.0614
     29 C           9.4096    0.8519   -0.5074 C.ar    1  UNL1       -0.0556
     30 C           9.4077   -3.5475   -4.5479 C.3     1  UNL1        0.0302
     31 C           8.9413   -5.0130   -4.3302 C.3     1  UNL1       -0.0440
     32 C           9.4148   -3.1887   -6.0241 C.3     1  UNL1       -0.0440
     33 C          10.9357   -3.5720   -4.3078 C.3     1  UNL1       -0.0440
     34 H           7.6948   -2.6040  -11.8962 H       1  UNL1        0.0230
     35 H           7.9365   -4.0516  -10.8992 H       1  UNL1        0.0230
     36 H           9.0579   -2.6847  -10.7646 H       1  UNL1        0.0230
     37 H           6.0791   -2.6064  -10.0279 H       1  UNL1        0.0263
     38 H           7.2149   -1.2564   -9.8694 H       1  UNL1        0.0263
     39 H           8.5560   -2.5362   -8.2939 H       1  UNL1        0.0280
     40 H           7.4956   -3.9404   -8.4264 H       1  UNL1        0.0280
     41 H           5.5321   -2.4556   -7.6488 H       1  UNL1        0.0462
     42 H           6.7335   -1.1722   -7.3472 H       1  UNL1        0.0462
     43 H           7.0170   -3.7081   -5.8801 H       1  UNL1        0.1487
     44 H           6.7301   -3.4132   -3.6652 H       1  UNL1        0.0650
     45 H           6.6545   -0.0453   -4.3759 H       1  UNL1        0.2922
     46 H           5.1789    1.5937   -1.7478 H       1  UNL1        0.0691
     47 H           4.4498    1.7398    0.3509 H       1  UNL1        0.2921
     48 H           5.2431   -1.4911    1.2753 H       1  UNL1        0.0691
     49 H           6.0048   -3.5816    0.5694 H       1  UNL1        0.2922
     50 H           8.0690   -0.7189   -1.9139 H       1  UNL1        0.0744
     51 H           6.7972   -4.5457   -0.9078 H       1  UNL1        0.0524
     52 H           7.7922   -4.5889   -2.3020 H       1  UNL1        0.0524
     53 H           6.3217   -3.6166   -2.0555 H       1  UNL1        0.0524
     54 H          10.5458   -2.2388    0.3060 H       1  UNL1        0.0621
     55 H          11.6759   -0.9111    2.0620 H       1  UNL1        0.0618
     56 H          11.5332    1.5664    2.0563 H       1  UNL1        0.0618
     57 H          10.0457    2.7128    0.4352 H       1  UNL1        0.0618
     58 H           8.7726    1.3935   -1.2091 H       1  UNL1        0.0621
     59 H           7.8664   -5.1670   -4.4738 H       1  UNL1        0.0250
     60 H           9.2017   -5.3753   -3.3275 H       1  UNL1        0.0250
     61 H           9.4496   -5.6939   -5.0229 H       1  UNL1        0.0250
     62 H           8.6336   -3.7063   -6.5474 H       1  UNL1        0.0250
     63 H          10.2636   -3.5978   -6.5776 H       1  UNL1        0.0250
     64 H           9.3895   -2.1023   -6.1604 H       1  UNL1        0.0250
     65 H          11.1840   -3.9227   -3.3029 H       1  UNL1        0.0250
     66 H          11.3363   -2.5677   -4.5029 H       1  UNL1        0.0250
     67 H          11.4617   -4.2250   -5.0081 H       1  UNL1        0.0250
@<TRIPOS>BOND
     1     1     2    1
     2     2     3    1
     3     3     4    1
     4     4     5    1
     5     5     6   am
     6     6     7    2
     7     9    10   ar
     8    10    11    1
     9    10    12   ar
    10    12    13   ar
    11    13    14    1
    12    13    15   ar
    13    15    16   ar
    14     9    16   ar
    15    16    17    1
    16     8    18    1
    17    18    19   am
    18    19    20    2
    19    19    21    1
    20    21    22    1
    21    22    23    1
    22    21    24    1
    23    24    25   ar
    24    25    26   ar
    25    26    27   ar
    26    27    28   ar
    27    28    29   ar
    28    24    29   ar
    29    18    30    1
    30    30    31    1
    31    30    32    1
    32    30    33    1
    33     8     9    1
    34     8     6    1
    35     1    34    1
    36     1    35    1
    37     1    36    1
    38     2    37    1
    39     2    38    1
    40     3    39    1
    41     3    40    1
    42     4    41    1
    43     4    42    1
    44     5    43    1
    45     8    44    1
    46    11    45    1
    47    12    46    1
    48    14    47    1
    49    15    48    1
    50    17    49    1
    51    21    50    1
    52    23    51    1
    53    23    52    1
    54    23    53    1
    55    25    54    1
    56    26    55    1
    57    27    56    1
    58    28    57    1
    59    29    58    1
    60    31    59    1
    61    31    60    1
    62    31    61    1
    63    32    62    1
    64    32    63    1
    65    32    64    1
    66    33    65    1
    67    33    66    1
    68    33    67    1
