REMARK  4 active torsions:
REMARK  status: ('A' for Active; 'I' for Inactive)
REMARK       I    between atoms: C_2  and  N_4 
REMARK    1  A    between atoms: N_4  and  C_5 
REMARK    2  A    between atoms: C_8  and  N_9 
REMARK    3  A    between atoms: N_9  and  C_10 
REMARK    4  A    between atoms: C_11  and  C_12 
ROOT
ATOM      1  C   UNL d   1       9.570   1.217  -0.394  0.00  0.00     0.102 A 
ATOM      2  C   UNL d   1       9.591   1.899  -1.572  0.00  0.00     0.060 A 
ATOM      3  C   UNL d   1      10.538   1.020  -2.218  0.00  0.00     0.237 A 
ATOM      4  O   UNL d   1      11.152   0.921  -3.258  0.00  0.00    -0.283 OA
ATOM      5  C   UNL d   1      10.543   0.230  -0.948  0.00  0.00     0.250 A 
ATOM      6  O   UNL d   1      11.094  -0.803  -0.634  0.00  0.00    -0.282 OA
ENDROOT
BRANCH   1   7
ATOM      7  N   UNL d   1       8.884   1.281   0.739  0.00  0.00    -0.352 N 
ATOM      8  H   UNL d   1       9.305   1.013   1.627  0.00  0.00     0.166 HD
BRANCH   7   9
ATOM      9  C   UNL d   1       7.451   1.187   0.794  0.00  0.00     0.032 A 
ATOM     10  C   UNL d   1       6.743   1.234   2.005  0.00  0.00     0.031 A 
ATOM     11  C   UNL d   1       5.330   1.079   2.039  0.00  0.00     0.032 A 
ATOM     12  C   UNL d   1       4.595   0.937   0.856  0.00  0.00     0.034 A 
ATOM     13  C   UNL d   1       5.289   0.948  -0.344  0.00  0.00     0.032 A 
ATOM     14  C   UNL d   1       6.678   1.079  -0.369  0.00  0.00     0.031 A 
BRANCH  12  15
ATOM     15  N   UNL d   1       3.179   0.843   0.849  0.00  0.00    -0.328 N 
ATOM     16  C   UNL d   1       2.493   0.035  -0.051  0.00  0.00     0.218 C 
ATOM     17  C   UNL d   1       0.987   0.105   0.017  0.00  0.00     0.117 C 
ATOM     18  O   UNL d   1       3.026  -0.738  -0.846  0.00  0.00    -0.274 OA
ATOM     19  H   UNL d   1       2.669   1.332   1.574  0.00  0.00     0.169 HD
ENDBRANCH  12  15
ENDBRANCH   7   9
ENDBRANCH   1   7
BRANCH   2  20
ATOM     20  C   UNL d   1       9.044   3.188  -2.022  0.00  0.00    -0.013 A 
ATOM     21  C   UNL d   1       9.137   4.275  -1.152  0.00  0.00     0.020 A 
ATOM     22  C   UNL d   1       8.396   5.439  -1.386  0.00  0.00    -0.055 A 
ATOM     23  C   UNL d   1       8.354   6.508  -0.336  0.00  0.00     0.049 C 
ATOM     24  C   UNL d   1       7.619   5.543  -2.550  0.00  0.00    -0.056 A 
ATOM     25  C   UNL d   1       6.938   6.828  -2.935  0.00  0.00     0.049 C 
ATOM     26  C   UNL d   1       7.506   4.428  -3.396  0.00  0.00     0.014 A 
ATOM     27  C   UNL d   1       8.230   3.248  -3.158  0.00  0.00    -0.050 A 
ATOM     28  C   UNL d   1       8.033   2.067  -4.060  0.00  0.00     0.049 C 
ENDBRANCH   2  20
TORSDOF 4
