REMARK  13 active torsions:
REMARK  status: ('A' for Active; 'I' for Inactive)
REMARK       I    between atoms: C_2  and  N_3 
REMARK    1  A    between atoms: C_2  and  O_33 
REMARK    2  A    between atoms: N_3  and  C_4 
REMARK    3  A    between atoms: C_4  and  C_5 
REMARK    4  A    between atoms: C_4  and  C_21 
REMARK    5  A    between atoms: C_5  and  C_6 
REMARK       I    between atoms: N_10  and  C_11 
REMARK    6  A    between atoms: C_11  and  O_13 
REMARK    7  A    between atoms: O_13  and  C_14 
REMARK    8  A    between atoms: C_14  and  C_15 
REMARK    9  A    between atoms: C_21  and  O_23 
REMARK   10  A    between atoms: O_23  and  C_24 
REMARK   11  A    between atoms: C_27  and  N_28 
REMARK   12  A    between atoms: O_33  and  C_34 
REMARK   13  A    between atoms: C_34  and  C_35 
ROOT
ATOM      1  C   UNL d   1       2.353   0.392  -2.379  0.00  0.00     0.192 C 
ENDROOT
BRANCH   1   2
ATOM      2  N   UNL d   1       3.086   0.197  -1.067  0.00  0.00    -0.323 N 
ATOM      3  C   UNL d   1       2.544  -0.133   0.157  0.00  0.00     0.361 C 
ATOM      4  O   UNL d   1       1.393  -0.479   0.368  0.00  0.00    -0.238 OA
ATOM      5  H   UNL d   1       4.092   0.274  -1.141  0.00  0.00     0.165 HD
BRANCH   3   6
ATOM      6  O   UNL d   1       3.315  -0.066   1.249  0.00  0.00    -0.299 OA
BRANCH   6   7
ATOM      7  C   UNL d   1       4.722  -0.155   1.216  0.00  0.00     0.219 C 
BRANCH   7   8
ATOM      8  C   UNL d   1       5.092  -0.378   2.653  0.00  0.00    -0.034 A 
ATOM      9  C   UNL d   1       5.097  -1.665   3.210  0.00  0.00     0.009 A 
ATOM     10  C   UNL d   1       5.312  -1.835   4.578  0.00  0.00     0.001 A 
ATOM     11  C   UNL d   1       5.589  -0.731   5.382  0.00  0.00     0.000 A 
ATOM     12  C   UNL d   1       5.563   0.552   4.841  0.00  0.00     0.001 A 
ATOM     13  C   UNL d   1       5.290   0.729   3.488  0.00  0.00     0.009 A 
ENDBRANCH   7   8
ENDBRANCH   6   7
ENDBRANCH   3   6
ENDBRANCH   1   2
BRANCH   1  14
ATOM     14  C   UNL d   1       1.434   1.624  -2.346  0.00  0.00     0.094 C 
BRANCH  14  15
ATOM     15  C   UNL d   1       0.295   1.538  -1.387  0.00  0.00     0.043 C 
ATOM     16  C   UNL d   1      -0.418   0.431  -0.963  0.00  0.00     0.143 C 
ATOM     17  N   UNL d   1      -1.208   0.727   0.107  0.00  0.00    -0.253 NA
ATOM     18  C   UNL d   1      -1.034   2.010   0.306  0.00  0.00     0.219 C 
ATOM     19  N   UNL d   1      -0.229   2.597  -0.648  0.00  0.00    -0.255 N 
ATOM     20  C   UNL d   1      -0.063   3.983  -0.793  0.00  0.00     0.372 C 
ATOM     21  O   UNL d   1      -0.650   4.771  -0.067  0.00  0.00    -0.238 OA
BRANCH  20  22
ATOM     22  O   UNL d   1       0.741   4.268  -1.844  0.00  0.00    -0.299 OA
BRANCH  22  23
ATOM     23  C   UNL d   1       0.907   5.663  -2.129  0.00  0.00     0.219 C 
BRANCH  23  24
ATOM     24  C   UNL d   1       1.886   5.877  -3.269  0.00  0.00    -0.034 A 
ATOM     25  C   UNL d   1       2.569   4.822  -3.889  0.00  0.00     0.009 A 
ATOM     26  C   UNL d   1       3.584   5.058  -4.815  0.00  0.00     0.001 A 
ATOM     27  C   UNL d   1       3.849   6.353  -5.235  0.00  0.00     0.000 A 
ATOM     28  C   UNL d   1       3.143   7.416  -4.676  0.00  0.00     0.001 A 
ATOM     29  C   UNL d   1       2.179   7.182  -3.690  0.00  0.00     0.009 A 
ENDBRANCH  23  24
ENDBRANCH  22  23
ENDBRANCH  20  22
ENDBRANCH  14  15
ENDBRANCH   1  14
BRANCH   1  30
ATOM     30  C   UNL d   1       3.425   0.619  -3.489  0.00  0.00     0.287 C 
ATOM     31  O   UNL d   1       4.629   0.574  -3.237  0.00  0.00    -0.262 OA
BRANCH  30  32
ATOM     32  O   UNL d   1       2.890   0.879  -4.766  0.00  0.00    -0.277 OA
BRANCH  32  33
ATOM     33  C   UNL d   1       3.772   0.965  -5.888  0.00  0.00     0.079 A 
ATOM     34  C   UNL d   1       3.522   1.910  -6.894  0.00  0.00     0.040 A 
ATOM     35  C   UNL d   1       4.346   1.959  -8.037  0.00  0.00     0.039 A 
ATOM     36  C   UNL d   1       5.460   1.111  -8.132  0.00  0.00     0.103 A 
ATOM     37  C   UNL d   1       5.692   0.151  -7.142  0.00  0.00     0.039 A 
ATOM     38  C   UNL d   1       4.833   0.066  -6.039  0.00  0.00     0.040 A 
BRANCH  36  39
ATOM     39  N   UNL d   1       6.425   1.266  -9.235  0.00  0.00    -0.116 N 
ATOM     40  O   UNL d   1       6.197   2.143 -10.081  0.00  0.00    -0.532 OA
ATOM     41  O   UNL d   1       7.421   0.529  -9.238  0.00  0.00    -0.532 OA
ENDBRANCH  36  39
ENDBRANCH  32  33
ENDBRANCH  30  32
ENDBRANCH   1  30
TORSDOF 13
