@<TRIPOS>MOLECULE
*****
 50 52 0 0 0
SMALL
GASTEIGER

@<TRIPOS>ATOM
      1 O           1.0743   -0.0218    0.3995 O.2     1  UNL1       -0.2687
      2 C           2.3142   -0.0827    0.3994 C.2     1  UNL1        0.2602
      3 N           3.0265   -1.2451    0.6712 N.am    1  UNL1       -0.2311
      4 N           2.3896   -2.5904    0.8078 N.am    1  UNL1       -0.2453
      5 C           3.2546   -3.7294    0.7918 C.2     1  UNL1        0.1533
      6 S           4.9275   -3.5496    0.6696 S.2     1  UNL1       -0.0170
      7 N           2.5966   -4.9893    0.8926 N.am    1  UNL1       -0.2626
      8 C           3.1067   -6.2913    0.6130 C.2     1  UNL1        0.2531
      9 O           4.3051   -6.5306    0.3982 O.2     1  UNL1       -0.2697
     10 C           2.2122   -7.5116    0.5467 C.ar    1  UNL1        0.0786
     11 C           2.6609   -8.5880    1.3545 C.ar    1  UNL1       -0.0461
     12 C           2.0990   -9.8699    1.2727 C.ar    1  UNL1       -0.0608
     13 C           1.0315  -10.0995    0.4183 C.ar    1  UNL1       -0.0583
     14 C           0.5853   -9.0685   -0.4079 C.ar    1  UNL1       -0.0192
     15 C           1.1805   -7.7866   -0.3896 C.ar    1  UNL1        0.1326
     16 O           0.6516   -7.0003   -1.3980 O.3     1  UNL1       -0.4909
     17 C           1.1950   -5.7033   -1.4557 C.3     1  UNL1        0.0936
     18 C           0.5657   -4.7395   -2.4351 C.3     1  UNL1        0.0066
     19 C           1.2520   -3.3900   -2.4141 C.ar    1  UNL1       -0.0442
     20 C           2.6422   -3.2404   -2.2672 C.ar    1  UNL1       -0.0585
     21 C           3.2163   -1.9752   -2.2361 C.ar    1  UNL1       -0.0615
     22 C           2.4118   -0.8617   -2.4359 C.ar    1  UNL1       -0.0617
     23 C           1.0358   -0.9839   -2.5280 C.ar    1  UNL1       -0.0615
     24 C           0.4591   -2.2427   -2.5342 C.ar    1  UNL1       -0.0585
     25 C           3.1064    1.1857    0.1133 C.ar    1  UNL1        0.0410
     26 C           2.6575    2.3477    0.7388 C.ar    1  UNL1       -0.0314
     27 C           3.3529    3.5323    0.5421 C.ar    1  UNL1        0.0283
     28 N           4.3991    3.6649   -0.2989 N.ar    1  UNL1       -0.2632
     29 C           4.7832    2.5580   -0.9588 C.ar    1  UNL1        0.0283
     30 C           4.2042    1.3056   -0.7608 C.ar    1  UNL1       -0.0314
     31 H           4.0254   -1.2836    0.4824 H       1  UNL1        0.1731
     32 H           1.4950   -2.6274    0.3062 H       1  UNL1        0.1718
     33 H           1.6225   -4.9496    1.1648 H       1  UNL1        0.1569
     34 H           3.5052   -8.4451    2.0300 H       1  UNL1        0.0626
     35 H           2.5118  -10.6924    1.8553 H       1  UNL1        0.0618
     36 H           0.5646  -11.0817    0.3718 H       1  UNL1        0.0619
     37 H          -0.2168   -9.2793   -1.1151 H       1  UNL1        0.0654
     38 H           2.2665   -5.7931   -1.6475 H       1  UNL1        0.0700
     39 H           0.9325   -5.2516   -0.5086 H       1  UNL1        0.0700
     40 H          -0.4749   -4.6082   -2.1105 H       1  UNL1        0.0346
     41 H           0.5547   -5.1336   -3.4506 H       1  UNL1        0.0346
     42 H           3.3058   -4.0862   -2.0969 H       1  UNL1        0.0620
     43 H           4.2609   -1.8632   -1.9465 H       1  UNL1        0.0618
     44 H           2.8137    0.1386   -2.4119 H       1  UNL1        0.0618
     45 H           0.4231   -0.0863   -2.5246 H       1  UNL1        0.0618
     46 H          -0.6207   -2.3152   -2.6166 H       1  UNL1        0.0620
     47 H           1.7870    2.3284    1.3848 H       1  UNL1        0.0640
     48 H           3.0797    4.4360    1.0792 H       1  UNL1        0.0830
     49 H           5.5886    2.7107   -1.6773 H       1  UNL1        0.0830
     50 H           4.5958    0.4916   -1.3572 H       1  UNL1        0.0640
@<TRIPOS>BOND
     1     1     2    2
     2     2     3   am
     3     3     4    1
     4     4     5    1
     5     5     6    2
     6     5     7    1
     7     7     8   am
     8     8     9    2
     9     8    10    1
    10    10    11   ar
    11    11    12   ar
    12    12    13   ar
    13    13    14   ar
    14    14    15   ar
    15    10    15   ar
    16    15    16    1
    17    16    17    1
    18    17    18    1
    19    18    19    1
    20    19    20   ar
    21    20    21   ar
    22    21    22   ar
    23    22    23   ar
    24    23    24   ar
    25    19    24   ar
    26     2    25    1
    27    25    26   ar
    28    26    27   ar
    29    27    28   ar
    30    28    29   ar
    31    29    30   ar
    32    25    30   ar
    33     3    31    1
    34     4    32    1
    35     7    33    1
    36    11    34    1
    37    12    35    1
    38    13    36    1
    39    14    37    1
    40    17    38    1
    41    17    39    1
    42    18    40    1
    43    18    41    1
    44    20    42    1
    45    21    43    1
    46    22    44    1
    47    23    45    1
    48    24    46    1
    49    26    47    1
    50    27    48    1
    51    29    49    1
    52    30    50    1
