@<TRIPOS>MOLECULE
*****
 40 40 0 0 0
SMALL
GASTEIGER

@<TRIPOS>ATOM
      1 C           0.9534   -0.0543    0.0401 C.3     1  UNL1       -0.0612
      2 C           2.4878   -0.0728    0.0471 C.3     1  UNL1       -0.0311
      3 C           2.9689   -0.7051    1.3523 C.3     1  UNL1       -0.0612
      4 C           3.0313   -0.8453   -1.1707 C.3     1  UNL1        0.0140
      5 N           4.4957   -0.8786   -1.2577 N.am    1  UNL1       -0.3138
      6 C           5.1432   -1.5640   -2.2788 C.2     1  UNL1        0.2303
      7 O           4.5186   -2.1524   -3.1628 O.2     1  UNL1       -0.2741
      8 C           6.6991   -1.5606   -2.2620 C.3     1  UNL1        0.0896
      9 N           7.2927   -2.3054   -3.3998 N.am    1  UNL1       -0.2896
     10 C           8.6581   -2.4166   -3.5920 C.2     1  UNL1        0.3163
     11 O           9.4673   -1.9200   -2.8104 O.2     1  UNL1       -0.2513
     12 N           9.0512   -3.1266   -4.7326 N.am    1  UNL1       -0.2203
     13 N          10.4514   -3.1823   -5.0495 N.pl3   1  UNL1       -0.2633
     14 C          10.8939   -4.0615   -6.0658 C.ar    1  UNL1        0.0457
     15 C          10.3911   -3.9594   -7.3709 C.ar    1  UNL1       -0.0393
     16 C          10.8083   -4.8274   -8.3932 C.ar    1  UNL1       -0.0588
     17 C          11.7445   -5.8250   -8.1319 C.ar    1  UNL1       -0.0442
     18 C          12.3020   -5.9223   -6.8555 C.ar    1  UNL1        0.0536
     19 C          13.3309   -6.9022   -6.6160 C.1     1  UNL1        0.0992
     20 N          14.1673   -7.6847   -6.4539 N.1     1  UNL1       -0.1909
     21 C          11.8715   -5.0503   -5.8294 C.ar    1  UNL1       -0.0220
     22 H           0.5644    0.5073    0.8982 H       1  UNL1        0.0233
     23 H           0.5454   -1.0699    0.0978 H       1  UNL1        0.0233
     24 H           0.5651    0.4157   -0.8690 H       1  UNL1        0.0233
     25 H           2.8430    0.9649    0.0056 H       1  UNL1        0.0311
     26 H           2.6176   -1.7393    1.4338 H       1  UNL1        0.0233
     27 H           2.5959   -0.1486    2.2183 H       1  UNL1        0.0233
     28 H           4.0605   -0.7120    1.4099 H       1  UNL1        0.0233
     29 H           2.6537   -0.3914   -2.0951 H       1  UNL1        0.0464
     30 H           2.6682   -1.8803   -1.1477 H       1  UNL1        0.0464
     31 H           5.0310   -0.4083   -0.5381 H       1  UNL1        0.1487
     32 H           7.0497   -2.0180   -1.3301 H       1  UNL1        0.0558
     33 H           7.0547   -0.5250   -2.3017 H       1  UNL1        0.0558
     34 H           6.6325   -2.7182   -4.0462 H       1  UNL1        0.1508
     35 H           8.4077   -3.5876   -5.3624 H       1  UNL1        0.1743
     36 H          11.0634   -3.0214   -4.2465 H       1  UNL1        0.1700
     37 H           9.7066   -3.1518   -7.6186 H       1  UNL1        0.0636
     38 H          10.4108   -4.7166   -9.4000 H       1  UNL1        0.0619
     39 H          12.0429   -6.5081   -8.9278 H       1  UNL1        0.0630
     40 H          12.3142   -5.1535   -4.8408 H       1  UNL1        0.0649
@<TRIPOS>BOND
     1     1     2    1
     2     2     3    1
     3     2     4    1
     4     4     5    1
     5     5     6   am
     6     6     7    2
     7     6     8    1
     8     8     9    1
     9     9    10   am
    10    10    11    2
    11    10    12   am
    12    12    13    1
    13    13    14    1
    14    14    15   ar
    15    15    16   ar
    16    16    17   ar
    17    17    18   ar
    18    18    19    1
    19    19    20    3
    20    18    21   ar
    21    14    21   ar
    22     1    22    1
    23     1    23    1
    24     1    24    1
    25     2    25    1
    26     3    26    1
    27     3    27    1
    28     3    28    1
    29     4    29    1
    30     4    30    1
    31     5    31    1
    32     8    32    1
    33     8    33    1
    34     9    34    1
    35    12    35    1
    36    13    36    1
    37    15    37    1
    38    16    38    1
    39    17    39    1
    40    21    40    1
