REMARK  6 active torsions:
REMARK  status: ('A' for Active; 'I' for Inactive)
REMARK    1  A    between atoms: N_4  and  C_5 
REMARK    2  A    between atoms: C_7  and  N_8 
REMARK    3  A    between atoms: N_11  and  C_12 
REMARK    4  A    between atoms: C_12  and  C_13 
REMARK    5  A    between atoms: C_22  and  N_23 
REMARK    6  A    between atoms: C_24  and  N_25 
ROOT
ATOM      1  C   UNL d   1       1.777   1.447  -3.299  0.00  0.00     0.182 A 
ATOM      2  N   UNL d   1       0.535   0.969  -3.639  0.00  0.00    -0.042 NA
ATOM      3  C   UNL d   1      -0.277   1.723  -4.403  0.00  0.00     0.728 A 
ATOM      4  N   UNL d   1       0.060   2.940  -4.830  0.00  0.00    -0.043 NA
ATOM      5  C   UNL d   1       1.263   3.438  -4.477  0.00  0.00     0.177 A 
ATOM      6  C   UNL d   1       2.186   2.700  -3.746  0.00  0.00     0.195 A 
ENDROOT
BRANCH   3   7
ATOM      7  N   UNL d   1      -1.498   1.234  -4.800  0.00  0.00    -0.211 N 
ATOM      8  C   UNL d   1      -1.851   1.198  -6.220  0.00  0.00     0.169 C 
ATOM      9  C   UNL d   1      -2.296  -0.243  -6.609  0.00  0.00     0.255 C 
ATOM     10  N   UNL d   1      -3.410  -0.734  -5.678  0.00  0.00    -0.064 N 
ATOM     11  C   UNL d   1      -2.839  -0.731  -4.249  0.00  0.00     0.255 C 
ATOM     12  H   UNL d   1      -3.627  -1.711  -5.914  0.00  0.00     0.280 HD
ATOM     13  C   UNL d   1      -2.458   0.712  -3.838  0.00  0.00     0.169 C 
BRANCH  10  14
ATOM     14  C   UNL d   1      -4.699   0.045  -5.896  0.00  0.00     0.273 C 
BRANCH  14  15
ATOM     15  C   UNL d   1      -5.863  -0.387  -5.053  0.00  0.00    -0.033 C 
ATOM     16  C   UNL d   1      -7.069  -0.778  -5.638  0.00  0.00     0.009 C 
ATOM     17  C   UNL d   1      -8.172  -1.053  -4.827  0.00  0.00     0.001 C 
ATOM     18  C   UNL d   1      -8.046  -1.075  -3.437  0.00  0.00     0.000 C 
ATOM     19  C   UNL d   1      -6.849  -0.720  -2.845  0.00  0.00     0.001 C 
ATOM     20  C   UNL d   1      -5.807  -0.299  -3.652  0.00  0.00     0.009 C 
ENDBRANCH  14  15
ENDBRANCH  10  14
ENDBRANCH   3   7
BRANCH   1  21
ATOM     21  N   UNL d   1       2.532   0.652  -2.467  0.00  0.00    -0.358 N 
ATOM     22  C   UNL d   1       2.934   1.056  -1.105  0.00  0.00     0.156 C 
ATOM     23  C   UNL d   1       2.465   0.004  -0.075  0.00  0.00     0.136 C 
ATOM     24  O   UNL d   1       2.886  -1.323  -0.454  0.00  0.00    -0.378 OA
ATOM     25  C   UNL d   1       2.989   0.312   1.321  0.00  0.00     0.041 C 
ATOM     26  C   UNL d   1       2.438  -1.681  -1.782  0.00  0.00     0.136 C 
ATOM     27  C   UNL d   1       2.967  -0.693  -2.839  0.00  0.00     0.156 C 
ATOM     28  C   UNL d   1       0.912  -1.734  -1.841  0.00  0.00     0.041 C 
ENDBRANCH   1  21
BRANCH   5  29
ATOM     29  N   UNL d   1       1.440   4.757  -4.837  0.00  0.00    -0.381 N 
ATOM     30  H   UNL d   1       0.721   5.225  -5.365  0.00  0.00     0.157 HD
ATOM     31  H   UNL d   1       2.351   5.200  -4.728  0.00  0.00     0.157 HD
ENDBRANCH   5  29
BRANCH   6  32
ATOM     32  N   UNL d   1       3.554   3.194  -3.563  0.00  0.00    -0.108 N 
ATOM     33  O   UNL d   1       4.417   2.462  -3.077  0.00  0.00    -0.532 OA
ATOM     34  O   UNL d   1       3.812   4.352  -3.948  0.00  0.00    -0.532 OA
ENDBRANCH   6  32
TORSDOF 6
