@<TRIPOS>MOLECULE
*****
 39 40 0 0 0
SMALL
GASTEIGER

@<TRIPOS>ATOM
      1 C           1.0590    0.0620   -0.0544 C.3     1  UNL1       -0.0652
      2 C           2.5829    0.0503   -0.0298 C.3     1  UNL1       -0.0545
      3 C           3.1242   -0.5682    1.2700 C.3     1  UNL1       -0.0376
      4 C           4.6597   -0.5866    1.3089 C.3     1  UNL1        0.0131
      5 N           5.2247   -1.1698    2.5309 N.am    1  UNL1       -0.2982
      6 C           6.5944   -1.2560    2.7138 C.2     1  UNL1        0.3160
      7 O           7.4061   -0.8630    1.8794 O.2     1  UNL1       -0.2513
      8 N           6.9890   -1.8321    3.9117 N.am    1  UNL1       -0.2179
      9 N           8.3915   -1.9802    4.2022 N.am    1  UNL1       -0.2279
     10 C           8.7914   -2.5041    5.4263 C.2     1  UNL1        0.2808
     11 O           7.9994   -2.8515    6.2977 O.2     1  UNL1       -0.2669
     12 C          10.3147   -2.6592    5.6642 C.ar    1  UNL1        0.1547
     13 N          11.0799   -1.6385    5.3870 N.ar    1  UNL1       -0.1656
     14 N          12.4331   -1.7657    5.6049 N.ar    1  UNL1       -0.2420
     15 C          13.0935   -2.9083    5.9901 C.ar    1  UNL1        0.2725
     16 O          14.3195   -2.9706    6.0718 O.2     1  UNL1       -0.2658
     17 C          12.2456   -4.0573    6.3347 C.ar    1  UNL1        0.0501
     18 C          12.8300   -5.2389    6.8213 C.ar    1  UNL1       -0.0487
     19 C          12.0168   -6.2902    7.2373 C.ar    1  UNL1       -0.0610
     20 C          10.6318   -6.1588    7.1642 C.ar    1  UNL1       -0.0611
     21 C          10.0548   -4.9935    6.6461 C.ar    1  UNL1       -0.0516
     22 C          10.8584   -3.9318    6.2203 C.ar    1  UNL1        0.0196
     23 H           0.6904    0.5053   -0.9860 H       1  UNL1        0.0230
     24 H           0.6584    0.6483    0.7788 H       1  UNL1        0.0230
     25 H           0.6584   -0.9543    0.0163 H       1  UNL1        0.0230
     26 H           2.9466    1.0791   -0.1392 H       1  UNL1        0.0263
     27 H           2.9465   -0.5138   -0.8971 H       1  UNL1        0.0263
     28 H           2.7380   -1.5899    1.3681 H       1  UNL1        0.0280
     29 H           2.7380    0.0003    2.1248 H       1  UNL1        0.0280
     30 H           5.0435    0.4361    1.2161 H       1  UNL1        0.0462
     31 H           5.0433   -1.1585    0.4559 H       1  UNL1        0.0462
     32 H           4.5955   -1.5026    3.2462 H       1  UNL1        0.1503
     33 H           6.3423   -2.1451    4.6289 H       1  UNL1        0.1744
     34 H           9.0460   -1.6048    3.5161 H       1  UNL1        0.1732
     35 H          13.0095   -0.9463    5.4289 H       1  UNL1        0.1921
     36 H          13.9129   -5.3351    6.8936 H       1  UNL1        0.0625
     37 H          12.4585   -7.2033    7.6310 H       1  UNL1        0.0618
     38 H           9.9910   -6.9648    7.5157 H       1  UNL1        0.0618
     39 H           8.9715   -4.9402    6.6124 H       1  UNL1        0.0624
@<TRIPOS>BOND
     1     1     2    1
     2     2     3    1
     3     3     4    1
     4     4     5    1
     5     5     6   am
     6     6     7    2
     7     6     8   am
     8     8     9    1
     9     9    10   am
    10    10    11    2
    11    10    12    1
    12    12    13   ar
    13    13    14   ar
    14    14    15   ar
    15    15    16    2
    16    15    17   ar
    17    17    18   ar
    18    18    19   ar
    19    19    20   ar
    20    20    21   ar
    21    21    22   ar
    22    12    22   ar
    23    17    22   ar
    24     1    23    1
    25     1    24    1
    26     1    25    1
    27     2    26    1
    28     2    27    1
    29     3    28    1
    30     3    29    1
    31     4    30    1
    32     4    31    1
    33     5    32    1
    34     8    33    1
    35     9    34    1
    36    14    35    1
    37    18    36    1
    38    19    37    1
    39    20    38    1
    40    21    39    1
