@<TRIPOS>MOLECULE
*****
 38 40 0 0 0
SMALL
GASTEIGER

@<TRIPOS>ATOM
      1 C           1.1049   -0.0012    0.0827 C.3     1  UNL1        0.0125
      2 C           2.6111    0.0913    0.0512 C.2     1  UNL1        0.2142
      3 O           3.1463    1.1528   -0.2652 O.2     1  UNL1       -0.2758
      4 N           3.2932   -1.0947    0.3197 N.am    1  UNL1       -0.2834
      5 C           4.7184   -1.1361    0.3449 C.ar    1  UNL1        0.0697
      6 C           5.4378   -2.1895   -0.2561 C.ar    1  UNL1       -0.0255
      7 C           6.8639   -2.1792   -0.2963 C.ar    1  UNL1        0.0389
      8 C           7.5969   -3.2642   -1.0523 C.2     1  UNL1        0.2484
      9 O           6.9141   -4.1403   -1.5933 O.2     1  UNL1       -0.2699
     10 N           8.9942   -3.2540   -1.0664 N.am    1  UNL1       -0.2797
     11 C           9.7652   -4.3150   -1.6401 C.ar    1  UNL1        0.0598
     12 C           9.4496   -4.8062   -2.9131 C.ar    1  UNL1       -0.0384
     13 C          10.1702   -5.8645   -3.4620 C.ar    1  UNL1       -0.0593
     14 C          11.1943   -6.4567   -2.7309 C.ar    1  UNL1       -0.0524
     15 C          11.5317   -5.9632   -1.4613 C.ar    1  UNL1        0.0022
     16 C          12.5467   -6.5719   -0.7098 C.ar    1  UNL1       -0.0511
     17 C          12.8640   -6.0773    0.5462 C.ar    1  UNL1       -0.0430
     18 C          12.1571   -4.9817    1.0048 C.ar    1  UNL1        0.0283
     19 N          11.1695   -4.3631    0.3126 N.ar    1  UNL1       -0.2531
     20 C          10.8413   -4.8530   -0.9080 C.ar    1  UNL1        0.0921
     21 C           7.5447   -1.1311    0.3370 C.ar    1  UNL1       -0.0468
     22 C           6.8322   -0.1185    0.9841 C.ar    1  UNL1       -0.0239
     23 C           5.4423   -0.1215    0.9800 C.ar    1  UNL1        0.1445
     24 F           4.8146    0.8306    1.6867 F       1  UNL1       -0.2035
     25 H           0.6925    0.9905   -0.1455 H       1  UNL1        0.0323
     26 H           0.7467   -0.2907    1.0729 H       1  UNL1        0.0323
     27 H           0.7430   -0.6959   -0.6786 H       1  UNL1        0.0323
     28 H           2.7842   -1.9683    0.2697 H       1  UNL1        0.1549
     29 H           4.9037   -2.9936   -0.7612 H       1  UNL1        0.0644
     30 H           9.4948   -2.7528   -0.3408 H       1  UNL1        0.1552
     31 H           8.6514   -4.3501   -3.4922 H       1  UNL1        0.0637
     32 H           9.9215   -6.2345   -4.4533 H       1  UNL1        0.0618
     33 H          11.7244   -7.3066   -3.1574 H       1  UNL1        0.0624
     34 H          13.0834   -7.4386   -1.0910 H       1  UNL1        0.0625
     35 H          13.6400   -6.5357    1.1498 H       1  UNL1        0.0633
     36 H          12.3687   -4.5604    1.9837 H       1  UNL1        0.0830
     37 H           8.6263   -1.0646    0.3480 H       1  UNL1        0.0626
     38 H           7.3479    0.6859    1.4992 H       1  UNL1        0.0647
@<TRIPOS>BOND
     1     1     2    1
     2     2     3    2
     3     2     4   am
     4     4     5    1
     5     5     6   ar
     6     6     7   ar
     7     7     8    1
     8     8     9    2
     9     8    10   am
    10    10    11    1
    11    11    12   ar
    12    12    13   ar
    13    13    14   ar
    14    14    15   ar
    15    15    16   ar
    16    16    17   ar
    17    17    18   ar
    18    18    19   ar
    19    19    20   ar
    20    11    20   ar
    21    15    20   ar
    22     7    21   ar
    23    21    22   ar
    24    22    23   ar
    25     5    23   ar
    26    23    24    1
    27     1    25    1
    28     1    26    1
    29     1    27    1
    30     4    28    1
    31     6    29    1
    32    10    30    1
    33    12    31    1
    34    13    32    1
    35    14    33    1
    36    16    34    1
    37    17    35    1
    38    18    36    1
    39    21    37    1
    40    22    38    1
