@<TRIPOS>MOLECULE
*****
 57 59 0 0 0
SMALL
GASTEIGER

@<TRIPOS>ATOM
      1 O           2.7498    4.6520    0.0092 O.2     1  UNL1       -0.2503
      2 C           1.8029    4.0138    0.4472 C.2     1  UNL1        0.3147
      3 C           1.2105    2.7776   -0.2188 C.3     1  UNL1        0.0742
      4 C           2.1271    2.1622   -1.2791 C.3     1  UNL1        0.1332
      5 N           3.1204    1.2463   -0.6760 N.am    1  UNL1       -0.2674
      6 C           4.2531    1.7533   -0.0924 C.2     1  UNL1        0.4012
      7 O           4.4740    2.9442    0.0816 O.2     1  UNL1       -0.2265
      8 O           5.1447    0.8139    0.2616 O.3     1  UNL1       -0.4456
      9 C           6.3723    1.4431    0.7028 C.3     1  UNL1        0.1191
     10 C           7.3219    0.4080    1.2325 C.ar    1  UNL1       -0.0103
     11 C           7.0050   -0.9463    1.1007 C.ar    1  UNL1       -0.0554
     12 C           7.7196   -1.9053    1.7982 C.ar    1  UNL1       -0.0614
     13 C           8.8453   -1.5344    2.5253 C.ar    1  UNL1       -0.0617
     14 C           9.2345   -0.1957    2.5850 C.ar    1  UNL1       -0.0614
     15 C           8.4720    0.7809    1.9438 C.ar    1  UNL1       -0.0554
     16 C           2.8290    3.1742   -2.2124 C.2     1  UNL1        0.3286
     17 O           3.9835    3.0613   -2.6103 O.2     1  UNL1       -0.2487
     18 O           1.9910    4.1764   -2.5935 O.3     1  UNL1       -0.4586
     19 C           2.7164    5.2361   -3.2368 C.3     1  UNL1        0.1176
     20 C           1.7519    6.2418   -3.8056 C.ar    1  UNL1       -0.0103
     21 C           2.0794    7.6048   -3.8137 C.ar    1  UNL1       -0.0554
     22 C           1.1447    8.5474   -4.2402 C.ar    1  UNL1       -0.0614
     23 C          -0.0785    8.1297   -4.7615 C.ar    1  UNL1       -0.0617
     24 C          -0.3856    6.7723   -4.8195 C.ar    1  UNL1       -0.0614
     25 C           0.5258    5.8327   -4.3446 C.ar    1  UNL1       -0.0554
     26 O           1.1617    4.5394    1.5531 O.3     1  UNL1       -0.4258
     27 C          -0.0517    4.1254    2.0998 C.ar    1  UNL1        0.1320
     28 C          -0.9568    5.1352    2.4116 C.ar    1  UNL1       -0.0128
     29 C          -2.1259    4.7932    3.0785 C.ar    1  UNL1        0.0191
     30 C          -2.4133    3.4368    3.3007 C.ar    1  UNL1        0.2734
     31 N          -3.7111    3.0464    3.8459 N.pl3   1  UNL1        0.0796
     32 O          -4.5081    3.9483    4.1340 O.2     1  UNL1        0.0414
     33 O          -3.9421    1.8341    3.9590 O.co2   1  UNL1       -0.5760
     34 C          -1.4891    2.4360    2.9827 C.ar    1  UNL1        0.0191
     35 C          -0.2720    2.7995    2.4413 C.ar    1  UNL1       -0.0128
     36 H           0.2502    3.0717   -0.6614 H       1  UNL1        0.0401
     37 H           1.0111    1.9599    0.4746 H       1  UNL1        0.0401
     38 H           1.5057    1.5275   -1.9286 H       1  UNL1        0.0621
     39 H           2.9585    0.2471   -0.6308 H       1  UNL1        0.1529
     40 H           6.1491    2.1332    1.5306 H       1  UNL1        0.0749
     41 H           6.8338    1.9935   -0.1277 H       1  UNL1        0.0749
     42 H           6.1628   -1.2540    0.4869 H       1  UNL1        0.0621
     43 H           7.3721   -2.9325    1.7878 H       1  UNL1        0.0618
     44 H           9.4186   -2.2960    3.0435 H       1  UNL1        0.0618
     45 H          10.1105    0.0867    3.1631 H       1  UNL1        0.0618
     46 H           8.7634    1.8271    2.0292 H       1  UNL1        0.0621
     47 H           3.3395    4.8480   -4.0502 H       1  UNL1        0.0749
     48 H           3.3481    5.7231   -2.4822 H       1  UNL1        0.0749
     49 H           3.0562    7.9410   -3.4699 H       1  UNL1        0.0621
     50 H           1.3646    9.6080   -4.1523 H       1  UNL1        0.0618
     51 H          -0.7907    8.8632   -5.1280 H       1  UNL1        0.0618
     52 H          -1.3421    6.4436   -5.2148 H       1  UNL1        0.0618
     53 H           0.2730    4.7761   -4.3823 H       1  UNL1        0.0621
     54 H          -0.7375    6.1718    2.1599 H       1  UNL1        0.0656
     55 H          -2.7931    5.5818    3.4167 H       1  UNL1        0.0686
     56 H          -1.6803    1.3834    3.1721 H       1  UNL1        0.0686
     57 H           0.4883    2.0412    2.3084 H       1  UNL1        0.0656
@<TRIPOS>UNITY_ATOM_ATTR
31 1
charge 1
33 1
charge -1
@<TRIPOS>BOND
     1     1     2    2
     2     2     3    1
     3     5     6   am
     4     6     7    2
     5     6     8    1
     6     8     9    1
     7     9    10    1
     8    10    11   ar
     9    11    12   ar
    10    12    13   ar
    11    13    14   ar
    12    14    15   ar
    13    10    15   ar
    14     4    16    1
    15    16    17    2
    16    16    18    1
    17    18    19    1
    18    19    20    1
    19    20    21   ar
    20    21    22   ar
    21    22    23   ar
    22    23    24   ar
    23    24    25   ar
    24    20    25   ar
    25     2    26    1
    26    26    27    1
    27    27    28   ar
    28    28    29   ar
    29    29    30   ar
    30    30    31    1
    31    31    32    2
    32    31    33    1
    33    30    34   ar
    34    34    35   ar
    35    27    35   ar
    36     4     5    1
    37     4     3    1
    38     3    36    1
    39     3    37    1
    40     4    38    1
    41     5    39    1
    42     9    40    1
    43     9    41    1
    44    11    42    1
    45    12    43    1
    46    13    44    1
    47    14    45    1
    48    15    46    1
    49    19    47    1
    50    19    48    1
    51    21    49    1
    52    22    50    1
    53    23    51    1
    54    24    52    1
    55    25    53    1
    56    28    54    1
    57    29    55    1
    58    34    56    1
    59    35    57    1
