@<TRIPOS>MOLECULE
*****
 33 34 0 0 0
SMALL
GASTEIGER

@<TRIPOS>ATOM
      1 C          -1.7368   -1.5970    0.0042 C.3     1  UNL1       -0.0363
      2 C          -0.4809   -0.7744   -0.0010 C.ar    1  UNL1       -0.0090
      3 C           0.7742   -1.3931   -0.0091 C.ar    1  UNL1       -0.0547
      4 C           1.9508   -0.6350   -0.0040 C.ar    1  UNL1       -0.0491
      5 C           1.8911    0.7624    0.0098 C.ar    1  UNL1        0.0405
      6 C           3.1146    1.6283    0.0398 C.2     1  UNL1        0.2484
      7 O           2.9471    2.8512    0.0834 O.2     1  UNL1       -0.2699
      8 N           4.3678    1.0243   -0.0336 N.am    1  UNL1       -0.2815
      9 C           5.5819    1.7431    0.0530 C.ar    1  UNL1        0.0342
     10 C           6.6987    1.3392   -0.6853 C.ar    1  UNL1       -0.0404
     11 C           7.9187    2.0141   -0.5453 C.ar    1  UNL1       -0.0595
     12 C           8.0218    3.1020    0.3220 C.ar    1  UNL1       -0.0500
     13 C           6.9165    3.4970    1.0865 C.ar    1  UNL1        0.0566
     14 C           7.0367    4.5996    2.1025 C.3     1  UNL1        0.4175
     15 F           7.9985    4.3326    3.0306 F       1  UNL1       -0.1659
     16 F           7.3723    5.7950    1.5472 F       1  UNL1       -0.1659
     17 F           5.8944    4.8191    2.8115 F       1  UNL1       -0.1659
     18 C           5.7013    2.8177    0.9325 C.ar    1  UNL1       -0.0288
     19 C           0.6254    1.3873    0.0099 C.ar    1  UNL1       -0.0078
     20 C          -0.5418    0.6201    0.0021 C.ar    1  UNL1        0.1205
     21 O          -1.7793    1.2022   -0.0027 O.3     1  UNL1       -0.5065
     22 H          -1.5127   -2.6683    0.0171 H       1  UNL1        0.0279
     23 H          -2.3294   -1.3891   -0.8925 H       1  UNL1        0.0279
     24 H          -2.3339   -1.3715    0.8941 H       1  UNL1        0.0279
     25 H           0.8455   -2.4785   -0.0161 H       1  UNL1        0.0622
     26 H           2.8902   -1.1736   -0.0041 H       1  UNL1        0.0625
     27 H           4.4531    0.0425   -0.2522 H       1  UNL1        0.1551
     28 H           6.6253    0.5438   -1.4225 H       1  UNL1        0.0636
     29 H           8.7931    1.6934   -1.1084 H       1  UNL1        0.0618
     30 H           8.9664    3.6376    0.4113 H       1  UNL1        0.0623
     31 H           4.8528    3.1069    1.5499 H       1  UNL1        0.0642
     32 H           0.5619    2.4737    0.0173 H       1  UNL1        0.0662
     33 H          -1.6918    2.1691   -0.0126 H       1  UNL1        0.2921
@<TRIPOS>BOND
     1     1     2    1
     2     2     3   ar
     3     3     4   ar
     4     4     5   ar
     5     5     6    1
     6     6     7    2
     7     6     8   am
     8     8     9    1
     9     9    10   ar
    10    10    11   ar
    11    11    12   ar
    12    12    13   ar
    13    13    14    1
    14    14    15    1
    15    14    16    1
    16    14    17    1
    17    13    18   ar
    18     9    18   ar
    19     5    19   ar
    20    19    20   ar
    21     2    20   ar
    22    20    21    1
    23     1    22    1
    24     1    23    1
    25     1    24    1
    26     3    25    1
    27     4    26    1
    28     8    27    1
    29    10    28    1
    30    11    29    1
    31    12    30    1
    32    18    31    1
    33    19    32    1
    34    21    33    1
