@<TRIPOS>MOLECULE
*****
 39 39 0 0 0
SMALL
GASTEIGER

@<TRIPOS>ATOM
      1 C           0.9327    0.0389   -0.0765 C.3     1  UNL1       -0.0626
      2 C           2.4634    0.0201   -0.1016 C.3     1  UNL1       -0.0453
      3 C           2.9451   -1.4299    0.0068 C.3     1  UNL1       -0.0626
      4 C           2.9969    0.7185   -1.3796 C.3     1  UNL1       -0.0351
      5 C           4.5291    0.7568   -1.4192 C.3     1  UNL1        0.0109
      6 N           5.1321    1.4026   -2.5953 N.am    1  UNL1       -0.3254
      7 C           6.5098    1.4795   -2.7911 C.2     1  UNL1        0.1468
      8 S           7.6434    0.8861   -1.6921 S.2     1  UNL1       -0.0174
      9 N           6.8976    2.0993   -3.9769 N.am    1  UNL1       -0.2456
     10 N           8.2927    2.2321   -4.2923 N.am    1  UNL1       -0.2311
     11 C           8.7172    2.9100   -5.4224 C.2     1  UNL1        0.2601
     12 O           7.9413    3.4202   -6.2339 O.2     1  UNL1       -0.2687
     13 C          10.2020    3.0011   -5.6597 C.ar    1  UNL1        0.0386
     14 C          10.7520    4.1677   -6.2254 C.ar    1  UNL1       -0.0432
     15 C          12.1085    4.2255   -6.5991 C.ar    1  UNL1        0.0163
     16 C          12.9431    3.1300   -6.3482 C.ar    1  UNL1        0.2732
     17 N          14.3897    3.2261   -6.6178 N.pl3   1  UNL1        0.0796
     18 O          14.8218    4.2898   -7.0844 O.2     1  UNL1        0.0414
     19 O          15.0945    2.2463   -6.3350 O.co2   1  UNL1       -0.5760
     20 C          12.4090    1.9594   -5.7910 C.ar    1  UNL1        0.0163
     21 C          11.0435    1.8976   -5.4512 C.ar    1  UNL1       -0.0432
     22 H           0.5507   -0.4349    0.8354 H       1  UNL1        0.0232
     23 H           0.5199   -0.5043   -0.9333 H       1  UNL1        0.0232
     24 H           0.5506    1.0640   -0.1048 H       1  UNL1        0.0232
     25 H           2.8220    0.5686    0.7800 H       1  UNL1        0.0296
     26 H           2.6187   -2.0121   -0.8614 H       1  UNL1        0.0232
     27 H           2.5514   -1.9106    0.9085 H       1  UNL1        0.0232
     28 H           4.0348   -1.4922    0.0697 H       1  UNL1        0.0232
     29 H           2.6038    1.7421   -1.4199 H       1  UNL1        0.0283
     30 H           2.6139    0.1984   -2.2658 H       1  UNL1        0.0283
     31 H           4.9180   -0.2651   -1.4004 H       1  UNL1        0.0462
     32 H           4.8931    1.2775   -0.5258 H       1  UNL1        0.0462
     33 H           4.5045    1.7429   -3.3123 H       1  UNL1        0.1478
     34 H           6.2479    2.4667   -4.6696 H       1  UNL1        0.1718
     35 H           8.9320    1.8995   -3.5721 H       1  UNL1        0.1731
     36 H          10.1271    5.0466   -6.3809 H       1  UNL1        0.0627
     37 H          12.4938    5.1208   -7.0871 H       1  UNL1        0.0685
     38 H          13.0374    1.0840   -5.6305 H       1  UNL1        0.0685
     39 H          10.6464    0.9655   -5.0574 H       1  UNL1        0.0627
@<TRIPOS>UNITY_ATOM_ATTR
17 1
charge 1
19 1
charge -1
@<TRIPOS>BOND
     1     1     2    1
     2     2     3    1
     3     2     4    1
     4     4     5    1
     5     5     6    1
     6     6     7    1
     7     7     8    2
     8     7     9    1
     9     9    10    1
    10    10    11   am
    11    11    12    2
    12    11    13    1
    13    13    14   ar
    14    14    15   ar
    15    15    16   ar
    16    16    17    1
    17    17    18    2
    18    17    19    1
    19    16    20   ar
    20    20    21   ar
    21    13    21   ar
    22     1    22    1
    23     1    23    1
    24     1    24    1
    25     2    25    1
    26     3    26    1
    27     3    27    1
    28     3    28    1
    29     4    29    1
    30     4    30    1
    31     5    31    1
    32     5    32    1
    33     6    33    1
    34     9    34    1
    35    10    35    1
    36    14    36    1
    37    15    37    1
    38    20    38    1
    39    21    39    1
