REMARK  5 active torsions:
REMARK  status: ('A' for Active; 'I' for Inactive)
REMARK    1  A    between atoms: C_2  and  C_16 
REMARK    2  A    between atoms: C_2  and  N_3 
REMARK    3  A    between atoms: C_4  and  N_3 
REMARK    4  A    between atoms: C_4  and  C_6 
REMARK       I    between atoms: C_16  and  N_18 
REMARK    5  A    between atoms: N_18  and  C_19 
ROOT
ATOM      1  C   UNL d   1      -3.085   2.244  -3.014  0.00  0.00     0.055 A 
ATOM      2  C   UNL d   1      -3.763   1.210  -3.677  0.00  0.00     0.031 A 
ATOM      3  C   UNL d   1      -5.168   1.168  -3.672  0.00  0.00     0.002 A 
ATOM      4  C   UNL d   1      -5.907   2.191  -3.082  0.00  0.00     0.002 A 
ATOM      5  C   UNL d   1      -5.245   3.244  -2.470  0.00  0.00     0.025 A 
ATOM      6  C   UNL d   1      -3.847   3.257  -2.410  0.00  0.00     0.071 A 
ATOM      7  C   UNL d   1      -3.254   4.380  -1.754  0.00  0.00     0.102 C 
ATOM      8  N   UNL d   1      -2.830   5.301  -1.214  0.00  0.00    -0.191 NA
ENDROOT
BRANCH   1   9
ATOM      9  N   UNL d   1      -1.661   2.240  -2.976  0.00  0.00    -0.324 N 
ATOM     10  C   UNL d   1      -0.961   2.463  -1.788  0.00  0.00     0.255 C 
ATOM     11  O   UNL d   1      -1.511   2.615  -0.696  0.00  0.00    -0.271 OA
ATOM     12  H   UNL d   1      -1.167   1.844  -3.766  0.00  0.00     0.169 HD
BRANCH  10  13
ATOM     13  C   UNL d   1       0.584   2.475  -1.894  0.00  0.00     0.308 C 
ATOM     14  C   UNL d   1       1.104   1.103  -2.242  0.00  0.00     0.053 C 
BRANCH  13  15
ATOM     15  N   UNL d   1       1.163   2.787  -0.562  0.00  0.00     0.105 N 
ATOM     16  H   UNL d   1       0.399   3.224  -0.042  0.00  0.00     0.317 HD
BRANCH  15  17
ATOM     17  C   UNL d   1       2.335   3.680  -0.625  0.00  0.00     0.251 C 
ATOM     18  C   UNL d   1       2.915   3.995   0.766  0.00  0.00     0.048 C 
BRANCH  17  19
ATOM     19  C   UNL d   1       2.021   4.975  -1.362  0.00  0.00    -0.015 A 
ATOM     20  C   UNL d   1       2.698   5.259  -2.567  0.00  0.00     0.010 A 
ATOM     21  C   UNL d   1       2.347   6.374  -3.320  0.00  0.00     0.002 A 
ATOM     22  C   UNL d   1       1.322   7.210  -2.880  0.00  0.00     0.012 A 
ATOM     23  C   UNL d   1       0.625   6.946  -1.688  0.00  0.00    -0.025 A 
ATOM     24  C   UNL d   1      -0.442   7.760  -1.266  0.00  0.00     0.012 A 
ATOM     25  C   UNL d   1       0.980   5.833  -0.905  0.00  0.00    -0.018 A 
ATOM     26  C   UNL d   1      -1.141   7.500  -0.084  0.00  0.00     0.001 A 
ATOM     27  C   UNL d   1      -0.798   6.417   0.696  0.00  0.00     0.001 A 
ATOM     28  C   UNL d   1       0.243   5.612   0.285  0.00  0.00     0.013 A 
ENDBRANCH  17  19
ENDBRANCH  15  17
ENDBRANCH  13  15
ENDBRANCH  10  13
ENDBRANCH   1   9
TORSDOF 5
