@<TRIPOS>MOLECULE
*****
 48 51 0 0 0
SMALL
GASTEIGER

@<TRIPOS>ATOM
      1 C           1.0128    0.0754   -0.0871 C.3     1  UNL1       -0.0456
      2 C           2.5401    0.0953    0.0751 C.3     1  UNL1        0.0366
      3 C           2.9957   -1.3336    0.3933 C.3     1  UNL1        0.0430
      4 C           4.4571   -1.5510    0.1336 C.2     1  UNL1        0.2190
      5 O           4.8558   -2.2672   -0.8011 O.2     1  UNL1       -0.2754
      6 N           5.3395   -0.9206    0.9631 N.am    1  UNL1       -0.2839
      7 C           5.5508    0.4473    0.7004 C.ar    1  UNL1        0.0550
      8 C           6.8790    0.7201    0.3247 C.ar    1  UNL1       -0.0387
      9 C           7.2363    1.9741   -0.1349 C.ar    1  UNL1       -0.0599
     10 C           6.2638    2.9693   -0.1723 C.ar    1  UNL1       -0.0599
     11 C           4.9352    2.7185    0.2652 C.ar    1  UNL1       -0.0385
     12 C           4.5354    1.4406    0.7078 C.ar    1  UNL1        0.0578
     13 N           3.1104    1.1318    1.0079 N.am    1  UNL1       -0.2657
     14 C           2.5008    1.7273    2.1591 C.2     1  UNL1        0.2303
     15 O           3.1447    2.5232    2.8547 O.2     1  UNL1       -0.2743
     16 C           1.0180    1.3564    2.5727 C.3     1  UNL1        0.0773
     17 S           0.4267    2.2058    4.0987 S.3     1  UNL1       -0.0876
     18 C          -1.2684    1.7187    4.3241 C.ar    1  UNL1        0.1604
     19 N          -1.6872    0.4738    4.4069 N.ar    1  UNL1       -0.1332
     20 N          -3.0571    0.3890    4.7039 N.ar    1  UNL1       -0.1249
     21 C          -3.6555    1.5646    4.8151 C.ar    1  UNL1        0.1865
     22 N          -4.9939    1.7347    5.0751 N.pl3   1  UNL1       -0.2923
     23 C          -5.6820    2.9657    5.1295 C.ar    1  UNL1        0.0328
     24 C          -5.5776    3.8825    4.0761 C.ar    1  UNL1       -0.0405
     25 C          -5.9916    5.2050    4.2272 C.ar    1  UNL1       -0.0600
     26 C          -6.6373    5.5991    5.3934 C.ar    1  UNL1       -0.0616
     27 C          -6.8960    4.6589    6.3896 C.ar    1  UNL1       -0.0600
     28 C          -6.3901    3.3555    6.2755 C.ar    1  UNL1       -0.0405
     29 S          -2.5062    2.8668    4.6479 S.2     1  UNL1       -0.0242
     30 H           0.7121   -0.6045   -0.8931 H       1  UNL1        0.0248
     31 H           0.6108    1.0639   -0.3266 H       1  UNL1        0.0248
     32 H           0.5187   -0.3171    0.8046 H       1  UNL1        0.0248
     33 H           2.9182    0.3747   -0.9218 H       1  UNL1        0.0506
     34 H           2.4709   -2.0353   -0.2713 H       1  UNL1        0.0377
     35 H           2.7577   -1.6131    1.4220 H       1  UNL1        0.0377
     36 H           5.2399   -1.1159    1.9531 H       1  UNL1        0.1549
     37 H           7.6190   -0.0799    0.3280 H       1  UNL1        0.0637
     38 H           8.2517    2.1518   -0.4867 H       1  UNL1        0.0618
     39 H           6.5466    3.9444   -0.5681 H       1  UNL1        0.0618
     40 H           4.2224    3.5346    0.1842 H       1  UNL1        0.0637
     41 H           0.9573    0.2841    2.7686 H       1  UNL1        0.0475
     42 H           0.3347    1.6731    1.7836 H       1  UNL1        0.0475
     43 H          -5.5459    0.9218    5.3288 H       1  UNL1        0.1541
     44 H          -5.1383    3.5700    3.1324 H       1  UNL1        0.0636
     45 H          -5.7909    5.9250    3.4391 H       1  UNL1        0.0618
     46 H          -6.9388    6.6358    5.5216 H       1  UNL1        0.0618
     47 H          -7.4596    4.9558    7.2715 H       1  UNL1        0.0618
     48 H          -6.5090    2.6773    7.1171 H       1  UNL1        0.0636
@<TRIPOS>BOND
     1     1     2    1
     2     2     3    1
     3     3     4    1
     4     4     5    2
     5     4     6   am
     6     6     7    1
     7     7     8   ar
     8     8     9   ar
     9     9    10   ar
    10    10    11   ar
    11    11    12   ar
    12     7    12   ar
    13    12    13    1
    14     2    13    1
    15    13    14   am
    16    14    15    2
    17    14    16    1
    18    16    17    1
    19    17    18    1
    20    18    19   ar
    21    19    20   ar
    22    20    21   ar
    23    21    22    1
    24    22    23    1
    25    23    24   ar
    26    24    25   ar
    27    25    26   ar
    28    26    27   ar
    29    27    28   ar
    30    23    28   ar
    31    21    29   ar
    32    18    29   ar
    33     1    30    1
    34     1    31    1
    35     1    32    1
    36     2    33    1
    37     3    34    1
    38     3    35    1
    39     6    36    1
    40     8    37    1
    41     9    38    1
    42    10    39    1
    43    11    40    1
    44    16    41    1
    45    16    42    1
    46    22    43    1
    47    24    44    1
    48    25    45    1
    49    26    46    1
    50    27    47    1
    51    28    48    1
