REMARK  5 active torsions:
REMARK  status: ('A' for Active; 'I' for Inactive)
REMARK    1  A    between atoms: C_5  and  N_6 
REMARK       I    between atoms: N_6  and  C_7 
REMARK    2  A    between atoms: C_7  and  C_9 
REMARK    3  A    between atoms: C_9  and  N_10 
REMARK       I    between atoms: N_10  and  C_11 
REMARK    4  A    between atoms: C_11  and  C_13 
REMARK    5  A    between atoms: C_19  and  N_20 
ROOT
ATOM      1  N   UNL d   1       1.536  -6.313  -0.215  0.00  0.00    -0.347 N 
ATOM      2  C   UNL d   1       2.325  -7.436  -0.183  0.00  0.00     0.268 C 
ATOM      3  O   UNL d   1       3.553  -7.332  -0.115  0.00  0.00    -0.266 OA
ATOM      4  H   UNL d   1       0.528  -6.385  -0.101  0.00  0.00     0.163 HD
ENDROOT
BRANCH   1   5
ATOM      5  C   UNL d   1       2.102  -4.950  -0.118  0.00  0.00     0.226 C 
BRANCH   5   6
ATOM      6  C   UNL d   1       0.941  -3.948  -0.074  0.00  0.00     0.239 C 
ATOM      7  N   UNL d   1       1.258  -2.589  -0.042  0.00  0.00    -0.324 N 
ATOM      8  H   UNL d   1       2.232  -2.297  -0.046  0.00  0.00     0.169 HD
ATOM      9  O   UNL d   1      -0.203  -4.415  -0.063  0.00  0.00    -0.271 OA
BRANCH   7  10
ATOM     10  C   UNL d   1       0.294  -1.522  -0.010  0.00  0.00     0.056 A 
ATOM     11  C   UNL d   1      -1.079  -1.784  -0.004  0.00  0.00     0.032 A 
ATOM     12  C   UNL d   1      -2.038  -0.772   0.009  0.00  0.00     0.009 A 
ATOM     13  C   UNL d   1      -1.656   0.562   0.012  0.00  0.00    -0.060 A 
ATOM     14  C   UNL d   1      -2.701   1.636  -0.028  0.00  0.00     0.048 C 
ATOM     15  C   UNL d   1      -0.289   0.865   0.026  0.00  0.00     0.033 A 
ATOM     16  C   UNL d   1       0.678  -0.165   0.011  0.00  0.00     0.061 A 
ATOM     17 CL   UNL d   1       2.344   0.304   0.005  0.00  0.00    -0.082 Cl
ENDBRANCH   7  10
ENDBRANCH   5   6
ENDBRANCH   1   5
BRANCH   2  18
ATOM     18  C   UNL d   1       1.658  -8.731  -0.159  0.00  0.00     0.102 A 
ATOM     19  C   UNL d   1       2.055  -9.835   0.583  0.00  0.00     0.049 A 
ATOM     20  C   UNL d   1       1.171 -10.915   0.337  0.00  0.00    -0.005 A 
ATOM     21  C   UNL d   1       1.077 -12.227   0.847  0.00  0.00     0.014 A 
ATOM     22  C   UNL d   1       0.248 -10.478  -0.613  0.00  0.00     0.076 A 
ATOM     23  C   UNL d   1       0.044 -13.068   0.424  0.00  0.00     0.003 A 
ATOM     24  C   UNL d   1      -0.873 -12.630  -0.528  0.00  0.00     0.038 A 
ATOM     25  C   UNL d   1      -0.780 -11.334  -1.083  0.00  0.00     0.130 A 
ATOM     26  N   UNL d   1       0.579  -9.159  -0.914  0.00  0.00    -0.349 N 
ATOM     27  H   UNL d   1       0.104  -8.612  -1.623  0.00  0.00     0.166 HD
BRANCH  25  28
ATOM     28  N   UNL d   1      -1.760 -10.938  -2.102  0.00  0.00    -0.113 N 
ATOM     29  O   UNL d   1      -1.638  -9.805  -2.591  0.00  0.00    -0.532 OA
ATOM     30  O   UNL d   1      -2.644 -11.750  -2.412  0.00  0.00    -0.532 OA
ENDBRANCH  25  28
ENDBRANCH   2  18
TORSDOF 5
