REMARK  8 active torsions:
REMARK  status: ('A' for Active; 'I' for Inactive)
REMARK    1  A    between atoms: C_5  and  C_6 
REMARK    2  A    between atoms: C_9  and  O_10 
REMARK    3  A    between atoms: O_10  and  C_11 
REMARK    4  A    between atoms: C_11  and  C_12 
REMARK    5  A    between atoms: C_12  and  N_13 
REMARK    6  A    between atoms: N_16  and  C_17 
REMARK    7  A    between atoms: C_26  and  O_27 
REMARK    8  A    between atoms: C_28  and  C_29 
ROOT
ATOM      1  C   UNL d   1       2.564   1.508  -0.002  0.00  0.00     0.029 A 
ATOM      2  C   UNL d   1       2.784   2.409   1.048  0.00  0.00     0.019 A 
ATOM      3  C   UNL d   1       3.930   3.207   1.065  0.00  0.00     0.038 A 
ATOM      4  C   UNL d   1       4.877   3.105   0.037  0.00  0.00     0.071 A 
ATOM      5  C   UNL d   1       4.647   2.226  -1.022  0.00  0.00     0.074 A 
ATOM      6  C   UNL d   1       3.495   1.438  -1.044  0.00  0.00     0.081 A 
ENDROOT
BRANCH   4   7
ATOM      7  O   UNL d   1       6.058   3.808  -0.047  0.00  0.00    -0.349 OA
BRANCH   7   8
ATOM      8  C   UNL d   1       6.265   4.719   1.021  0.00  0.00     0.203 C 
BRANCH   8   9
ATOM      9  C   UNL d   1       7.542   5.547   0.831  0.00  0.00     0.261 C 
BRANCH   9  10
ATOM     10  N   UNL d   1       7.729   6.620   1.930  0.00  0.00    -0.066 N 
ATOM     11  C   UNL d   1       8.259   7.947   1.341  0.00  0.00     0.254 C 
ATOM     12  C   UNL d   1       8.357   9.059   2.410  0.00  0.00     0.150 C 
ATOM     13  N   UNL d   1       7.116   9.206   3.169  0.00  0.00    -0.378 N 
ATOM     14  C   UNL d   1       6.652   7.986   3.831  0.00  0.00     0.150 C 
ATOM     15  C   UNL d   1       6.472   6.867   2.794  0.00  0.00     0.254 C 
ATOM     16  H   UNL d   1       8.461   6.269   2.564  0.00  0.00     0.280 HD
BRANCH  13  17
ATOM     17  C   UNL d   1       6.199  10.219   2.930  0.00  0.00     0.030 A 
ATOM     18  C   UNL d   1       5.617  10.881   4.025  0.00  0.00     0.029 A 
ATOM     19  C   UNL d   1       4.668  11.897   3.863  0.00  0.00     0.002 A 
ATOM     20  C   UNL d   1       4.294  12.300   2.588  0.00  0.00     0.000 A 
ATOM     21  C   UNL d   1       4.861  11.672   1.483  0.00  0.00     0.002 A 
ATOM     22  C   UNL d   1       5.807  10.644   1.653  0.00  0.00     0.029 A 
ENDBRANCH  13  17
ENDBRANCH   9  10
ENDBRANCH   8   9
ENDBRANCH   7   8
ENDBRANCH   4   7
BRANCH   6  23
ATOM     23  O   UNL d   1       3.250   0.630  -2.119  0.00  0.00    -0.360 OA
ATOM     24  H   UNL d   1       4.023   0.605  -2.702  0.00  0.00     0.217 HD
ENDBRANCH   6  23
BRANCH   1  25
ATOM     25  C   UNL d   1       1.338   0.721  -0.019  0.00  0.00     0.103 A 
ATOM     26  N   UNL d   1       1.349  -0.617   0.057  0.00  0.00    -0.173 NA
ATOM     27  N   UNL d   1       0.054  -0.963  -0.001  0.00  0.00    -0.281 N 
ATOM     28  C   UNL d   1      -0.804   0.107  -0.013  0.00  0.00     0.037 A 
ATOM     29  H   UNL d   1      -0.174  -1.947  -0.010  0.00  0.00     0.189 HD
ATOM     30  C   UNL d   1      -2.274  -0.069  -0.012  0.00  0.00     0.070 C 
ATOM     31  C   UNL d   1       0.002   1.222  -0.049  0.00  0.00     0.029 A 
BRANCH  31  32
ATOM     32  C   UNL d   1      -0.450   2.600  -0.057  0.00  0.00    -0.022 A 
ATOM     33  C   UNL d   1      -0.019   3.478  -1.059  0.00  0.00     0.012 A 
ATOM     34  C   UNL d   1      -0.308   4.841  -0.970  0.00  0.00     0.001 A 
ATOM     35  C   UNL d   1      -1.073   5.322   0.092  0.00  0.00     0.000 A 
ATOM     36  C   UNL d   1      -1.528   4.448   1.079  0.00  0.00     0.001 A 
ATOM     37  C   UNL d   1      -1.208   3.091   1.011  0.00  0.00     0.012 A 
ENDBRANCH  31  32
ENDBRANCH   1  25
TORSDOF 8
