@<TRIPOS>MOLECULE
*****
 64 66 0 0 0
SMALL
GASTEIGER

@<TRIPOS>ATOM
      1 C           1.0321   -0.0746    0.1277 C.3     1  UNL1       -0.0245
      2 C           2.5602    0.0946    0.0268 C.3     1  UNL1       -0.0347
      3 N           3.2871    1.5176    0.2474 N.4     1  UNL1        0.2373
      4 C           2.9821    2.6840   -0.6806 C.3     1  UNL1       -0.0158
      5 C           3.3223    4.1412   -0.4255 C.3     1  UNL1        0.0525
      6 N           3.0669    4.4360    0.9540 N.pl3   1  UNL1       -0.3183
      7 C           2.1940    5.4379    1.3668 C.ar    1  UNL1        0.0516
      8 C           2.7044    6.3578    2.3208 C.ar    1  UNL1       -0.0381
      9 C           1.9114    7.3098    2.9887 C.ar    1  UNL1       -0.0459
     10 C           0.5565    7.4399    2.6894 C.ar    1  UNL1        0.0609
     11 C          -0.1920    8.5600    3.3914 C.2     1  UNL1        0.3390
     12 O           0.3443    9.3252    4.1513 O.2     1  UNL1       -0.2450
     13 O          -1.5067    8.6231    3.0154 O.3     1  UNL1       -0.4644
     14 C          -2.2234    9.7332    3.5953 C.3     1  UNL1        0.0820
     15 C           0.0212    6.5904    1.6960 C.ar    1  UNL1       -0.0247
     16 C           0.8252    5.6318    0.9661 C.ar    1  UNL1        0.0547
     17 N           0.1255    4.9063   -0.1564 N.am    1  UNL1       -0.2951
     18 C           0.1263    3.5141   -0.2611 C.2     1  UNL1        0.1409
     19 S          -0.3311    2.6853    1.1203 S.2     1  UNL1       -0.0182
     20 N           0.1114    2.9413   -1.6330 N.am    1  UNL1       -0.2648
     21 C           0.7860    1.7853   -2.2676 C.2     1  UNL1        0.2561
     22 O           1.9848    1.5106   -2.2814 O.2     1  UNL1       -0.2717
     23 C           0.0627    0.8569   -3.1765 C.3     1  UNL1        0.1655
     24 O           1.0573   -0.1176   -3.6296 O.3     1  UNL1       -0.4825
     25 C           0.7626   -0.9089   -4.6991 C.ar    1  UNL1        0.1241
     26 C           1.2556   -2.2276   -4.6754 C.ar    1  UNL1       -0.0197
     27 C           0.9283   -3.1141   -5.7057 C.ar    1  UNL1       -0.0583
     28 C           0.0921   -2.6912   -6.7344 C.ar    1  UNL1       -0.0613
     29 C          -0.3243   -1.3666   -6.7943 C.ar    1  UNL1       -0.0554
     30 C           0.0380   -0.4572   -5.8043 C.ar    1  UNL1       -0.0088
     31 C          -0.4090    0.9564   -5.9710 C.3     1  UNL1       -0.0362
     32 C           3.7377    3.4650    1.8607 C.3     1  UNL1        0.0525
     33 C           3.2119    1.9961    1.6954 C.3     1  UNL1       -0.0158
     34 H           0.7288   -1.1229   -0.0204 H       1  UNL1        0.0281
     35 H           0.4450    0.4303   -0.6237 H       1  UNL1        0.0281
     36 H           0.6342    0.2012    1.1000 H       1  UNL1        0.0281
     37 H           2.9144   -0.3181   -0.9251 H       1  UNL1        0.0812
     38 H           2.9680   -0.5404    0.8194 H       1  UNL1        0.0812
     39 H           4.2508    1.2976   -0.0149 H       1  UNL1        0.2034
     40 H           1.9446    2.6434   -0.5537 H       1  UNL1        0.0830
     41 H           3.3872    2.5573   -1.6831 H       1  UNL1        0.0830
     42 H           2.7733    4.8032   -1.1142 H       1  UNL1        0.0516
     43 H           4.3803    4.2552   -0.6819 H       1  UNL1        0.0516
     44 H           3.7754    6.3740    2.5321 H       1  UNL1        0.0637
     45 H           2.3702    7.9458    3.7488 H       1  UNL1        0.0626
     46 H          -3.2606    9.6965    3.2444 H       1  UNL1        0.0661
     47 H          -1.7952   10.6906    3.2752 H       1  UNL1        0.0661
     48 H          -2.2346    9.6706    4.6893 H       1  UNL1        0.0661
     49 H          -1.0548    6.6502    1.5307 H       1  UNL1        0.0645
     50 H          -0.8561    5.1785   -0.0651 H       1  UNL1        0.1539
     51 H          -0.8635    2.8890   -1.8927 H       1  UNL1        0.1566
     52 H          -0.1916    1.6076   -3.8979 H       1  UNL1        0.0795
     53 H          -0.7317    0.3267   -2.6681 H       1  UNL1        0.0795
     54 H           1.8668   -2.5927   -3.8507 H       1  UNL1        0.0654
     55 H           1.3019   -4.1363   -5.7076 H       1  UNL1        0.0619
     56 H          -0.2389   -3.3841   -7.5017 H       1  UNL1        0.0618
     57 H          -0.9450   -1.0288   -7.6189 H       1  UNL1        0.0621
     58 H          -0.8662    1.1721   -6.9315 H       1  UNL1        0.0279
     59 H           0.4462    1.6360   -5.8407 H       1  UNL1        0.0279
     60 H          -1.2161    1.1358   -5.2554 H       1  UNL1        0.0279
     61 H           3.6917    3.7772    2.9038 H       1  UNL1        0.0516
     62 H           4.7980    3.4227    1.5743 H       1  UNL1        0.0516
     63 H           2.1829    1.8994    2.0397 H       1  UNL1        0.0830
     64 H           3.8133    1.2844    2.2657 H       1  UNL1        0.0830
@<TRIPOS>UNITY_ATOM_ATTR
3 1
charge 1
@<TRIPOS>BOND
     1     1     2    1
     2     2     3    1
     3     3     4    1
     4     4     5    1
     5     5     6    1
     6     6     7    1
     7     7     8   ar
     8     8     9   ar
     9     9    10   ar
    10    10    11    1
    11    11    12    2
    12    11    13    1
    13    13    14    1
    14    10    15   ar
    15    15    16   ar
    16     7    16   ar
    17    16    17    1
    18    17    18    1
    19    18    19    2
    20    18    20    1
    21    20    21   am
    22    21    22    2
    23    21    23    1
    24    23    24    1
    25    24    25    1
    26    25    26   ar
    27    26    27   ar
    28    27    28   ar
    29    28    29   ar
    30    29    30   ar
    31    25    30   ar
    32    30    31    1
    33     6    32    1
    34    32    33    1
    35     3    33    1
    36     1    34    1
    37     1    35    1
    38     1    36    1
    39     2    37    1
    40     2    38    1
    41     3    39    1
    42     4    40    1
    43     4    41    1
    44     5    42    1
    45     5    43    1
    46     8    44    1
    47     9    45    1
    48    14    46    1
    49    14    47    1
    50    14    48    1
    51    15    49    1
    52    17    50    1
    53    20    51    1
    54    23    52    1
    55    23    53    1
    56    26    54    1
    57    27    55    1
    58    28    56    1
    59    29    57    1
    60    31    58    1
    61    31    59    1
    62    31    60    1
    63    32    61    1
    64    32    62    1
    65    33    63    1
    66    33    64    1
