REMARK  3 active torsions:
REMARK  status: ('A' for Active; 'I' for Inactive)
REMARK    1  A    between atoms: C_4  and  N_5 
REMARK    2  A    between atoms: C_8  and  C_9 
REMARK       I    between atoms: C_9  and  N_11 
REMARK    3  A    between atoms: N_11  and  C_12 
ROOT
ATOM      1  N   UNL d   1       5.344   2.403   0.077  0.00  0.00    -0.366 N 
ATOM      2  C   UNL d   1       5.826   2.794  -1.247  0.00  0.00     0.125 C 
ATOM      3  C   UNL d   1       7.283   3.239  -1.113  0.00  0.00     0.034 C 
ATOM      4  C   UNL d   1       7.437   4.392  -0.115  0.00  0.00     0.081 C 
ATOM      5  C   UNL d   1       6.744   4.022   1.231  0.00  0.00     0.034 C 
ATOM      6  C   UNL d   1       5.290   3.520   1.027  0.00  0.00     0.125 C 
ENDROOT
BRANCH   4   7
ATOM      7  C   UNL d   1       6.849   5.705  -0.608  0.00  0.00     0.222 C 
ATOM      8  O   UNL d   1       6.078   6.321   0.133  0.00  0.00    -0.273 OA
ATOM      9  N   UNL d   1       7.201   6.150  -1.863  0.00  0.00    -0.356 N 
ATOM     10  H   UNL d   1       8.005   5.740  -2.326  0.00  0.00     0.162 HD
BRANCH   9  11
ATOM     11  C   UNL d   1       6.660   7.394  -2.446  0.00  0.00     0.084 C 
ATOM     12  C   UNL d   1       5.162   7.568  -2.135  0.00  0.00     0.025 C 
ATOM     13  C   UNL d   1       4.564   8.874  -2.612  0.00  0.00     0.002 C 
ATOM     14  C   UNL d   1       5.381  10.053  -2.096  0.00  0.00     0.000 C 
ATOM     15  C   UNL d   1       6.836   9.931  -2.534  0.00  0.00     0.002 C 
ATOM     16  C   UNL d   1       7.472   8.631  -2.033  0.00  0.00     0.025 C 
ENDBRANCH   9  11
ENDBRANCH   4   7
BRANCH   1  17
ATOM     17  C   UNL d   1       4.578   1.265   0.139  0.00  0.00     0.129 A 
ATOM     18  C   UNL d   1       3.192   1.279   0.149  0.00  0.00     0.075 A 
ATOM     19  C   UNL d   1       2.492   0.064   0.123  0.00  0.00     0.010 A 
ATOM     20  C   UNL d   1       0.998  -0.006   0.100  0.00  0.00     0.068 C 
ATOM     21  N   UNL d   1       3.183  -1.089   0.110  0.00  0.00    -0.348 N 
ATOM     22  C   UNL d   1       4.523  -1.066   0.105  0.00  0.00     0.102 A 
ATOM     23  H   UNL d   1       2.702  -1.987   0.099  0.00  0.00     0.167 HD
ATOM     24  N   UNL d   1       5.237   0.086   0.098  0.00  0.00    -0.218 NA
ATOM     25  C   UNL d   1       5.252  -2.378   0.102  0.00  0.00     0.091 C 
ENDBRANCH   1  17
TORSDOF 3
