@<TRIPOS>MOLECULE
*****
 61 63 0 0 0
SMALL
GASTEIGER

@<TRIPOS>ATOM
      1 C           1.8665    1.4828   -0.0188 C.3     1  UNL1       -0.0393
      2 C           0.5846    0.6928    0.0037 C.ar    1  UNL1       -0.0441
      3 C          -0.6251    1.4005    0.0224 C.ar    1  UNL1       -0.0584
      4 C          -1.8323    0.7223    0.0743 C.ar    1  UNL1       -0.0580
      5 C          -1.8452   -0.6690    0.1198 C.ar    1  UNL1       -0.0196
      6 C          -0.6649   -1.4152    0.0396 C.ar    1  UNL1        0.1247
      7 O          -0.6310   -2.7892   -0.0386 O.3     1  UNL1       -0.4796
      8 C          -1.8517   -3.5555   -0.0795 C.3     1  UNL1        0.1741
      9 C          -2.6396   -3.2736   -1.3650 C.3     1  UNL1       -0.0190
     10 C          -1.5259   -5.0900   -0.0369 C.2     1  UNL1        0.2695
     11 O          -0.3768   -5.5386   -0.0031 O.2     1  UNL1       -0.2702
     12 N          -2.6243   -5.9529   -0.0347 N.am    1  UNL1       -0.2311
     13 N          -2.4038   -7.3608   -0.0527 N.am    1  UNL1       -0.2303
     14 C          -3.4797   -8.2374   -0.1481 C.2     1  UNL1        0.2601
     15 O          -4.6506   -7.8518   -0.2265 O.2     1  UNL1       -0.2687
     16 C          -3.1779   -9.7070   -0.1102 C.ar    1  UNL1        0.0383
     17 C          -3.8962  -10.6565   -0.8606 C.ar    1  UNL1       -0.0478
     18 C          -3.6656  -12.0559   -0.7009 C.ar    1  UNL1       -0.0398
     19 C          -2.6773  -12.5263    0.1793 C.ar    1  UNL1        0.0334
     20 N          -2.3506  -13.9300    0.2735 N.am    1  UNL1       -0.2848
     21 C          -1.3054  -14.4417    1.0605 C.2     1  UNL1        0.2275
     22 O          -0.5965  -13.7227    1.7679 O.2     1  UNL1       -0.2746
     23 C          -1.0232  -15.9666    1.0109 C.3     1  UNL1        0.0779
     24 S           0.3925  -16.2984    2.1540 S.3     1  UNL1       -0.0784
     25 C           0.7112  -17.9881    2.0950 C.ar    1  UNL1        0.1691
     26 N          -0.1765  -18.9491    1.9869 N.ar    1  UNL1       -0.2303
     27 C           0.5410  -20.1158    2.1172 C.ar    1  UNL1        0.0466
     28 C           1.8808  -19.8575    2.2892 C.ar    1  UNL1        0.0247
     29 N           1.9782  -18.4910    2.2846 N.ar    1  UNL1       -0.3286
     30 C           3.2142  -17.7552    2.4212 C.3     1  UNL1        0.0137
     31 C          -2.0140  -11.5527    0.9379 C.ar    1  UNL1       -0.0398
     32 C          -2.2422  -10.1770    0.7988 C.ar    1  UNL1       -0.0478
     33 C           0.5719   -0.7291    0.0103 C.ar    1  UNL1       -0.0059
     34 C           1.8809   -1.4819    0.0177 C.3     1  UNL1       -0.0360
     35 H           1.6695    2.5614   -0.0286 H       1  UNL1        0.0278
     36 H           2.4454    1.2508   -0.9175 H       1  UNL1        0.0278
     37 H           2.4613    1.2694    0.8742 H       1  UNL1        0.0278
     38 H          -0.6343    2.4882    0.0144 H       1  UNL1        0.0620
     39 H          -2.7702    1.2706    0.0827 H       1  UNL1        0.0619
     40 H          -2.8181   -1.1360    0.2009 H       1  UNL1        0.0654
     41 H          -2.4335   -3.3323    0.8244 H       1  UNL1        0.0829
     42 H          -2.0447   -3.5458   -2.2411 H       1  UNL1        0.0270
     43 H          -2.8937   -2.2223   -1.5131 H       1  UNL1        0.0270
     44 H          -3.5854   -3.8197   -1.3811 H       1  UNL1        0.0270
     45 H          -3.5977   -5.6541   -0.0526 H       1  UNL1        0.1729
     46 H          -1.4271   -7.6573   -0.0593 H       1  UNL1        0.1731
     47 H          -4.6404  -10.3154   -1.5804 H       1  UNL1        0.0626
     48 H          -4.2873  -12.7465   -1.2693 H       1  UNL1        0.0636
     49 H          -2.8627  -14.5635   -0.3306 H       1  UNL1        0.1548
     50 H          -0.7346  -16.2484   -0.0058 H       1  UNL1        0.0475
     51 H          -1.9088  -16.5214    1.3298 H       1  UNL1        0.0475
     52 H           0.0615  -21.0854    2.0784 H       1  UNL1        0.0845
     53 H           2.7375  -20.5070    2.4123 H       1  UNL1        0.0825
     54 H           4.0474  -18.4567    2.5288 H       1  UNL1        0.0456
     55 H           3.1611  -17.1213    3.3098 H       1  UNL1        0.0456
     56 H           3.3638  -17.1573    1.5188 H       1  UNL1        0.0456
     57 H          -1.2920  -11.8099    1.7010 H       1  UNL1        0.0636
     58 H          -1.6939   -9.5043    1.4512 H       1  UNL1        0.0626
     59 H           1.7472   -2.5669    0.0232 H       1  UNL1        0.0279
     60 H           2.4517   -1.2255    0.9174 H       1  UNL1        0.0279
     61 H           2.4748   -1.2312   -0.8675 H       1  UNL1        0.0279
@<TRIPOS>BOND
     1     1     2    1
     2     2     3   ar
     3     3     4   ar
     4     4     5   ar
     5     5     6   ar
     6     6     7    1
     7     7     8    1
     8     8     9    1
     9     8    10    1
    10    10    11    2
    11    10    12   am
    12    12    13    1
    13    13    14   am
    14    14    15    2
    15    14    16    1
    16    16    17   ar
    17    17    18   ar
    18    18    19   ar
    19    19    20    1
    20    20    21   am
    21    21    22    2
    22    21    23    1
    23    23    24    1
    24    24    25    1
    25    25    26   ar
    26    26    27   ar
    27    27    28   ar
    28    28    29   ar
    29    25    29   ar
    30    29    30    1
    31    19    31   ar
    32    31    32   ar
    33    16    32   ar
    34     6    33   ar
    35     2    33   ar
    36    33    34    1
    37     1    35    1
    38     1    36    1
    39     1    37    1
    40     3    38    1
    41     4    39    1
    42     5    40    1
    43     8    41    1
    44     9    42    1
    45     9    43    1
    46     9    44    1
    47    12    45    1
    48    13    46    1
    49    17    47    1
    50    18    48    1
    51    20    49    1
    52    23    50    1
    53    23    51    1
    54    27    52    1
    55    28    53    1
    56    30    54    1
    57    30    55    1
    58    30    56    1
    59    31    57    1
    60    32    58    1
    61    34    59    1
    62    34    60    1
    63    34    61    1
