REMARK  10 active torsions:
REMARK  status: ('A' for Active; 'I' for Inactive)
REMARK    1  A    between atoms: O_2  and  C_3 
REMARK    2  A    between atoms: C_6  and  C_7 
REMARK    3  A    between atoms: C_7  and  C_8 
REMARK    4  A    between atoms: C_7  and  N_28 
REMARK    5  A    between atoms: C_8  and  N_9 
REMARK       I    between atoms: N_9  and  C_10 
REMARK    6  A    between atoms: C_10  and  C_12 
REMARK    7  A    between atoms: C_15  and  S_16 
REMARK    8  A    between atoms: S_16  and  C_17 
REMARK    9  A    between atoms: C_17  and  C_18 
REMARK   10  A    between atoms: C_32  and  O_33 
ROOT
ATOM      1  N   UNL d   1       6.511  -1.675   4.480  0.00  0.00    -0.354 N 
ATOM      2  C   UNL d   1       6.707  -1.002   5.674  0.00  0.00     0.256 C 
ATOM      3  O   UNL d   1       6.436  -1.485   6.752  0.00  0.00    -0.268 OA
ATOM      4  H   UNL d   1       6.891  -1.258   3.646  0.00  0.00     0.162 HD
ENDROOT
BRANCH   1   5
ATOM      5  C   UNL d   1       5.819  -2.965   4.404  0.00  0.00     0.161 C 
BRANCH   5   6
ATOM      6  C   UNL d   1       5.598  -3.530   2.947  0.00  0.00     0.237 C 
BRANCH   6   7
ATOM      7  C   UNL d   1       4.675  -2.597   2.166  0.00  0.00    -0.023 C 
ATOM      8  C   UNL d   1       5.065  -1.309   1.825  0.00  0.00     0.012 C 
ATOM      9  C   UNL d   1       4.156  -0.400   1.269  0.00  0.00     0.040 C 
ATOM     10  C   UNL d   1       2.904  -0.797   0.794  0.00  0.00     0.101 C 
ATOM     11  C   UNL d   1       2.544  -2.129   1.013  0.00  0.00     0.102 C 
ATOM     12  C   UNL d   1       3.388  -2.959   1.767  0.00  0.00     0.049 C 
BRANCH  10  13
ATOM     13  O   UNL d   1       2.369   0.141  -0.046  0.00  0.00    -0.353 OA
ATOM     14  C   UNL d   1       1.030   0.600   0.083  0.00  0.00     0.210 C 
ENDBRANCH  10  13
BRANCH  11  15
ATOM     15  O   UNL d   1       1.505  -2.902   0.564  0.00  0.00    -0.353 OA
ATOM     16  C   UNL d   1       0.481  -2.184  -0.054  0.00  0.00     0.210 C 
ENDBRANCH  11  15
ENDBRANCH   6   7
BRANCH   6  17
ATOM     17  N   UNL d   1       5.071  -4.984   2.981  0.00  0.00    -0.069 N 
ATOM     18  C   UNL d   1       4.962  -5.603   1.591  0.00  0.00     0.270 C 
ATOM     19  C   UNL d   1       5.878  -5.924   3.832  0.00  0.00     0.270 C 
ATOM     20  H   UNL d   1       4.132  -4.938   3.401  0.00  0.00     0.279 HD
ENDBRANCH   6  17
ENDBRANCH   5   6
ENDBRANCH   1   5
BRANCH   2  21
ATOM     21  C   UNL d   1       7.335   0.337   5.577  0.00  0.00     0.090 A 
ATOM     22  C   UNL d   1       8.358   0.706   6.419  0.00  0.00     0.139 A 
ATOM     23  N   UNL d   1       8.973   1.922   6.387  0.00  0.00    -0.234 NA
ATOM     24  C   UNL d   1       8.521   2.800   5.480  0.00  0.00     0.189 A 
ATOM     25  N   UNL d   1       7.525   2.542   4.633  0.00  0.00    -0.210 NA
ATOM     26  C   UNL d   1       6.945   1.339   4.726  0.00  0.00     0.146 A 
ATOM     27 CL   UNL d   1       5.584   1.267   3.703  0.00  0.00    -0.061 Cl
BRANCH  24  28
ATOM     28  S   UNL d   1       9.217   4.397   5.259  0.00  0.00    -0.086 SA
BRANCH  28  29
ATOM     29  C   UNL d   1      10.439   4.538   6.601  0.00  0.00     0.121 C 
BRANCH  29  30
ATOM     30  C   UNL d   1      11.055   5.927   6.632  0.00  0.00    -0.049 A 
ATOM     31  C   UNL d   1      12.418   6.103   6.907  0.00  0.00     0.008 A 
ATOM     32  C   UNL d   1      12.955   7.388   7.043  0.00  0.00     0.007 A 
ATOM     33  C   UNL d   1      12.165   8.520   6.814  0.00  0.00    -0.062 A 
ATOM     34  C   UNL d   1      12.766   9.893   6.797  0.00  0.00     0.048 C 
ATOM     35  C   UNL d   1      10.808   8.355   6.542  0.00  0.00     0.007 A 
ATOM     36  C   UNL d   1      10.259   7.076   6.475  0.00  0.00     0.008 A 
ENDBRANCH  29  30
ENDBRANCH  28  29
ENDBRANCH  24  28
ENDBRANCH   2  21
TORSDOF 10
