@<TRIPOS>MOLECULE
*****
 34 35 0 0 0
SMALL
GASTEIGER

@<TRIPOS>ATOM
      1 O           0.9382   -0.1052    0.1041 O.2     1  UNL1       -0.2701
      2 C           2.1667   -0.0735    0.0989 C.2     1  UNL1        0.2479
      3 N           2.9023    0.6345    1.0312 N.am    1  UNL1       -0.3071
      4 C           2.2187    1.2918    2.1220 C.3     1  UNL1        0.0375
      5 C           3.1383    2.1557    2.9501 C.ar    1  UNL1       -0.0250
      6 C           4.0191    1.4997    3.8376 C.ar    1  UNL1       -0.0567
      7 C           4.7283    2.2040    4.8103 C.ar    1  UNL1       -0.0614
      8 C           4.6388    3.5872    4.8608 C.ar    1  UNL1       -0.0614
      9 C           3.8389    4.2586    3.9360 C.ar    1  UNL1       -0.0561
     10 C           3.0988    3.5649    2.9485 C.ar    1  UNL1       -0.0175
     11 C           2.2993    4.4310    1.9929 C.3     1  UNL1        0.0695
     12 O           1.7396    3.8052    0.8531 O.3     1  UNL1       -0.3904
     13 C           2.9406   -0.8435   -0.9068 C.ar    1  UNL1        0.0794
     14 C           4.0155   -1.6350   -0.4808 C.ar    1  UNL1       -0.0277
     15 C           4.7741   -2.3292   -1.4216 C.ar    1  UNL1        0.0419
     16 CL          6.2122   -3.1348   -0.9274 Cl      1  UNL1       -0.0835
     17 C           4.4137   -2.3284   -2.7684 C.ar    1  UNL1       -0.0399
     18 C           3.3236   -1.5668   -3.1947 C.ar    1  UNL1       -0.0180
     19 C           2.5982   -0.8151   -2.2667 C.ar    1  UNL1        0.1290
     20 O           1.5752   -0.0222   -2.7009 O.3     1  UNL1       -0.5060
     21 H           3.9134    0.6560    0.9947 H       1  UNL1        0.1493
     22 H           1.7597    0.5297    2.7630 H       1  UNL1        0.0512
     23 H           1.3561    1.8345    1.7344 H       1  UNL1        0.0512
     24 H           4.1265    0.4170    3.7956 H       1  UNL1        0.0621
     25 H           5.3220    1.6697    5.5477 H       1  UNL1        0.0618
     26 H           5.1943    4.1433    5.6125 H       1  UNL1        0.0618
     27 H           3.7749    5.3450    4.0027 H       1  UNL1        0.0621
     28 H           2.9720    5.1958    1.5925 H       1  UNL1        0.0607
     29 H           1.4905    4.9263    2.5392 H       1  UNL1        0.0607
     30 H           2.3772    3.1551    0.5129 H       1  UNL1        0.2098
     31 H           4.2507   -1.7225    0.5760 H       1  UNL1        0.0641
     32 H           4.9836   -2.9097   -3.4898 H       1  UNL1        0.0633
     33 H           3.0741   -1.5497   -4.2522 H       1  UNL1        0.0655
     34 H           1.3741   -0.2033   -3.6327 H       1  UNL1        0.2922
@<TRIPOS>BOND
     1     1     2    2
     2     2     3   am
     3     3     4    1
     4     4     5    1
     5     5     6   ar
     6     6     7   ar
     7     7     8   ar
     8     8     9   ar
     9     9    10   ar
    10     5    10   ar
    11    10    11    1
    12    11    12    1
    13     2    13    1
    14    13    14   ar
    15    14    15   ar
    16    15    16    1
    17    15    17   ar
    18    17    18   ar
    19    18    19   ar
    20    13    19   ar
    21    19    20    1
    22     3    21    1
    23     4    22    1
    24     4    23    1
    25     6    24    1
    26     7    25    1
    27     8    26    1
    28     9    27    1
    29    11    28    1
    30    11    29    1
    31    12    30    1
    32    14    31    1
    33    17    32    1
    34    18    33    1
    35    20    34    1
