@<TRIPOS>MOLECULE
*****
 61 63 0 0 0
SMALL
GASTEIGER

@<TRIPOS>ATOM
      1 C           1.0986    0.1545   -0.7044 C.3     1  UNL1        0.0790
      2 O           2.4266    0.0055   -0.2188 O.3     1  UNL1       -0.4915
      3 C           2.9041    0.7413    0.8319 C.ar    1  UNL1        0.1615
      4 C           4.1660    1.2809    0.5556 C.ar    1  UNL1       -0.0159
      5 C           5.0114    1.7578    1.5676 C.ar    1  UNL1       -0.0495
      6 C           4.5430    1.9523    2.8598 C.ar    1  UNL1        0.0054
      7 C           5.3836    2.6442    3.9296 C.3     1  UNL1        0.0204
      8 C           5.5968    4.1583    3.5418 C.3     1  UNL1        0.0591
      9 N           6.3671    4.3906    2.3168 N.am    1  UNL1       -0.3055
     10 C           6.5788    5.6406    1.7840 C.2     1  UNL1        0.2487
     11 O           6.2413    6.6733    2.3692 O.2     1  UNL1       -0.2700
     12 C           7.2921    5.7102    0.4939 C.ar    1  UNL1        0.0916
     13 C           8.3150    6.6060    0.2831 C.ar    1  UNL1        0.0455
     14 N           8.9952    6.7287   -0.8925 N.ar    1  UNL1       -0.2295
     15 C           8.6149    5.9231   -1.8963 C.ar    1  UNL1        0.1899
     16 S           9.3041    6.0052   -3.5147 S.3     1  UNL1       -0.0813
     17 C          10.6004    7.2669   -3.3660 C.3     1  UNL1        0.0262
     18 C          11.3509    7.4311   -4.6777 C.ar    1  UNL1       -0.0370
     19 C          11.8824    6.3173   -5.3583 C.ar    1  UNL1       -0.0551
     20 C          12.6593    6.4815   -6.5048 C.ar    1  UNL1       -0.0262
     21 C          12.8560    7.7547   -7.0175 C.ar    1  UNL1        0.1234
     22 F          13.5483    7.9068   -8.1536 F       1  UNL1       -0.2055
     23 C          12.3331    8.8707   -6.3754 C.ar    1  UNL1       -0.0262
     24 C          11.5905    8.7119   -5.2016 C.ar    1  UNL1       -0.0551
     25 N           7.6418    5.0193   -1.7868 N.ar    1  UNL1       -0.2095
     26 C           6.9909    4.9643   -0.6177 C.ar    1  UNL1        0.1456
     27 CL          5.6518    3.9170   -0.7455 Cl      1  UNL1       -0.0611
     28 N           4.7630    2.5064    5.3409 N.4     1  UNL1        0.2375
     29 C           4.6523    1.0548    5.7977 C.3     1  UNL1       -0.0427
     30 C           5.4817    3.2656    6.4193 C.3     1  UNL1       -0.0427
     31 C           3.2488    1.4925    3.1033 C.ar    1  UNL1       -0.0078
     32 C           2.4713    0.8101    2.1584 C.ar    1  UNL1        0.1619
     33 O           1.4128    0.2592    2.8336 O.3     1  UNL1       -0.4914
     34 C           0.4391   -0.2978    2.0074 C.3     1  UNL1        0.0790
     35 H           1.0338   -0.2777   -1.7040 H       1  UNL1        0.0660
     36 H           0.7475    1.1892   -0.6898 H       1  UNL1        0.0660
     37 H           0.3949   -0.4967   -0.1949 H       1  UNL1        0.0660
     38 H           4.5233    1.3040   -0.4743 H       1  UNL1        0.0655
     39 H           6.0348    1.9802    1.2883 H       1  UNL1        0.0623
     40 H           6.3630    2.1537    4.0076 H       1  UNL1        0.0920
     41 H           6.1572    4.6872    4.3168 H       1  UNL1        0.0522
     42 H           4.6255    4.6608    3.4430 H       1  UNL1        0.0522
     43 H           6.7919    3.6101    1.8368 H       1  UNL1        0.1492
     44 H           8.6348    7.2843    1.0709 H       1  UNL1        0.0839
     45 H          11.3262    6.9949   -2.5912 H       1  UNL1        0.0429
     46 H          10.1365    8.2168   -3.0779 H       1  UNL1        0.0429
     47 H          11.6846    5.3051   -5.0106 H       1  UNL1        0.0621
     48 H          13.1108    5.6253   -6.9954 H       1  UNL1        0.0646
     49 H          12.5165    9.8579   -6.7879 H       1  UNL1        0.0646
     50 H          11.1975    9.5964   -4.7051 H       1  UNL1        0.0621
     51 H           3.8177    2.9107    5.2772 H       1  UNL1        0.2035
     52 H           5.6617    0.6648    5.9289 H       1  UNL1        0.0778
     53 H           4.1388    0.4298    5.0688 H       1  UNL1        0.0778
     54 H           4.0720    1.0446    6.7235 H       1  UNL1        0.0778
     55 H           6.4890    2.8522    6.5018 H       1  UNL1        0.0778
     56 H           4.9199    3.1353    7.3479 H       1  UNL1        0.0778
     57 H           5.4972    4.3266    6.1749 H       1  UNL1        0.0778
     58 H           2.7875    1.5566    4.0841 H       1  UNL1        0.0660
     59 H          -0.4176   -0.7043    2.5408 H       1  UNL1        0.0660
     60 H           0.9049   -1.1416    1.4899 H       1  UNL1        0.0660
     61 H           0.0423    0.5268    1.4078 H       1  UNL1        0.0660
@<TRIPOS>UNITY_ATOM_ATTR
28 1
charge 1
@<TRIPOS>BOND
     1     1     2    1
     2     2     3    1
     3     3     4   ar
     4     4     5   ar
     5     5     6   ar
     6     6     7    1
     7     7     8    1
     8     8     9    1
     9     9    10   am
    10    10    11    2
    11    10    12    1
    12    12    13   ar
    13    13    14   ar
    14    14    15   ar
    15    15    16    1
    16    16    17    1
    17    17    18    1
    18    18    19   ar
    19    19    20   ar
    20    20    21   ar
    21    21    22    1
    22    21    23   ar
    23    23    24   ar
    24    18    24   ar
    25    15    25   ar
    26    25    26   ar
    27    12    26   ar
    28    26    27    1
    29     7    28    1
    30    28    29    1
    31    28    30    1
    32     6    31   ar
    33    31    32   ar
    34     3    32   ar
    35    32    33    1
    36    33    34    1
    37     1    35    1
    38     1    36    1
    39     1    37    1
    40     4    38    1
    41     5    39    1
    42     7    40    1
    43     8    41    1
    44     8    42    1
    45     9    43    1
    46    13    44    1
    47    17    45    1
    48    17    46    1
    49    19    47    1
    50    20    48    1
    51    23    49    1
    52    24    50    1
    53    28    51    1
    54    29    52    1
    55    29    53    1
    56    29    54    1
    57    30    55    1
    58    30    56    1
    59    30    57    1
    60    31    58    1
    61    34    59    1
    62    34    60    1
    63    34    61    1
