REMARK  12 active torsions:
REMARK  status: ('A' for Active; 'I' for Inactive)
REMARK    1  A    between atoms: C_2  and  C_3 
REMARK    2  A    between atoms: C_4  and  C_5 
REMARK    3  A    between atoms: C_5  and  O_7 
REMARK    4  A    between atoms: C_12  and  C_13 
REMARK    5  A    between atoms: C_13  and  N_14 
REMARK    6  A    between atoms: N_14  and  C_15 
REMARK    7  A    between atoms: N_14  and  C_27 
REMARK    8  A    between atoms: C_16  and  C_15 
REMARK    9  A    between atoms: C_16  and  C_18 
REMARK   10  A    between atoms: C_16  and  O_17 
REMARK   11  A    between atoms: C_18  and  O_19 
REMARK   12  A    between atoms: O_19  and  C_20 
ROOT
ATOM      1  C   UNL d   1       0.632   4.658  -0.626  0.00  0.00     0.307 C 
ENDROOT
BRANCH   1   2
ATOM      2  C   UNL d   1      -0.422   4.962   0.473  0.00  0.00     0.114 C 
ATOM      3  N   UNL d   1      -1.458   4.183   0.624  0.00  0.00    -0.231 NA
ATOM      4  C   UNL d   1      -2.207   4.465   1.739  0.00  0.00     0.115 A 
ATOM      5  S   UNL d   1      -3.777   3.904   2.042  0.00  0.00    -0.063 SA
ATOM      6  C   UNL d   1      -1.793   5.247   2.787  0.00  0.00     0.070 A 
ATOM      7  C   UNL d   1      -3.845   4.654   3.613  0.00  0.00     0.089 A 
ATOM      8  C   UNL d   1      -2.668   5.334   3.905  0.00  0.00    -0.017 A 
ATOM      9  C   UNL d   1      -0.552   5.915   2.620  0.00  0.00     0.239 C 
ATOM     10  N   UNL d   1      -0.199   6.047   1.298  0.00  0.00    -0.211 NA
ATOM     11  O   UNL d   1       0.183   6.223   3.551  0.00  0.00    -0.274 OA
ATOM     12  H   UNL d   1       0.702   6.513   1.276  0.00  0.00     0.138 HD
BRANCH   7  13
ATOM     13  C   UNL d   1      -5.082   4.513   4.378  0.00  0.00     0.300 C 
ATOM     14  O   UNL d   1      -6.104   3.972   4.004  0.00  0.00    -0.259 OA
BRANCH  13  15
ATOM     15  O   UNL d   1      -4.935   5.098   5.602  0.00  0.00    -0.322 OA
ATOM     16  C   UNL d   1      -6.071   5.063   6.464  0.00  0.00     0.213 C 
ENDBRANCH  13  15
ENDBRANCH   7  13
BRANCH   8  17
ATOM     17  C   UNL d   1      -2.308   6.153   5.127  0.00  0.00     0.037 C 
ATOM     18  C   UNL d   1      -2.057   7.623   4.796  0.00  0.00     0.010 C 
ENDBRANCH   8  17
ENDBRANCH   1   2
BRANCH   1  19
ATOM     19  N   UNL d   1       2.095   5.233  -0.476  0.00  0.00    -0.059 N 
ATOM     20  H   UNL d   1       2.004   6.245  -0.292  0.00  0.00     0.280 HD
BRANCH  19  21
ATOM     21  C   UNL d   1       2.896   4.595   0.694  0.00  0.00     0.269 C 
BRANCH  21  22
ATOM     22  C   UNL d   1       2.233   4.950   1.966  0.00  0.00     0.168 C 
BRANCH  22  23
ATOM     23  C   UNL d   1       2.821   4.432   3.225  0.00  0.00     0.209 C 
BRANCH  23  24
ATOM     24  O   UNL d   1       2.918   3.026   3.075  0.00  0.00    -0.348 OA
BRANCH  24  25
ATOM     25  C   UNL d   1       3.477   2.458   4.181  0.00  0.00     0.074 A 
ATOM     26  C   UNL d   1       4.573   1.633   3.914  0.00  0.00     0.037 A 
ATOM     27  C   UNL d   1       5.269   1.055   4.967  0.00  0.00     0.003 A 
ATOM     28  C   UNL d   1       4.857   1.293   6.275  0.00  0.00     0.001 A 
ATOM     29  C   UNL d   1       3.733   2.077   6.533  0.00  0.00     0.009 A 
ATOM     30  C   UNL d   1       3.007   2.654   5.491  0.00  0.00    -0.029 A 
ATOM     31  C   UNL d   1       1.766   3.427   5.850  0.00  0.00     0.051 C 
ENDBRANCH  24  25
ENDBRANCH  23  24
ENDBRANCH  22  23
BRANCH  22  32
ATOM     32  O   UNL d   1       2.134   6.389   1.911  0.00  0.00    -0.392 OA
ATOM     33  H   UNL d   1       2.904   6.795   2.358  0.00  0.00     0.210 HD
ENDBRANCH  22  32
ENDBRANCH  21  22
ENDBRANCH  19  21
BRANCH  19  34
ATOM     34  C   UNL d   1       2.948   5.060  -1.729  0.00  0.00     0.180 C 
ATOM     35  C   UNL d   1       2.258   5.654  -2.945  0.00  0.00     0.039 C 
ATOM     36  C   UNL d   1       4.302   5.761  -1.539  0.00  0.00     0.039 C 
ENDBRANCH  19  34
ENDBRANCH   1  19
TORSDOF 12
