@<TRIPOS>MOLECULE
*****
 42 43 0 0 0
SMALL
GASTEIGER

@<TRIPOS>ATOM
      1 C          19.0630    1.2066    8.2921 C.3     1  UNL1       -0.0612
      2 C          18.1029    0.8396    7.1493 C.3     1  UNL1       -0.0311
      3 C          18.5851   -0.4597    6.5036 C.3     1  UNL1       -0.0612
      4 C          16.6511    0.7063    7.6593 C.3     1  UNL1        0.0154
      5 N          15.6632    0.4065    6.6172 N.am    1  UNL1       -0.2980
      6 C          14.3321    0.2173    6.9159 C.2     1  UNL1        0.3160
      7 O          13.8745    0.3168    8.0564 O.2     1  UNL1       -0.2513
      8 N          13.5256   -0.0789    5.8306 N.am    1  UNL1       -0.2181
      9 N          12.1369   -0.3101    6.0588 N.am    1  UNL1       -0.2301
     10 C          11.2851   -0.5967    5.0052 C.2     1  UNL1        0.2729
     11 O          11.7012   -0.6948    3.8464 O.2     1  UNL1       -0.2701
     12 C           9.7856   -0.8018    5.3431 C.3     1  UNL1        0.2102
     13 C           9.1891    0.1455    6.3684 C.3     1  UNL1        0.0418
     14 C           8.8814   -0.8315    7.4471 C.2     1  UNL1        0.0913
     15 C           8.4241   -0.4077    8.7829 C.ar    1  UNL1        0.0022
     16 C           7.2845    0.3887    8.9419 C.ar    1  UNL1       -0.0526
     17 C           6.8410    0.7155   10.2298 C.ar    1  UNL1       -0.0584
     18 C           7.5447    0.2640   11.3475 C.ar    1  UNL1       -0.0264
     19 C           8.6795   -0.5208   11.1721 C.ar    1  UNL1        0.1240
     20 F           9.3515   -0.9520   12.2474 F       1  UNL1       -0.2055
     21 C           9.1223   -0.8704    9.9014 C.ar    1  UNL1       -0.0175
     22 N           9.0731   -2.0728    7.1472 N.2     1  UNL1       -0.0881
     23 O           9.5376   -2.1268    5.8144 O.2     1  UNL1       -0.3803
     24 H          20.0896    1.3180    7.9207 H       1  UNL1        0.0233
     25 H          19.0778    0.4301    9.0655 H       1  UNL1        0.0233
     26 H          18.7803    2.1519    8.7661 H       1  UNL1        0.0233
     27 H          18.1480    1.6401    6.3997 H       1  UNL1        0.0311
     28 H          18.5755   -1.2812    7.2280 H       1  UNL1        0.0233
     29 H          19.6083   -0.3534    6.1269 H       1  UNL1        0.0233
     30 H          17.9512   -0.7422    5.6591 H       1  UNL1        0.0233
     31 H          16.3434    1.6418    8.1427 H       1  UNL1        0.0465
     32 H          16.5920   -0.0820    8.4198 H       1  UNL1        0.0465
     33 H          15.9758    0.2925    5.6645 H       1  UNL1        0.1503
     34 H          13.8639   -0.2213    4.8831 H       1  UNL1        0.1744
     35 H          11.8428   -0.2739    7.0328 H       1  UNL1        0.1729
     36 H           9.2354   -0.6841    4.3990 H       1  UNL1        0.0863
     37 H           8.2645    0.6044    6.0045 H       1  UNL1        0.0371
     38 H           9.8742    0.9257    6.7033 H       1  UNL1        0.0371
     39 H           6.7103    0.7242    8.0825 H       1  UNL1        0.0624
     40 H           5.9392    1.3087   10.3665 H       1  UNL1        0.0619
     41 H           7.2131    0.5083   12.3529 H       1  UNL1        0.0646
     42 H          10.0012   -1.4994    9.7980 H       1  UNL1        0.0653
@<TRIPOS>BOND
     1     1     2    1
     2     2     3    1
     3     2     4    1
     4     4     5    1
     5     5     6   am
     6     6     7    2
     7     6     8   am
     8     8     9    1
     9     9    10   am
    10    10    11    2
    11    12    13    1
    12    13    14    1
    13    14    15    1
    14    15    16   ar
    15    16    17   ar
    16    17    18   ar
    17    18    19   ar
    18    19    20    1
    19    19    21   ar
    20    15    21   ar
    21    14    22    2
    22    22    23    1
    23    12    23    1
    24    12    10    1
    25     1    24    1
    26     1    25    1
    27     1    26    1
    28     2    27    1
    29     3    28    1
    30     3    29    1
    31     3    30    1
    32     4    31    1
    33     4    32    1
    34     5    33    1
    35     8    34    1
    36     9    35    1
    37    12    36    1
    38    13    37    1
    39    13    38    1
    40    16    39    1
    41    17    40    1
    42    18    41    1
    43    21    42    1
