@<TRIPOS>MOLECULE
*****
 49 51 0 0 0
SMALL
GASTEIGER

@<TRIPOS>ATOM
      1 C           1.5558    1.7519    0.0102 C.3     1  UNL1       -0.0370
      2 C           0.3675    0.8388    0.0018 C.ar    1  UNL1       -0.0152
      3 C          -0.9361    1.3459   -0.0057 C.ar    1  UNL1       -0.0554
      4 C          -2.0305    0.4745   -0.0021 C.ar    1  UNL1       -0.0505
      5 C          -1.8367   -0.9139    0.0349 C.ar    1  UNL1        0.0252
      6 C          -2.9843   -1.8018    0.0482 C.ar    1  UNL1        0.2021
      7 N          -3.2223   -2.7208    0.9971 N.ar    1  UNL1       -0.0561
      8 O          -4.4252   -3.3102    0.5844 O.2     1  UNL1       -0.3377
      9 C          -4.7776   -2.6924   -0.5834 C.ar    1  UNL1        0.2281
     10 C          -6.0125   -3.1620   -1.2716 C.3     1  UNL1        0.0348
     11 C          -6.2471   -2.4064   -2.5940 C.3     1  UNL1        0.0338
     12 C          -7.5116   -2.8745   -3.3169 C.2     1  UNL1        0.2296
     13 O          -8.2364   -3.7628   -2.8691 O.2     1  UNL1       -0.2743
     14 N          -7.7901   -2.2365   -4.5155 N.am    1  UNL1       -0.2332
     15 N          -8.9195   -2.6461   -5.3120 N.am    1  UNL1       -0.2179
     16 C          -9.2821   -1.8313   -6.3801 C.2     1  UNL1        0.3202
     17 O          -8.6480   -0.7936   -6.5900 O.2     1  UNL1       -0.2509
     18 N         -10.3274   -2.3074   -7.1686 N.am    1  UNL1       -0.2680
     19 C         -10.6748   -1.7577   -8.4509 C.ar    1  UNL1        0.0377
     20 C         -12.0281   -1.5300   -8.7769 C.ar    1  UNL1       -0.0402
     21 C         -12.4028   -1.0387  -10.0445 C.ar    1  UNL1       -0.0600
     22 C         -11.4396   -0.8026  -11.0181 C.ar    1  UNL1       -0.0614
     23 C         -10.1047   -1.0532  -10.7229 C.ar    1  UNL1       -0.0571
     24 C          -9.7094   -1.5321   -9.4549 C.ar    1  UNL1       -0.0292
     25 C          -8.2594   -1.8794   -9.2772 C.3     1  UNL1       -0.0380
     26 N          -3.9379   -1.7484   -0.9403 N.ar    1  UNL1       -0.1913
     27 C          -0.5359   -1.4241    0.0295 C.ar    1  UNL1       -0.0154
     28 C           0.5469   -0.5479    0.0080 C.ar    1  UNL1        0.1270
     29 F           1.7883   -1.0551   -0.0045 F       1  UNL1       -0.2052
     30 H           1.2519    2.8041    0.0038 H       1  UNL1        0.0278
     31 H           2.1774    1.5778   -0.8738 H       1  UNL1        0.0278
     32 H           2.1546    1.5836    0.9113 H       1  UNL1        0.0278
     33 H          -1.1108    2.4197   -0.0104 H       1  UNL1        0.0621
     34 H          -3.0388    0.8849   -0.0172 H       1  UNL1        0.0625
     35 H          -6.8691   -3.0258   -0.6004 H       1  UNL1        0.0365
     36 H          -5.9260   -4.2391   -1.4635 H       1  UNL1        0.0365
     37 H          -5.3826   -2.5551   -3.2540 H       1  UNL1        0.0363
     38 H          -6.3268   -1.3314   -2.3889 H       1  UNL1        0.0363
     39 H          -7.2251   -1.4848   -4.9141 H       1  UNL1        0.1728
     40 H          -9.5347   -3.3342   -4.8874 H       1  UNL1        0.1744
     41 H         -11.0459   -2.8448   -6.7038 H       1  UNL1        0.1564
     42 H         -12.8197   -1.6813   -8.0473 H       1  UNL1        0.0636
     43 H         -13.4467   -0.8348  -10.2792 H       1  UNL1        0.0618
     44 H         -11.7175   -0.4369  -12.0050 H       1  UNL1        0.0618
     45 H          -9.3594   -0.8959  -11.5008 H       1  UNL1        0.0621
     46 H          -7.7020   -1.7767  -10.2120 H       1  UNL1        0.0278
     47 H          -8.1645   -2.9173   -8.9438 H       1  UNL1        0.0278
     48 H          -7.7741   -1.2045   -8.5758 H       1  UNL1        0.0278
     49 H          -0.3513   -2.4942    0.0277 H       1  UNL1        0.0653
@<TRIPOS>BOND
     1     1     2    1
     2     2     3   ar
     3     3     4   ar
     4     4     5   ar
     5     5     6    1
     6     6     7   ar
     7     7     8   ar
     8     8     9   ar
     9     9    10    1
    10    10    11    1
    11    11    12    1
    12    12    13    2
    13    12    14   am
    14    14    15    1
    15    15    16   am
    16    16    17    2
    17    16    18   am
    18    18    19    1
    19    19    20   ar
    20    20    21   ar
    21    21    22   ar
    22    22    23   ar
    23    23    24   ar
    24    19    24   ar
    25    24    25    1
    26     9    26   ar
    27     6    26   ar
    28     5    27   ar
    29    27    28   ar
    30     2    28   ar
    31    28    29    1
    32     1    30    1
    33     1    31    1
    34     1    32    1
    35     3    33    1
    36     4    34    1
    37    10    35    1
    38    10    36    1
    39    11    37    1
    40    11    38    1
    41    14    39    1
    42    15    40    1
    43    18    41    1
    44    20    42    1
    45    21    43    1
    46    22    44    1
    47    23    45    1
    48    25    46    1
    49    25    47    1
    50    25    48    1
    51    27    49    1
