REMARK  5 active torsions:
REMARK  status: ('A' for Active; 'I' for Inactive)
REMARK       I    between atoms: C_2  and  N_3 
REMARK       I    between atoms: C_2  and  N_10 
REMARK    1  A    between atoms: N_3  and  C_4 
REMARK    2  A    between atoms: N_10  and  N_11 
REMARK       I    between atoms: N_11  and  C_12 
REMARK    3  A    between atoms: N_11  and  C_21 
REMARK       I    between atoms: C_12  and  N_14 
REMARK    4  A    between atoms: N_14  and  C_15 
REMARK    5  A    between atoms: C_23  and  C_24 
ROOT
ATOM      1  N   UNL d   1       4.535   0.456   1.198  0.00  0.00    -0.176 N 
ATOM      2  C   UNL d   1       5.400   0.059   0.168  0.00  0.00     0.344 C 
ATOM      3  O   UNL d   1       6.634  -0.045   0.323  0.00  0.00    -0.245 OA
ATOM      4  N   UNL d   1       4.840  -0.234  -1.038  0.00  0.00    -0.337 N 
ATOM      5  H   UNL d   1       3.955   0.283  -1.143  0.00  0.00     0.164 HD
ENDROOT
BRANCH   1   6
ATOM      6  N   UNL d   1       3.071   0.335   1.159  0.00  0.00    -0.239 N 
ATOM      7  C   UNL d   1       2.198  -0.119   0.174  0.00  0.00     0.335 C 
ATOM      8  O   UNL d   1       0.980   0.066   0.343  0.00  0.00    -0.246 OA
ATOM      9  N   UNL d   1       2.709  -0.680  -0.973  0.00  0.00    -0.337 N 
ATOM     10  H   UNL d   1       3.594  -1.199  -0.966  0.00  0.00     0.164 HD
ATOM     11  H   UNL d   1       2.616   0.720   1.994  0.00  0.00     0.192 HD
BRANCH   9  12
ATOM     12  C   UNL d   1       2.129  -1.013  -2.251  0.00  0.00     0.086 C 
ATOM     13  C   UNL d   1       1.995  -2.510  -2.209  0.00  0.00     0.025 C 
ATOM     14  C   UNL d   1       1.280  -3.050  -3.398  0.00  0.00     0.002 C 
ATOM     15  C   UNL d   1      -0.044  -2.336  -3.526  0.00  0.00     0.000 C 
ATOM     16  C   UNL d   1       0.145  -0.829  -3.664  0.00  0.00     0.002 C 
ATOM     17  C   UNL d   1       0.869  -0.265  -2.481  0.00  0.00     0.025 C 
ENDBRANCH   9  12
ENDBRANCH   1   6
BRANCH   1  18
ATOM     18  C   UNL d   1       5.159   0.869   2.423  0.00  0.00     0.197 A 
ATOM     19  N   UNL d   1       4.815   0.560   3.665  0.00  0.00    -0.222 NA
ATOM     20  C   UNL d   1       5.675   1.177   4.593  0.00  0.00     0.076 A 
ATOM     21  C   UNL d   1       6.603   2.041   4.045  0.00  0.00     0.086 A 
ATOM     22  S   UNL d   1       6.457   2.034   2.337  0.00  0.00    -0.060 SA
BRANCH  20  23
ATOM     23  C   UNL d   1       5.591   0.954   6.042  0.00  0.00    -0.007 A 
ATOM     24  C   UNL d   1       5.770  -0.325   6.584  0.00  0.00     0.017 A 
ATOM     25  C   UNL d   1       5.713  -0.540   7.970  0.00  0.00     0.043 A 
ATOM     26  C   UNL d   1       5.489   0.527   8.824  0.00  0.00     0.116 A 
ATOM     27  F   UNL d   1       5.438   0.323  10.147  0.00  0.00    -0.206 F 
ATOM     28  C   UNL d   1       5.315   1.804   8.316  0.00  0.00     0.043 A 
ATOM     29  C   UNL d   1       5.362   2.017   6.930  0.00  0.00     0.017 A 
ENDBRANCH  20  23
ENDBRANCH   1  18
BRANCH   4  30
ATOM     30  C   UNL d   1       5.377  -0.915  -2.244  0.00  0.00     0.086 C 
ATOM     31  C   UNL d   1       6.670  -0.239  -2.507  0.00  0.00     0.025 C 
ATOM     32  C   UNL d   1       7.404  -0.815  -3.670  0.00  0.00     0.002 C 
ATOM     33  C   UNL d   1       7.580  -2.318  -3.524  0.00  0.00     0.000 C 
ATOM     34  C   UNL d   1       6.243  -3.011  -3.380  0.00  0.00     0.002 C 
ATOM     35  C   UNL d   1       5.526  -2.446  -2.165  0.00  0.00     0.025 C 
ENDBRANCH   4  30
TORSDOF 5
