@<TRIPOS>MOLECULE
*****
 51 54 0 0 0
SMALL
GASTEIGER

@<TRIPOS>ATOM
      1 C          -1.0898   -2.7967    0.0036 C.3     1  UNL1       -0.0396
      2 C          -0.5178   -1.4208   -0.0107 C.ar    1  UNL1       -0.0467
      3 C          -1.3787   -0.3573   -0.1264 C.ar    1  UNL1       -0.0551
      4 C          -0.8528    0.9143   -0.3006 C.ar    1  UNL1       -0.0375
      5 C          -1.8385    1.9722   -0.5304 C.3     1  UNL1       -0.0390
      6 C           0.5103    1.2172   -0.1043 C.ar    1  UNL1        0.0445
      7 C           0.9548    2.6164    0.0669 C.ar    1  UNL1        0.0755
      8 N           1.7306    3.2809   -0.8672 N.ar    1  UNL1       -0.2758
      9 N           2.0554    4.5575   -0.5229 N.ar    1  UNL1       -0.1683
     10 C           1.3789    4.7369    0.6139 C.ar    1  UNL1        0.1529
     11 C           0.6794    3.5939    1.0104 C.ar    1  UNL1        0.0350
     12 C          -0.0380    3.8971    2.2832 C.3     1  UNL1        0.0837
     13 C          -1.4438    3.4029    2.2510 C.ar    1  UNL1        0.0127
     14 C          -1.8331    2.3857    3.1408 C.ar    1  UNL1       -0.0537
     15 C          -3.1342    1.8896    3.1030 C.ar    1  UNL1       -0.0613
     16 C          -4.0500    2.3749    2.1639 C.ar    1  UNL1       -0.0590
     17 C          -3.7032    3.4215    1.3083 C.ar    1  UNL1       -0.0261
     18 C          -2.4204    3.9618    1.3790 C.ar    1  UNL1        0.1287
     19 F          -2.0457    4.8494    0.4433 F       1  UNL1       -0.2051
     20 N           0.0861    5.3639    2.3930 N.am    1  UNL1       -0.2848
     21 C          -0.8594    6.2291    3.1583 C.3     1  UNL1        0.0180
     22 C          -1.9697    5.5096    3.9526 C.3     1  UNL1       -0.0138
     23 C          -3.0158    6.3239    4.6649 C.3     1  UNL1        0.0456
     24 O          -3.9809    5.4240    5.2294 O.3     1  UNL1       -0.3950
     25 C           1.1101    5.8557    1.5328 C.2     1  UNL1        0.2678
     26 O           1.6267    6.9488    1.5550 O.2     1  UNL1       -0.2682
     27 C           1.3715    0.1307   -0.0181 C.ar    1  UNL1        0.1265
     28 O           2.7307    0.2600    0.0322 O.3     1  UNL1       -0.5061
     29 C           0.8620   -1.1748    0.0017 C.ar    1  UNL1       -0.0166
     30 H          -2.1877   -2.7720    0.0050 H       1  UNL1        0.0278
     31 H          -0.7631   -3.3319    0.8958 H       1  UNL1        0.0278
     32 H          -0.7733   -3.3154   -0.9038 H       1  UNL1        0.0278
     33 H          -2.4602   -0.4934   -0.0888 H       1  UNL1        0.0623
     34 H          -2.8861    1.6801   -0.4406 H       1  UNL1        0.0278
     35 H          -1.6537    2.7115   -1.3043 H       1  UNL1        0.0278
     36 H          -1.5966    2.4379    0.3736 H       1  UNL1        0.0278
     37 H           2.0753    2.9052   -1.7470 H       1  UNL1        0.1889
     38 H           0.5335    3.4781    3.1202 H       1  UNL1        0.0603
     39 H          -1.1248    1.9836    3.8644 H       1  UNL1        0.0622
     40 H          -3.4197    1.0900    3.7821 H       1  UNL1        0.0618
     41 H          -5.0157    1.8892    2.0566 H       1  UNL1        0.0618
     42 H          -4.3481    3.7058    0.4813 H       1  UNL1        0.0646
     43 H          -1.3282    6.8964    2.4223 H       1  UNL1        0.0466
     44 H          -0.2727    6.8522    3.8350 H       1  UNL1        0.0466
     45 H          -1.5467    4.7450    4.6137 H       1  UNL1        0.0302
     46 H          -2.6336    5.0023    3.2731 H       1  UNL1        0.0302
     47 H          -3.5458    6.9717    3.9603 H       1  UNL1        0.0557
     48 H          -2.5682    6.9012    5.4678 H       1  UNL1        0.0557
     49 H          -4.3897    4.9094    4.5065 H       1  UNL1        0.2094
     50 H           2.9626    1.2015    0.0884 H       1  UNL1        0.2922
     51 H           1.5526   -2.0095    0.0377 H       1  UNL1        0.0657
@<TRIPOS>BOND
     1     1     2    1
     2     2     3   ar
     3     3     4   ar
     4     4     5    1
     5     4     6   ar
     6     6     7    1
     7     7     8   ar
     8     8     9   ar
     9     9    10   ar
    10    10    11   ar
    11     7    11   ar
    12    11    12    1
    13    12    13    1
    14    13    14   ar
    15    14    15   ar
    16    15    16   ar
    17    16    17   ar
    18    17    18   ar
    19    13    18   ar
    20    18    19    1
    21    12    20    1
    22    20    21    1
    23    21    22    1
    24    22    23    1
    25    23    24    1
    26    20    25   am
    27    10    25    1
    28    25    26    2
    29     6    27   ar
    30    27    28    1
    31    27    29   ar
    32     2    29   ar
    33     1    30    1
    34     1    31    1
    35     1    32    1
    36     3    33    1
    37     5    34    1
    38     5    35    1
    39     5    36    1
    40     8    37    1
    41    12    38    1
    42    14    39    1
    43    15    40    1
    44    16    41    1
    45    17    42    1
    46    21    43    1
    47    21    44    1
    48    22    45    1
    49    22    46    1
    50    23    47    1
    51    23    48    1
    52    24    49    1
    53    28    50    1
    54    29    51    1
