@<TRIPOS>MOLECULE
*****
 47 49 0 0 0
SMALL
GASTEIGER

@<TRIPOS>ATOM
      1 C           1.0823   -0.0286   -0.0319 C.3     1  UNL1       -0.0589
      2 C           2.6215   -0.0388   -0.0234 C.3     1  UNL1       -0.0251
      3 C           3.1131    0.5639    1.3052 C.3     1  UNL1       -0.0589
      4 C           3.1023   -1.4965   -0.1387 C.3     1  UNL1       -0.0589
      5 C           3.1329    0.8092   -1.2177 C.3     1  UNL1        0.0031
      6 N           4.5992    0.8671   -1.2486 N.3     1  UNL1       -0.2894
      7 C           5.0967    1.6507   -2.3686 C.3     1  UNL1        0.1322
      8 O           4.6250    2.9792   -2.2407 O.3     1  UNL1       -0.3750
      9 C           6.6431    1.6394   -2.3636 C.3     1  UNL1        0.1146
     10 O           7.1294    2.3670   -3.4970 O.3     1  UNL1       -0.2700
     11 N           8.5214    2.5396   -3.3565 N.3     1  UNL1       -0.2651
     12 C           9.1558    3.0959   -4.4402 C.2     1  UNL1        0.0697
     13 C          10.1581    2.6546   -5.2488 C.2     1  UNL1       -0.0282
     14 C          10.4755    3.7519   -6.2490 C.ar    1  UNL1       -0.0147
     15 C          11.3938    3.8585   -7.2895 C.ar    1  UNL1       -0.0539
     16 C          11.4076    5.0791   -7.9999 C.ar    1  UNL1       -0.0606
     17 C          10.5403    6.1460   -7.6839 C.ar    1  UNL1       -0.0540
     18 C           9.6182    6.0096   -6.6321 C.ar    1  UNL1       -0.0167
     19 C           8.6903    6.9661   -6.1813 C.ar    1  UNL1       -0.0540
     20 C           7.8388    6.6674   -5.0972 C.ar    1  UNL1       -0.0605
     21 C           7.8773    5.4273   -4.4360 C.ar    1  UNL1       -0.0520
     22 C           8.8000    4.4982   -4.9000 C.ar    1  UNL1        0.0084
     23 C           9.6269    4.8172   -5.9697 C.ar    1  UNL1       -0.0015
     24 H           0.6793   -0.6165    0.8005 H       1  UNL1        0.0235
     25 H           0.6887   -0.4539   -0.9619 H       1  UNL1        0.0235
     26 H           0.6912    0.9909    0.0609 H       1  UNL1        0.0235
     27 H           2.7425   -0.0095    2.1613 H       1  UNL1        0.0235
     28 H           2.7668    1.5978    1.4180 H       1  UNL1        0.0235
     29 H           4.2068    0.5716    1.3663 H       1  UNL1        0.0235
     30 H           2.7133   -2.1074    0.6827 H       1  UNL1        0.0235
     31 H           4.1938   -1.5735   -0.1024 H       1  UNL1        0.0235
     32 H           2.7666   -1.9446   -1.0808 H       1  UNL1        0.0235
     33 H           2.7207    1.8221   -1.1263 H       1  UNL1        0.0430
     34 H           2.7559    0.3851   -2.1573 H       1  UNL1        0.0430
     35 H           4.9577   -0.0817   -1.3405 H       1  UNL1        0.1244
     36 H           4.7333    1.2496   -3.3217 H       1  UNL1        0.0789
     37 H           4.9044    3.2563   -1.3534 H       1  UNL1        0.2115
     38 H           7.0068    0.6064   -2.4332 H       1  UNL1        0.0625
     39 H           7.0194    2.0951   -1.4386 H       1  UNL1        0.0625
     40 H           8.9920    1.6975   -3.0342 H       1  UNL1        0.1941
     41 H          10.6574    1.7006   -5.2166 H       1  UNL1        0.0645
     42 H          12.0681    3.0484   -7.5424 H       1  UNL1        0.0624
     43 H          12.1119    5.2073   -8.8210 H       1  UNL1        0.0618
     44 H          10.5884    7.0692   -8.2539 H       1  UNL1        0.0624
     45 H           8.6249    7.9368   -6.6620 H       1  UNL1        0.0624
     46 H           7.1288    7.4184   -4.7580 H       1  UNL1        0.0618
     47 H           7.2283    5.1907   -3.6013 H       1  UNL1        0.0624
@<TRIPOS>BOND
     1     1     2    1
     2     2     3    1
     3     2     4    1
     4     2     5    1
     5     5     6    1
     6     6     7    1
     7     7     8    1
     8     7     9    1
     9     9    10    1
    10    10    11    1
    11    11    12    1
    12    12    13    2
    13    13    14    1
    14    14    15   ar
    15    15    16   ar
    16    16    17   ar
    17    17    18   ar
    18    18    19   ar
    19    19    20   ar
    20    20    21   ar
    21    21    22   ar
    22    12    22    1
    23    22    23   ar
    24    14    23   ar
    25    18    23   ar
    26     1    24    1
    27     1    25    1
    28     1    26    1
    29     3    27    1
    30     3    28    1
    31     3    29    1
    32     4    30    1
    33     4    31    1
    34     4    32    1
    35     5    33    1
    36     5    34    1
    37     6    35    1
    38     7    36    1
    39     8    37    1
    40     9    38    1
    41     9    39    1
    42    11    40    1
    43    13    41    1
    44    15    42    1
    45    16    43    1
    46    17    44    1
    47    19    45    1
    48    20    46    1
    49    21    47    1
