@<TRIPOS>MOLECULE
*****
 66 67 0 0 0
SMALL
GASTEIGER

@<TRIPOS>ATOM
      1 C           2.7421    3.7610    6.7335 C.3     1  UNL1        0.0817
      2 O           4.1126    4.1655    6.6633 O.3     1  UNL1       -0.4666
      3 C           4.4634    4.6794    5.4443 C.2     1  UNL1        0.3274
      4 O           3.6849    4.8321    4.5096 O.2     1  UNL1       -0.2488
      5 C           5.9281    5.1712    5.4514 C.3     1  UNL1        0.1205
      6 C           6.0091    6.6149    5.9752 C.3     1  UNL1       -0.0212
      7 C           5.3029    6.7867    7.3228 C.3     1  UNL1       -0.0200
      8 C           5.3329    8.2246    7.8059 C.3     1  UNL1        0.0646
      9 N           4.6081    8.3679    9.0765 N.pl3   1  UNL1       -0.2787
     10 C           4.4732    9.5421    9.7138 C.cat   1  UNL1        0.3410
     11 N           4.9976   10.6673    9.2205 N.pl3   1  UNL1       -0.2919
     12 N           3.8036    9.5987   10.8679 N.pl3   1  UNL1       -0.2919
     13 N           6.4202    5.0841    4.0810 N.am    1  UNL1       -0.3008
     14 C           6.5555    3.8412    3.4863 C.2     1  UNL1        0.2344
     15 O           6.2730    2.8117    4.0954 O.2     1  UNL1       -0.2737
     16 C           7.1331    3.8628    2.0509 C.3     1  UNL1        0.1064
     17 C           6.5979    2.6383    1.2609 C.3     1  UNL1       -0.0005
     18 C           5.7549    2.9176    0.0274 C.ar    1  UNL1       -0.0451
     19 C           5.3080    4.1960   -0.3302 C.ar    1  UNL1       -0.0585
     20 C           4.3922    4.3786   -1.3628 C.ar    1  UNL1       -0.0615
     21 C           3.9781    3.2955   -2.1245 C.ar    1  UNL1       -0.0617
     22 C           4.4364    2.0178   -1.8155 C.ar    1  UNL1       -0.0615
     23 C           5.3073    1.8263   -0.7389 C.ar    1  UNL1       -0.0585
     24 N           8.5958    3.9212    2.1104 N.am    1  UNL1       -0.2695
     25 C           9.2453    5.0398    2.5488 C.2     1  UNL1        0.4012
     26 O           8.6755    6.0361    2.9946 O.2     1  UNL1       -0.2265
     27 O          10.5860    4.8958    2.4613 O.3     1  UNL1       -0.4456
     28 C          11.3191    5.9935    3.0342 C.3     1  UNL1        0.1191
     29 C          12.8137    5.7808    2.9390 C.ar    1  UNL1       -0.0103
     30 C          13.3635    4.4923    2.9442 C.ar    1  UNL1       -0.0554
     31 C          14.7451    4.3075    3.0136 C.ar    1  UNL1       -0.0614
     32 C          15.5999    5.4067    3.0010 C.ar    1  UNL1       -0.0617
     33 C          15.0716    6.6951    2.9772 C.ar    1  UNL1       -0.0614
     34 C          13.6862    6.8826    2.9633 C.ar    1  UNL1       -0.0554
     35 H           2.5334    3.4234    7.7528 H       1  UNL1        0.0661
     36 H           2.5590    2.9322    6.0446 H       1  UNL1        0.0661
     37 H           2.0750    4.6029    6.5150 H       1  UNL1        0.0661
     38 H           6.5451    4.5066    6.0692 H       1  UNL1        0.0614
     39 H           7.0628    6.9126    6.0752 H       1  UNL1        0.0289
     40 H           5.5691    7.3051    5.2435 H       1  UNL1        0.0289
     41 H           5.7544    6.1234    8.0703 H       1  UNL1        0.0296
     42 H           4.2486    6.5066    7.2361 H       1  UNL1        0.0296
     43 H           4.8397    8.8625    7.0649 H       1  UNL1        0.0655
     44 H           6.3673    8.5434    7.9597 H       1  UNL1        0.0655
     45 H           4.1802    7.5498    9.4960 H       1  UNL1        0.2578
     46 H           5.5080   10.6710    8.3472 H       1  UNL1        0.2545
     47 H           4.9032   11.5547    9.6948 H       1  UNL1        0.2545
     48 H           3.3851    8.7780   11.2870 H       1  UNL1        0.2545
     49 H           3.6931   10.4720   11.3678 H       1  UNL1        0.2545
     50 H           6.9005    5.8728    3.6460 H       1  UNL1        0.1496
     51 H           6.8321    4.8119    1.6108 H       1  UNL1        0.0599
     52 H           7.4259    1.9788    0.9701 H       1  UNL1        0.0336
     53 H           5.9440    2.0315    1.9032 H       1  UNL1        0.0336
     54 H           5.6296    5.0966    0.1761 H       1  UNL1        0.0620
     55 H           3.9991    5.3729   -1.5548 H       1  UNL1        0.0618
     56 H           3.2993    3.4530   -2.9570 H       1  UNL1        0.0618
     57 H           4.0947    1.1673   -2.3996 H       1  UNL1        0.0618
     58 H           5.6200    0.8120   -0.4933 H       1  UNL1        0.0620
     59 H           9.1525    3.2175    1.6402 H       1  UNL1        0.1528
     60 H          11.0672    6.0807    4.1004 H       1  UNL1        0.0749
     61 H          11.0460    6.9228    2.5196 H       1  UNL1        0.0749
     62 H          12.7174    3.6189    2.9009 H       1  UNL1        0.0621
     63 H          15.1534    3.3030    3.0872 H       1  UNL1        0.0618
     64 H          16.6765    5.2563    3.0085 H       1  UNL1        0.0618
     65 H          15.7407    7.5524    2.9863 H       1  UNL1        0.0618
     66 H          13.2967    7.8985    2.9727 H       1  UNL1        0.0621
@<TRIPOS>UNITY_ATOM_ATTR
12 1
charge 1
@<TRIPOS>BOND
     1     1     2    1
     2     2     3    1
     3     3     4    2
     4     6     7    1
     5     7     8    1
     6     8     9    1
     7     9    10    1
     8    10    11    1
     9    10    12    2
    10     5    13    1
    11    13    14   am
    12    14    15    2
    13    17    18    1
    14    18    19   ar
    15    19    20   ar
    16    20    21   ar
    17    21    22   ar
    18    22    23   ar
    19    18    23   ar
    20    16    24    1
    21    24    25   am
    22    25    26    2
    23    25    27    1
    24    27    28    1
    25    28    29    1
    26    29    30   ar
    27    30    31   ar
    28    31    32   ar
    29    32    33   ar
    30    33    34   ar
    31    29    34   ar
    32    16    17    1
    33    16    14    1
    34     5     6    1
    35     5     3    1
    36     1    35    1
    37     1    36    1
    38     1    37    1
    39     5    38    1
    40     6    39    1
    41     6    40    1
    42     7    41    1
    43     7    42    1
    44     8    43    1
    45     8    44    1
    46     9    45    1
    47    11    46    1
    48    11    47    1
    49    12    48    1
    50    12    49    1
    51    13    50    1
    52    16    51    1
    53    17    52    1
    54    17    53    1
    55    19    54    1
    56    20    55    1
    57    21    56    1
    58    22    57    1
    59    23    58    1
    60    24    59    1
    61    28    60    1
    62    28    61    1
    63    30    62    1
    64    31    63    1
    65    32    64    1
    66    33    65    1
    67    34    66    1
