@<TRIPOS>MOLECULE
*****
 65 67 0 0 0
SMALL
GASTEIGER

@<TRIPOS>ATOM
      1 C           1.0887   -0.0088   -0.0386 C.3     1  UNL1       -0.0652
      2 C           2.6080   -0.0198   -0.0468 C.3     1  UNL1       -0.0528
      3 C           3.1545   -1.3121   -0.6544 C.3     1  UNL1       -0.0189
      4 C           4.6849   -1.3094   -0.6661 C.3     1  UNL1        0.0896
      5 O           5.1563   -2.4820   -1.3347 O.3     1  UNL1       -0.4920
      6 C           6.5073   -2.7111   -1.2890 C.ar    1  UNL1        0.1205
      7 C           7.0582   -3.3610   -2.3932 C.ar    1  UNL1       -0.0192
      8 C           8.3787   -3.8453   -2.3456 C.ar    1  UNL1       -0.0443
      9 C           9.1858   -3.6446   -1.2067 C.ar    1  UNL1        0.0596
     10 C          10.5778   -4.2392   -1.1589 C.2     1  UNL1        0.3446
     11 O          10.9184   -5.1693   -1.8653 O.2     1  UNL1       -0.2445
     12 O          11.4300   -3.4587   -0.3690 O.3     1  UNL1       -0.4186
     13 C          12.8338   -3.5663   -0.5822 C.ar    1  UNL1        0.1734
     14 C          13.6064   -3.9914    0.5204 C.ar    1  UNL1       -0.0150
     15 C          15.0175   -4.0351    0.4528 C.ar    1  UNL1       -0.0494
     16 C          15.6689   -3.7172   -0.7411 C.ar    1  UNL1       -0.0018
     17 C          17.1549   -3.9022   -0.8785 C.2     1  UNL1        0.0529
     18 N          17.7589   -3.6279   -1.9933 N.2     1  UNL1       -0.1876
     19 N          19.1187   -3.8142   -2.1053 N.am    1  UNL1       -0.2042
     20 C          19.7270   -3.4962   -3.3318 C.2     1  UNL1        0.2698
     21 O          19.1017   -3.1087   -4.3198 O.2     1  UNL1       -0.2703
     22 C          21.2624   -3.6699   -3.3521 C.3     1  UNL1        0.1671
     23 O          21.7780   -3.5261   -4.6812 O.3     1  UNL1       -0.4761
     24 C          23.0865   -3.8087   -4.9665 C.ar    1  UNL1        0.1979
     25 C          23.7134   -2.8344   -5.7831 C.ar    1  UNL1       -0.0131
     26 C          25.0023   -3.0198   -6.3113 C.ar    1  UNL1       -0.0579
     27 C          25.7234   -4.1580   -5.9858 C.ar    1  UNL1       -0.0551
     28 C          25.1300   -5.1306   -5.1876 C.ar    1  UNL1        0.0194
     29 C          23.8109   -4.9804   -4.6986 C.ar    1  UNL1        0.3142
     30 N          23.2775   -6.1506   -3.9934 N.pl3   1  UNL1        0.0834
     31 O          24.1043   -6.9044   -3.4493 O.2     1  UNL1        0.0416
     32 O          22.0628   -6.3578   -3.9863 O.co2   1  UNL1       -0.5759
     33 C          14.8954   -3.2592   -1.8203 C.ar    1  UNL1       -0.0076
     34 C          13.4823   -3.1515   -1.7556 C.ar    1  UNL1        0.1628
     35 O          12.9600   -2.6248   -2.9071 O.3     1  UNL1       -0.4914
     36 C          11.5876   -2.2971   -3.0022 C.3     1  UNL1        0.0790
     37 C           8.6637   -2.8863   -0.1583 C.ar    1  UNL1       -0.0443
     38 C           7.3248   -2.4522   -0.1873 C.ar    1  UNL1       -0.0192
     39 H           0.7165    0.9266    0.3911 H       1  UNL1        0.0230
     40 H           0.6955   -0.8380    0.5579 H       1  UNL1        0.0230
     41 H           0.6933   -0.0976   -1.0553 H       1  UNL1        0.0230
     42 H           2.9749    0.0978    0.9799 H       1  UNL1        0.0264
     43 H           2.9709    0.8415   -0.6200 H       1  UNL1        0.0264
     44 H           2.7733   -1.4440   -1.6740 H       1  UNL1        0.0298
     45 H           2.7918   -2.1767   -0.0827 H       1  UNL1        0.0298
     46 H           5.0242   -1.2596    0.3726 H       1  UNL1        0.0696
     47 H           5.0487   -0.4346   -1.2151 H       1  UNL1        0.0696
     48 H           6.4507   -3.5145   -3.2849 H       1  UNL1        0.0654
     49 H           8.7641   -4.3865   -3.2095 H       1  UNL1        0.0627
     50 H          13.1162   -4.3060    1.4396 H       1  UNL1        0.0656
     51 H          15.5865   -4.3252    1.3341 H       1  UNL1        0.0625
     52 H          17.7001   -4.2910    0.0022 H       1  UNL1        0.0851
     53 H          19.6368   -4.2435   -1.3462 H       1  UNL1        0.1773
     54 H          21.4426   -4.6452   -2.9189 H       1  UNL1        0.0795
     55 H          21.7376   -2.9319   -2.6989 H       1  UNL1        0.0795
     56 H          23.1910   -1.9108   -6.0369 H       1  UNL1        0.0656
     57 H          25.4381   -2.2875   -6.9905 H       1  UNL1        0.0619
     58 H          26.7329   -4.3066   -6.3632 H       1  UNL1        0.0620
     59 H          25.6981   -6.0368   -4.9824 H       1  UNL1        0.0686
     60 H          15.3982   -2.9691   -2.7436 H       1  UNL1        0.0662
     61 H          11.3979   -1.7523   -3.9290 H       1  UNL1        0.0660
     62 H          11.2492   -1.6781   -2.1643 H       1  UNL1        0.0660
     63 H          10.9980   -3.1973   -3.1386 H       1  UNL1        0.0660
     64 H           9.2680   -2.6584    0.7146 H       1  UNL1        0.0627
     65 H           6.9355   -1.9613    0.6972 H       1  UNL1        0.0654
@<TRIPOS>UNITY_ATOM_ATTR
30 1
charge 1
32 1
charge -1
@<TRIPOS>BOND
     1     1     2    1
     2     2     3    1
     3     3     4    1
     4     4     5    1
     5     5     6    1
     6     6     7   ar
     7     7     8   ar
     8     8     9   ar
     9     9    10    1
    10    10    11    2
    11    10    12    1
    12    12    13    1
    13    13    14   ar
    14    14    15   ar
    15    15    16   ar
    16    16    17    1
    17    17    18    2
    18    18    19    1
    19    19    20   am
    20    20    21    2
    21    20    22    1
    22    22    23    1
    23    23    24    1
    24    24    25   ar
    25    25    26   ar
    26    26    27   ar
    27    27    28   ar
    28    28    29   ar
    29    24    29   ar
    30    29    30    1
    31    30    31    2
    32    30    32    1
    33    16    33   ar
    34    33    34   ar
    35    13    34   ar
    36    34    35    1
    37    35    36    1
    38     9    37   ar
    39    37    38   ar
    40     6    38   ar
    41     1    39    1
    42     1    40    1
    43     1    41    1
    44     2    42    1
    45     2    43    1
    46     3    44    1
    47     3    45    1
    48     4    46    1
    49     4    47    1
    50     7    48    1
    51     8    49    1
    52    14    50    1
    53    15    51    1
    54    17    52    1
    55    19    53    1
    56    22    54    1
    57    22    55    1
    58    25    56    1
    59    26    57    1
    60    27    58    1
    61    28    59    1
    62    33    60    1
    63    36    61    1
    64    36    62    1
    65    36    63    1
    66    37    64    1
    67    38    65    1
