REMARK  6 active torsions:
REMARK  status: ('A' for Active; 'I' for Inactive)
REMARK    1  A    between atoms: C_2  and  N_17 
REMARK    2  A    between atoms: C_2  and  C_3 
REMARK    3  A    between atoms: C_3  and  C_4 
REMARK       I    between atoms: C_4  and  N_6 
REMARK    4  A    between atoms: N_6  and  N_7 
REMARK       I    between atoms: N_7  and  C_8 
REMARK    5  A    between atoms: C_8  and  C_10 
REMARK       I    between atoms: N_17  and  C_18 
REMARK    6  A    between atoms: C_18  and  C_20 
ROOT
ATOM      1  C   UNL d   1       0.259   0.010  -1.587  0.00  0.00     0.237 C 
ATOM      2  O   UNL d   1       0.904  -0.024  -2.636  0.00  0.00    -0.272 OA
ATOM      3  N   UNL d   1      -1.113   0.070  -1.703  0.00  0.00    -0.267 N 
ATOM      4  H   UNL d   1      -1.794   0.028  -0.948  0.00  0.00     0.190 HD
ENDROOT
BRANCH   1   5
ATOM      5  C   UNL d   1       0.882   0.010  -0.171  0.00  0.00     0.129 C 
BRANCH   5   6
ATOM      6  C   UNL d   1       2.454   0.027  -0.110  0.00  0.00     0.089 C 
ATOM      7  C   UNL d   1       3.095   0.676  -1.336  0.00  0.00     0.032 C 
BRANCH   6   8
ATOM      8  N   UNL d   1       2.980   0.705   1.094  0.00  0.00    -0.356 N 
ATOM      9  C   UNL d   1       4.344   0.788   1.359  0.00  0.00     0.222 C 
ATOM     10  O   UNL d   1       5.205   0.241   0.673  0.00  0.00    -0.273 OA
ATOM     11  H   UNL d   1       2.337   1.187   1.706  0.00  0.00     0.162 HD
BRANCH   9  12
ATOM     12  C   UNL d   1       4.755   1.638   2.557  0.00  0.00     0.078 C 
ATOM     13  C   UNL d   1       4.553   3.136   2.297  0.00  0.00     0.014 C 
ATOM     14  C   UNL d   1       4.831   3.979   3.543  0.00  0.00     0.001 C 
ATOM     15  C   UNL d   1       4.028   3.482   4.741  0.00  0.00     0.000 C 
ATOM     16  C   UNL d   1       4.324   2.014   5.025  0.00  0.00     0.001 C 
ATOM     17  C   UNL d   1       4.027   1.152   3.810  0.00  0.00     0.014 C 
ENDBRANCH   9  12
ENDBRANCH   6   8
ENDBRANCH   5   6
ENDBRANCH   1   5
BRANCH   3  18
ATOM     18  N   UNL d   1      -1.617   0.079  -3.043  0.00  0.00    -0.263 N 
ATOM     19  C   UNL d   1      -2.973   0.148  -3.265  0.00  0.00     0.270 C 
ATOM     20  O   UNL d   1      -3.788   0.171  -2.340  0.00  0.00    -0.266 OA
ATOM     21  H   UNL d   1      -0.905   0.172  -3.770  0.00  0.00     0.190 HD
BRANCH  19  22
ATOM     22  C   UNL d   1      -3.456   0.217  -4.681  0.00  0.00     0.033 A 
ATOM     23  C   UNL d   1      -2.891  -0.532  -5.724  0.00  0.00     0.019 A 
ATOM     24  C   UNL d   1      -3.482  -0.518  -7.002  0.00  0.00     0.025 A 
ATOM     25  C   UNL d   1      -4.622   0.250  -7.242  0.00  0.00     0.034 A 
ATOM     26 CL   UNL d   1      -5.351   0.252  -8.802  0.00  0.00    -0.084 Cl
ATOM     27  C   UNL d   1      -5.181   1.008  -6.218  0.00  0.00     0.025 A 
ATOM     28  C   UNL d   1      -4.600   0.989  -4.943  0.00  0.00     0.019 A 
ENDBRANCH  19  22
ENDBRANCH   3  18
TORSDOF 6
