@<TRIPOS>MOLECULE
*****
 60 63 0 0 0
SMALL
GASTEIGER

@<TRIPOS>ATOM
      1 O           1.0808   -0.0073    0.1015 O.2     1  UNL1       -0.2525
      2 C           2.2980   -0.1079   -0.0860 C.2     1  UNL1        0.3042
      3 N           2.8996    0.2333   -1.2701 N.am    1  UNL1       -0.2950
      4 C           2.2360    1.0257   -2.3112 C.3     1  UNL1        0.0383
      5 C           3.1885    1.6120   -3.3669 C.ar    1  UNL1       -0.0301
      6 C           3.2418    3.0056   -3.6368 C.ar    1  UNL1       -0.0544
      7 C           4.1593    3.5375   -4.5552 C.ar    1  UNL1       -0.0261
      8 C           5.0088    2.6801   -5.2370 C.ar    1  UNL1        0.1234
      9 F           5.8661    3.1751   -6.1404 F       1  UNL1       -0.2055
     10 C           4.9845    1.3127   -4.9868 C.ar    1  UNL1       -0.0261
     11 C           4.0876    0.7823   -4.0499 C.ar    1  UNL1       -0.0544
     12 N           3.1106   -0.6476    0.8934 N.am    1  UNL1       -0.2678
     13 C           4.5167   -0.5004    1.0795 C.ar    1  UNL1        0.0576
     14 C           5.2511   -1.5770    1.6439 C.ar    1  UNL1       -0.0174
     15 C           6.6432   -1.4681    1.8269 C.ar    1  UNL1        0.0355
     16 N           7.3890   -2.4559    2.5340 N.am    1  UNL1       -0.2814
     17 C           8.7316   -2.3266    2.8814 C.2     1  UNL1        0.2497
     18 O           9.4644   -1.3641    2.6207 O.2     1  UNL1       -0.2698
     19 C           9.4163   -3.3941    3.6401 C.ar    1  UNL1        0.0553
     20 C          10.4495   -2.9669    4.5064 C.ar    1  UNL1       -0.0482
     21 C          11.3612   -3.8753    5.0382 C.ar    1  UNL1       -0.0610
     22 C          11.2056   -5.2301    4.7724 C.ar    1  UNL1       -0.0603
     23 C          10.1597   -5.6673    3.9538 C.ar    1  UNL1       -0.0427
     24 C           9.2641   -4.7557    3.3809 C.ar    1  UNL1        0.0531
     25 CL          8.0461   -5.3952    2.3394 Cl      1  UNL1       -0.0828
     26 C           7.2771   -0.3346    1.3255 C.ar    1  UNL1       -0.0386
     27 C           6.5622    0.7402    0.8289 C.ar    1  UNL1       -0.0371
     28 C           5.1772    0.7047    0.7461 C.ar    1  UNL1        0.0514
     29 N           4.5404    1.8739    0.4005 N.pl3   1  UNL1       -0.3285
     30 C           4.7881    2.5230   -0.8702 C.3     1  UNL1        0.0122
     31 C           5.1164    3.9809   -0.7196 C.3     1  UNL1       -0.0372
     32 C           4.0373    4.6506    0.1375 C.3     1  UNL1       -0.0502
     33 C           3.7930    3.8876    1.4470 C.3     1  UNL1       -0.0372
     34 C           3.4509    2.4239    1.1925 C.3     1  UNL1        0.0122
     35 H           3.8892    0.3808   -1.1525 H       1  UNL1        0.1506
     36 H           1.6792    1.8389   -1.8257 H       1  UNL1        0.0512
     37 H           1.5150    0.3719   -2.8034 H       1  UNL1        0.0512
     38 H           2.6241    3.7065   -3.0745 H       1  UNL1        0.0622
     39 H           4.2268    4.6082   -4.7340 H       1  UNL1        0.0646
     40 H           5.6703    0.6637   -5.5219 H       1  UNL1        0.0646
     41 H           4.1055   -0.2839   -3.8386 H       1  UNL1        0.0622
     42 H           2.6012   -1.0326    1.6800 H       1  UNL1        0.1564
     43 H           4.7372   -2.5041    1.8889 H       1  UNL1        0.0655
     44 H           6.8885   -3.2751    2.8626 H       1  UNL1        0.1551
     45 H          10.5782   -1.9049    4.7239 H       1  UNL1        0.0625
     46 H          12.2072   -3.5207    5.6236 H       1  UNL1        0.0618
     47 H          11.9050   -5.9475    5.1944 H       1  UNL1        0.0618
     48 H          10.0719   -6.7280    3.7323 H       1  UNL1        0.0632
     49 H           8.3506   -0.2105    1.3291 H       1  UNL1        0.0637
     50 H           7.1076    1.6460    0.5804 H       1  UNL1        0.0637
     51 H           3.8168    2.5525   -1.3313 H       1  UNL1        0.0464
     52 H           5.4713    1.9785   -1.5320 H       1  UNL1        0.0464
     53 H           5.1314    4.4446   -1.7140 H       1  UNL1        0.0280
     54 H           6.1080    4.0861   -0.2783 H       1  UNL1        0.0280
     55 H           3.0949    4.6960   -0.4281 H       1  UNL1        0.0266
     56 H           4.3383    5.6784    0.3483 H       1  UNL1        0.0266
     57 H           2.9813    4.3540    2.0105 H       1  UNL1        0.0280
     58 H           4.7050    3.9309    2.0524 H       1  UNL1        0.0280
     59 H           2.5051    2.3682    0.6400 H       1  UNL1        0.0464
     60 H           3.3153    1.8930    2.1409 H       1  UNL1        0.0464
@<TRIPOS>BOND
     1     1     2    2
     2     2     3   am
     3     3     4    1
     4     4     5    1
     5     5     6   ar
     6     6     7   ar
     7     7     8   ar
     8     8     9    1
     9     8    10   ar
    10    10    11   ar
    11     5    11   ar
    12     2    12   am
    13    12    13    1
    14    13    14   ar
    15    14    15   ar
    16    15    16    1
    17    16    17   am
    18    17    18    2
    19    17    19    1
    20    19    20   ar
    21    20    21   ar
    22    21    22   ar
    23    22    23   ar
    24    23    24   ar
    25    19    24   ar
    26    24    25    1
    27    15    26   ar
    28    26    27   ar
    29    27    28   ar
    30    13    28   ar
    31    28    29    1
    32    29    30    1
    33    30    31    1
    34    31    32    1
    35    32    33    1
    36    33    34    1
    37    29    34    1
    38     3    35    1
    39     4    36    1
    40     4    37    1
    41     6    38    1
    42     7    39    1
    43    10    40    1
    44    11    41    1
    45    12    42    1
    46    14    43    1
    47    16    44    1
    48    20    45    1
    49    21    46    1
    50    22    47    1
    51    23    48    1
    52    26    49    1
    53    27    50    1
    54    30    51    1
    55    30    52    1
    56    31    53    1
    57    31    54    1
    58    32    55    1
    59    32    56    1
    60    33    57    1
    61    33    58    1
    62    34    59    1
    63    34    60    1
