REMARK  6 active torsions:
REMARK  status: ('A' for Active; 'I' for Inactive)
REMARK    1  A    between atoms: C_2  and  C_10 
REMARK    2  A    between atoms: C_2  and  O_3 
REMARK    3  A    between atoms: O_3  and  C_4 
REMARK       I    between atoms: C_10  and  N_12 
REMARK    4  A    between atoms: N_12  and  N_13 
REMARK       I    between atoms: N_13  and  C_14 
REMARK    5  A    between atoms: C_14  and  C_16 
REMARK    6  A    between atoms: C_20  and  N_21 
ROOT
ATOM      1  C   UNL d   1       3.097   1.203  -0.825  0.00  0.00     0.265 C 
ATOM      2  O   UNL d   1       2.324   2.024  -1.324  0.00  0.00    -0.269 OA
ATOM      3  N   UNL d   1       4.483   1.381  -0.917  0.00  0.00    -0.265 N 
ATOM      4  H   UNL d   1       5.175   0.733  -0.545  0.00  0.00     0.190 HD
ENDROOT
BRANCH   3   5
ATOM      5  N   UNL d   1       5.001   2.463  -1.677  0.00  0.00    -0.263 N 
ATOM      6  C   UNL d   1       6.374   2.600  -1.861  0.00  0.00     0.270 C 
ATOM      7  O   UNL d   1       7.197   1.796  -1.415  0.00  0.00    -0.266 OA
ATOM      8  H   UNL d   1       4.312   3.086  -2.099  0.00  0.00     0.190 HD
BRANCH   6   9
ATOM      9  C   UNL d   1       6.833   3.814  -2.607  0.00  0.00     0.035 A 
ATOM     10  C   UNL d   1       7.883   3.780  -3.524  0.00  0.00     0.017 A 
ATOM     11  C   UNL d   1       8.316   4.970  -4.110  0.00  0.00     0.003 A 
ATOM     12  C   UNL d   1       7.677   6.181  -3.810  0.00  0.00     0.029 A 
ATOM     13  C   UNL d   1       6.640   6.270  -2.867  0.00  0.00     0.030 A 
ATOM     14  C   UNL d   1       6.250   5.047  -2.285  0.00  0.00     0.046 A 
BRANCH  13  15
ATOM     15  N   UNL d   1       6.041   7.469  -2.516  0.00  0.00    -0.390 N 
ATOM     16  C   UNL d   1       6.433   8.759  -3.087  0.00  0.00     0.149 C 
ATOM     17  C   UNL d   1       5.015   7.564  -1.475  0.00  0.00     0.149 C 
ENDBRANCH  13  15
ENDBRANCH   6   9
ENDBRANCH   3   5
BRANCH   1  18
ATOM     18  C   UNL d   1       2.622  -0.103  -0.078  0.00  0.00     0.218 C 
ATOM     19  C   UNL d   1       3.227  -1.267  -0.879  0.00  0.00     0.050 C 
BRANCH  18  20
ATOM     20  O   UNL d   1       1.180  -0.114   0.052  0.00  0.00    -0.337 OA
BRANCH  20  21
ATOM     21  C   UNL d   1       0.478  -1.250   0.362  0.00  0.00     0.070 C 
ATOM     22  C   UNL d   1       1.031  -2.477   0.709  0.00  0.00     0.037 C 
ATOM     23  C   UNL d   1       0.286  -3.655   0.632  0.00  0.00     0.003 C 
ATOM     24  C   UNL d   1      -1.091  -3.586   0.505  0.00  0.00     0.000 C 
ATOM     25  C   UNL d   1      -1.700  -2.339   0.377  0.00  0.00     0.003 C 
ATOM     26  C   UNL d   1      -0.915  -1.180   0.266  0.00  0.00     0.037 C 
ENDBRANCH  20  21
ENDBRANCH  18  20
ENDBRANCH   1  18
TORSDOF 6
