@<TRIPOS>MOLECULE
*****
 27 28 0 0 0
SMALL
GASTEIGER

@<TRIPOS>ATOM
      1 O           1.0544   -0.1357    0.0102 O.2     1  UNL1       -0.2697
      2 C           2.2832   -0.0695    0.0700 C.2     1  UNL1        0.2518
      3 N           2.9936    0.5892    1.0700 N.am    1  UNL1       -0.2814
      4 C           2.3668    1.2490    2.1583 C.ar    1  UNL1        0.0338
      5 C           1.2337    0.7144    2.7861 C.ar    1  UNL1       -0.0378
      6 C           0.6496    1.3621    3.8797 C.ar    1  UNL1       -0.0247
      7 C           1.1843    2.5599    4.3312 C.ar    1  UNL1        0.1235
      8 F           0.6221    3.1848    5.3747 F       1  UNL1       -0.2055
      9 C           2.2994    3.1159    3.7145 C.ar    1  UNL1       -0.0247
     10 C           2.9050    2.4500    2.6393 C.ar    1  UNL1       -0.0378
     11 C           3.0806   -0.7385   -0.9987 C.ar    1  UNL1        0.0797
     12 C           4.0986   -1.6291   -0.6323 C.ar    1  UNL1       -0.0277
     13 C           4.7412   -2.3898   -1.6137 C.ar    1  UNL1        0.0419
     14 CL          5.9704   -3.5058   -1.1597 Cl      1  UNL1       -0.0835
     15 C           4.3849   -2.2776   -2.9576 C.ar    1  UNL1       -0.0399
     16 C           3.3822   -1.3846   -3.3330 C.ar    1  UNL1       -0.0180
     17 C           2.7376   -0.6154   -2.3577 C.ar    1  UNL1        0.1290
     18 O           1.7863    0.2820   -2.7541 O.3     1  UNL1       -0.5060
     19 H           3.9709    0.7962    0.9046 H       1  UNL1        0.1551
     20 H           0.8096   -0.2296    2.4534 H       1  UNL1        0.0637
     21 H          -0.2160    0.9358    4.3766 H       1  UNL1        0.0647
     22 H           2.6821    4.0672    4.0719 H       1  UNL1        0.0647
     23 H           3.7562    2.9164    2.1513 H       1  UNL1        0.0637
     24 H           4.3563   -1.7723    0.4130 H       1  UNL1        0.0641
     25 H           4.8779   -2.8853   -3.7139 H       1  UNL1        0.0633
     26 H           3.1119   -1.3084   -4.3834 H       1  UNL1        0.0655
     27 H           1.6136    0.1893   -3.7055 H       1  UNL1        0.2922
@<TRIPOS>BOND
     1     1     2    2
     2     2     3   am
     3     3     4    1
     4     4     5   ar
     5     5     6   ar
     6     6     7   ar
     7     7     8    1
     8     7     9   ar
     9     9    10   ar
    10     4    10   ar
    11     2    11    1
    12    11    12   ar
    13    12    13   ar
    14    13    14    1
    15    13    15   ar
    16    15    16   ar
    17    16    17   ar
    18    11    17   ar
    19    17    18    1
    20     3    19    1
    21     5    20    1
    22     6    21    1
    23     9    22    1
    24    10    23    1
    25    12    24    1
    26    15    25    1
    27    16    26    1
    28    18    27    1
