@<TRIPOS>MOLECULE
*****
 70 72 0 0 0
SMALL
GASTEIGER

@<TRIPOS>ATOM
      1 C           1.1104   -0.0269   -0.0158 C.3     1  UNL1       -0.0307
      2 C           2.6280   -0.0454    0.0048 C.3     1  UNL1        0.0868
      3 O           3.0792    0.1867    1.3489 O.3     1  UNL1       -0.4922
      4 C           4.4296    0.3587    1.5043 C.ar    1  UNL1        0.1225
      5 C           5.0162   -0.0547    2.6857 C.ar    1  UNL1       -0.0164
      6 C           6.3761    0.2111    2.9152 C.ar    1  UNL1       -0.0146
      7 C           7.1911    0.8487    1.9461 C.ar    1  UNL1        0.1418
      8 O           8.5116    0.9145    2.3480 O.3     1  UNL1       -0.4904
      9 C           9.4586    1.4123    1.4176 C.3     1  UNL1        0.0869
     10 C          10.8895    1.3265    1.8959 C.3     1  UNL1       -0.0307
     11 C           6.5857    1.3013    0.7497 C.ar    1  UNL1        0.0791
     12 N           7.2456    2.0468   -0.2785 N.am    1  UNL1       -0.2825
     13 C           6.6984    2.5379   -1.4490 C.2     1  UNL1        0.2181
     14 O           5.5334    2.3973   -1.8289 O.2     1  UNL1       -0.2754
     15 C           7.6730    3.3047   -2.3195 C.3     1  UNL1        0.0336
     16 C           6.9189    3.7849   -3.5718 C.3     1  UNL1        0.0080
     17 S           8.0327    4.7736   -4.6481 S.3     1  UNL1       -0.1053
     18 C           6.9834    5.1865   -6.0394 C.ar    1  UNL1        0.1025
     19 C           6.4211    4.1969   -6.8009 C.ar    1  UNL1       -0.0083
     20 C           5.5750    4.5513   -7.8425 C.ar    1  UNL1        0.0479
     21 C           4.8417    3.5122   -8.6710 C.3     1  UNL1       -0.0079
     22 C           4.9758    2.0786   -8.1176 C.3     1  UNL1       -0.0413
     23 C           4.3481    1.9489   -6.7176 C.3     1  UNL1       -0.0623
     24 C           4.3161    1.0529   -9.0303 C.3     1  UNL1       -0.0623
     25 N           5.3675    5.8404   -8.1539 N.ar    1  UNL1       -0.2155
     26 C           6.0546    6.7551   -7.4269 C.ar    1  UNL1        0.2528
     27 N           6.0143    8.1129   -7.8728 N.ar    1  UNL1       -0.2024
     28 N           4.8392    8.7910   -8.0239 N.ar    1  UNL1       -0.1689
     29 C           5.2095   10.0246   -8.3819 C.ar    1  UNL1        0.0607
     30 C           4.2164   11.1072   -8.5672 C.3     1  UNL1       -0.0206
     31 C           6.6003   10.1230   -8.5747 C.ar    1  UNL1       -0.0178
     32 C           7.1057    8.8914   -8.2288 C.ar    1  UNL1        0.0453
     33 C           8.4965    8.3827   -8.2933 C.3     1  UNL1       -0.0221
     34 N           6.8738    6.4732   -6.3821 N.ar    1  UNL1       -0.2043
     35 C           5.2177    1.0288    0.5793 C.ar    1  UNL1        0.0049
     36 H           0.7350   -0.2917   -1.0095 H       1  UNL1        0.0262
     37 H           0.7351    0.9708    0.2380 H       1  UNL1        0.0262
     38 H           0.7041   -0.7252    0.7198 H       1  UNL1        0.0262
     39 H           2.9567    0.7164   -0.7094 H       1  UNL1        0.0694
     40 H           2.9934   -1.0251   -0.3200 H       1  UNL1        0.0694
     41 H           4.4216   -0.5872    3.4234 H       1  UNL1        0.0655
     42 H           6.8009   -0.0807    3.8754 H       1  UNL1        0.0656
     43 H           9.2702    2.4814    1.2871 H       1  UNL1        0.0694
     44 H           9.3969    0.8452    0.4809 H       1  UNL1        0.0694
     45 H          11.0154    1.8889    2.8239 H       1  UNL1        0.0262
     46 H          11.5452    1.7628    1.1321 H       1  UNL1        0.0262
     47 H          11.1915    0.2919    2.0697 H       1  UNL1        0.0262
     48 H           8.2044    2.3029   -0.1475 H       1  UNL1        0.1549
     49 H           8.5010    2.6369   -2.5886 H       1  UNL1        0.0367
     50 H           8.0692    4.1521   -1.7477 H       1  UNL1        0.0367
     51 H           6.0614    4.4000   -3.2700 H       1  UNL1        0.0385
     52 H           6.5224    2.9103   -4.1054 H       1  UNL1        0.0385
     53 H           6.6373    3.1697   -6.5517 H       1  UNL1        0.0662
     54 H           5.2310    3.5521   -9.6990 H       1  UNL1        0.0331
     55 H           3.7787    3.7828   -8.7315 H       1  UNL1        0.0331
     56 H           6.0438    1.8210   -8.0810 H       1  UNL1        0.0299
     57 H           3.2697    2.1176   -6.7630 H       1  UNL1        0.0232
     58 H           4.7207    2.6628   -5.9801 H       1  UNL1        0.0232
     59 H           4.5514    0.9581   -6.3038 H       1  UNL1        0.0232
     60 H           3.2370    1.2219   -9.0871 H       1  UNL1        0.0232
     61 H           4.4840    0.0456   -8.6323 H       1  UNL1        0.0232
     62 H           4.7318    1.0892  -10.0412 H       1  UNL1        0.0232
     63 H           3.2034   10.7882   -8.3053 H       1  UNL1        0.0293
     64 H           4.2180   11.4401   -9.6095 H       1  UNL1        0.0293
     65 H           4.4771   11.9636   -7.9356 H       1  UNL1        0.0293
     66 H           7.1601   10.9764   -8.9293 H       1  UNL1        0.0654
     67 H           9.1668    9.1647   -8.6658 H       1  UNL1        0.0293
     68 H           8.5706    7.5326   -8.9804 H       1  UNL1        0.0293
     69 H           8.8559    8.0780   -7.3074 H       1  UNL1        0.0293
     70 H           4.7126    1.3852   -0.2961 H       1  UNL1        0.0674
@<TRIPOS>BOND
     1     1     2    1
     2     2     3    1
     3     3     4    1
     4     4     5   ar
     5     5     6   ar
     6     6     7   ar
     7     7     8    1
     8     8     9    1
     9     9    10    1
    10     7    11   ar
    11    11    12    1
    12    12    13   am
    13    13    14    2
    14    13    15    1
    15    15    16    1
    16    16    17    1
    17    17    18    1
    18    18    19   ar
    19    19    20   ar
    20    20    21    1
    21    21    22    1
    22    22    23    1
    23    22    24    1
    24    20    25   ar
    25    25    26   ar
    26    26    27    1
    27    27    28   ar
    28    28    29   ar
    29    29    30    1
    30    29    31   ar
    31    31    32   ar
    32    27    32   ar
    33    32    33    1
    34    26    34   ar
    35    18    34   ar
    36    11    35   ar
    37     4    35   ar
    38     1    36    1
    39     1    37    1
    40     1    38    1
    41     2    39    1
    42     2    40    1
    43     5    41    1
    44     6    42    1
    45     9    43    1
    46     9    44    1
    47    10    45    1
    48    10    46    1
    49    10    47    1
    50    12    48    1
    51    15    49    1
    52    15    50    1
    53    16    51    1
    54    16    52    1
    55    19    53    1
    56    21    54    1
    57    21    55    1
    58    22    56    1
    59    23    57    1
    60    23    58    1
    61    23    59    1
    62    24    60    1
    63    24    61    1
    64    24    62    1
    65    30    63    1
    66    30    64    1
    67    30    65    1
    68    31    66    1
    69    33    67    1
    70    33    68    1
    71    33    69    1
    72    35    70    1
