@<TRIPOS>MOLECULE
*****
 56 59 0 0 0
SMALL
GASTEIGER

@<TRIPOS>ATOM
      1 C           2.4733   -0.0017   -0.0136 C.3     1  UNL1       -0.0397
      2 C           0.9719   -0.0081    0.0009 C.ar    1  UNL1       -0.0504
      3 C           0.2519   -1.2109    0.0111 C.ar    1  UNL1       -0.0580
      4 C          -1.1480   -1.2025    0.0152 C.ar    1  UNL1       -0.0466
      5 C          -1.8334    0.0136   -0.0020 C.ar    1  UNL1        0.0677
      6 C          -3.3097    0.0238   -0.0694 C.2     1  UNL1        0.3449
      7 N          -4.0547   -0.5546    0.8607 N.2     1  UNL1        0.0444
      8 N          -5.3418   -0.3245    0.4675 N.pl3   1  UNL1       -0.1245
      9 C          -5.4158    0.3655   -0.7977 C.3     1  UNL1        0.2379
     10 S          -6.3748    1.8673   -0.7296 S.3     1  UNL1       -0.0828
     11 C          -7.4005    1.6397   -2.2606 C.3     1  UNL1        0.0756
     12 C          -8.6643    2.4672   -2.1112 C.2     1  UNL1        0.2251
     13 O          -8.9555    2.9212   -1.0082 O.2     1  UNL1       -0.2748
     14 N          -9.4701    2.6175   -3.2249 N.am    1  UNL1       -0.2855
     15 C         -10.6068    3.5252   -3.2974 C.3     1  UNL1        0.1565
     16 O         -11.7811    2.7111   -3.5556 O.3     1  UNL1       -0.3472
     17 C         -12.7285    2.9104   -2.4713 C.3     1  UNL1        0.0818
     18 C         -13.0789    1.5716   -1.8466 C.3     1  UNL1       -0.0346
     19 C         -12.0610    3.8468   -1.5405 C.2     1  UNL1       -0.0111
     20 C         -10.9171    4.2582   -2.0698 C.2     1  UNL1        0.0652
     21 C         -10.0421    5.1860   -1.3650 C.2     1  UNL1        0.2578
     22 O          -9.0255    5.6445   -1.8913 O.2     1  UNL1       -0.2691
     23 N         -10.4022    5.4653   -0.0663 N.am    1  UNL1       -0.2465
     24 N         -11.6293    5.1189    0.5525 N.3     1  UNL1       -0.2334
     25 C         -12.5555    4.2595   -0.2112 C.3     1  UNL1        0.0464
     26 C         -13.8534    5.0288   -0.4239 C.3     1  UNL1       -0.0442
     27 N          -4.0289    0.6055   -1.1054 N.pl3   1  UNL1       -0.1907
     28 C          -3.5704    1.4940   -2.1274 C.3     1  UNL1        0.0724
     29 C          -1.1254    1.2169    0.0063 C.ar    1  UNL1       -0.0466
     30 C           0.2716    1.2052    0.0049 C.ar    1  UNL1       -0.0580
     31 H           2.8809   -1.0178   -0.0002 H       1  UNL1        0.0278
     32 H           2.8597    0.5261    0.8646 H       1  UNL1        0.0278
     33 H           2.8391    0.4942   -0.9188 H       1  UNL1        0.0278
     34 H           0.7765   -2.1639    0.0128 H       1  UNL1        0.0620
     35 H          -1.6977   -2.1402    0.0161 H       1  UNL1        0.0626
     36 H          -6.1474   -0.5499    1.0324 H       1  UNL1        0.1999
     37 H          -5.8489   -0.3143   -1.5337 H       1  UNL1        0.1142
     38 H          -7.7163    0.5983   -2.3510 H       1  UNL1        0.0473
     39 H          -6.8246    1.9499   -3.1379 H       1  UNL1        0.0473
     40 H          -9.3379    2.0374   -4.0395 H       1  UNL1        0.1515
     41 H         -10.4725    4.1909   -4.1557 H       1  UNL1        0.0863
     42 H         -13.6340    3.3725   -2.8871 H       1  UNL1        0.0642
     43 H         -12.1757    1.0489   -1.5167 H       1  UNL1        0.0258
     44 H         -13.5779    0.9271   -2.5774 H       1  UNL1        0.0258
     45 H         -13.7487    1.6906   -0.9878 H       1  UNL1        0.0258
     46 H          -9.6897    5.9333    0.4869 H       1  UNL1        0.1693
     47 H         -12.0992    5.9988    0.7691 H       1  UNL1        0.1449
     48 H         -12.7388    3.3642    0.3973 H       1  UNL1        0.0521
     49 H         -13.6697    5.9090   -1.0532 H       1  UNL1        0.0248
     50 H         -14.2694    5.3671    0.5286 H       1  UNL1        0.0248
     51 H         -14.6089    4.4134   -0.9229 H       1  UNL1        0.0248
     52 H          -4.3681    1.7615   -2.8266 H       1  UNL1        0.0690
     53 H          -2.7760    1.0236   -2.7115 H       1  UNL1        0.0690
     54 H          -3.1916    2.4235   -1.6912 H       1  UNL1        0.0690
     55 H          -1.6548    2.1645    0.0285 H       1  UNL1        0.0626
     56 H           0.8118    2.1493    0.0095 H       1  UNL1        0.0620
@<TRIPOS>BOND
     1     1     2    1
     2     2     3   ar
     3     3     4   ar
     4     4     5   ar
     5     5     6    1
     6     6     7    2
     7     7     8    1
     8     8     9    1
     9    10    11    1
    10    11    12    1
    11    12    13    2
    12    12    14   am
    13    14    15    1
    14    15    16    1
    15    16    17    1
    16    17    19    1
    17    19    20    2
    18    15    20    1
    19    20    21    1
    20    21    22    2
    21    21    23   am
    22    23    24    1
    23    24    25    1
    24    19    25    1
    25    25    26    1
    26     9    27    1
    27     6    27    1
    28    27    28    1
    29     5    29   ar
    30    29    30   ar
    31     2    30   ar
    32    17    18    1
    33     9    10    1
    34     1    31    1
    35     1    32    1
    36     1    33    1
    37     3    34    1
    38     4    35    1
    39     8    36    1
    40     9    37    1
    41    11    38    1
    42    11    39    1
    43    14    40    1
    44    15    41    1
    45    17    42    1
    46    18    43    1
    47    18    44    1
    48    18    45    1
    49    23    46    1
    50    24    47    1
    51    25    48    1
    52    26    49    1
    53    26    50    1
    54    26    51    1
    55    28    52    1
    56    28    53    1
    57    28    54    1
    58    29    55    1
    59    30    56    1
