@<TRIPOS>MOLECULE
*****
 56 59 0 0 0
SMALL
GASTEIGER

@<TRIPOS>ATOM
      1 C          -0.9109    2.6515  -10.5270 C.3     1  UNL1       -0.0612
      2 C          -1.2699    1.1826  -10.1944 C.3     1  UNL1       -0.0288
      3 C          -2.7472    1.1310   -9.9631 C.ar    1  UNL1       -0.0264
      4 C          -3.4465    0.5186  -11.0180 C.ar    1  UNL1       -0.0568
      5 C          -4.8166    0.6256  -11.1054 C.ar    1  UNL1       -0.0614
      6 C          -5.5053    1.2550  -10.0759 C.ar    1  UNL1       -0.0600
      7 C          -4.8192    1.7940   -8.9635 C.ar    1  UNL1       -0.0402
      8 C          -3.4136    1.7419   -8.8694 C.ar    1  UNL1        0.0366
      9 N          -2.7884    2.2975   -7.6773 N.am    1  UNL1       -0.2846
     10 C          -1.4264    2.4018   -7.3975 C.2     1  UNL1        0.2273
     11 O          -0.5224    2.1979   -8.1789 O.2     1  UNL1       -0.2746
     12 C          -0.9394    2.8691   -6.0324 C.3     1  UNL1        0.0782
     13 S           0.7891    2.1904   -5.9366 S.3     1  UNL1       -0.0541
     14 C           1.7426    3.2893   -4.8720 C.3     1  UNL1        0.3258
     15 N           0.9052    4.3888   -4.3484 N.2     1  UNL1       -0.0163
     16 C           1.3715    5.5620   -4.5517 C.2     1  UNL1        0.4088
     17 N           0.7028    6.7182   -4.2156 N.2     1  UNL1        0.0863
     18 N           1.4431    7.6989   -4.5168 N.2     1  UNL1       -0.0388
     19 C           2.6108    7.2297   -5.0528 C.2     1  UNL1        0.1084
     20 C           3.7191    8.1280   -5.4542 C.3     1  UNL1       -0.0175
     21 C           2.6400    5.9079   -5.1347 C.2     1  UNL1        0.1883
     22 C           3.5624    4.8769   -5.5589 C.2     1  UNL1        0.3314
     23 N           4.7335    5.1729   -6.0378 N.2     1  UNL1       -0.0985
     24 N           3.1088    3.5751   -5.4252 N.pl3   1  UNL1       -0.1337
     25 C           3.9773    2.5260   -5.8130 C.ar    1  UNL1        0.1294
     26 C           5.2552    2.4100   -5.2515 C.ar    1  UNL1       -0.0165
     27 C           6.2052    1.5475   -5.8054 C.ar    1  UNL1       -0.0545
     28 C           5.8605    0.7036   -6.8652 C.ar    1  UNL1       -0.0197
     29 C           4.5935    0.7814   -7.4328 C.ar    1  UNL1        0.1239
     30 O           4.3293   -0.0343   -8.5035 O.3     1  UNL1       -0.4950
     31 C           3.0303    0.1037   -9.0923 C.3     1  UNL1        0.0788
     32 C           3.6952    1.7153   -6.9228 C.ar    1  UNL1        0.0250
     33 H           0.1654    2.8289  -10.4453 H       1  UNL1        0.0233
     34 H          -1.4104    3.3982   -9.8854 H       1  UNL1        0.0233
     35 H          -1.2404    2.9044  -11.5356 H       1  UNL1        0.0233
     36 H          -0.8387    0.6518   -9.3378 H       1  UNL1        0.0311
     37 H          -0.9027    0.5544  -11.0088 H       1  UNL1        0.0311
     38 H          -2.8897   -0.0050  -11.7940 H       1  UNL1        0.0621
     39 H          -5.3222    0.2418  -11.9866 H       1  UNL1        0.0618
     40 H          -6.5889    1.3149  -10.1438 H       1  UNL1        0.0618
     41 H          -5.4217    2.2767   -8.1980 H       1  UNL1        0.0636
     42 H          -3.4258    2.6686   -6.9862 H       1  UNL1        0.1548
     43 H          -1.4693    2.3774   -5.2259 H       1  UNL1        0.0474
     44 H          -1.0058    3.9598   -6.0281 H       1  UNL1        0.0474
     45 H           1.9173    2.6285   -4.0178 H       1  UNL1        0.1471
     46 H           3.4869    9.1801   -5.2878 H       1  UNL1        0.0294
     47 H           3.9418    7.9916   -6.5186 H       1  UNL1        0.0294
     48 H           4.6204    7.8863   -4.8775 H       1  UNL1        0.0294
     49 H           4.9307    6.1667   -6.0909 H       1  UNL1        0.3633
     50 H           5.5403    3.0567   -4.4248 H       1  UNL1        0.0658
     51 H           7.2250    1.5675   -5.4319 H       1  UNL1        0.0620
     52 H           6.5949    0.0117   -7.2657 H       1  UNL1        0.0654
     53 H           2.9581   -0.5870   -9.9367 H       1  UNL1        0.0660
     54 H           2.8766    1.1151   -9.4889 H       1  UNL1        0.0660
     55 H           2.2399   -0.1605   -8.3793 H       1  UNL1        0.0660
     56 H           2.7711    1.8677   -7.4582 H       1  UNL1        0.0695
@<TRIPOS>BOND
     1     1     2    1
     2     2     3    1
     3     3     4   ar
     4     4     5   ar
     5     5     6   ar
     6     6     7   ar
     7     7     8   ar
     8     3     8   ar
     9     8     9    1
    10     9    10   am
    11    10    11    2
    12    10    12    1
    13    12    13    1
    14    14    15    1
    15    15    16    2
    16    16    17    1
    17    17    18    2
    18    18    19    1
    19    19    20    1
    20    19    21    2
    21    16    21    1
    22    21    22    1
    23    22    23    2
    24    22    24    1
    25    14    24    1
    26    24    25    1
    27    25    26   ar
    28    26    27   ar
    29    27    28   ar
    30    28    29   ar
    31    29    30    1
    32    30    31    1
    33    29    32   ar
    34    25    32   ar
    35    14    13    1
    36     1    33    1
    37     1    34    1
    38     1    35    1
    39     2    36    1
    40     2    37    1
    41     4    38    1
    42     5    39    1
    43     6    40    1
    44     7    41    1
    45     9    42    1
    46    12    43    1
    47    12    44    1
    48    14    45    1
    49    20    46    1
    50    20    47    1
    51    20    48    1
    52    23    49    1
    53    26    50    1
    54    27    51    1
    55    28    52    1
    56    31    53    1
    57    31    54    1
    58    31    55    1
    59    32    56    1
