REMARK  3 active torsions:
REMARK  status: ('A' for Active; 'I' for Inactive)
REMARK    1  A    between atoms: C_5  and  C_6 
REMARK       I    between atoms: C_6  and  N_7 
REMARK    2  A    between atoms: C_10  and  N_11 
REMARK       I    between atoms: N_11  and  C_12 
REMARK    3  A    between atoms: C_12  and  C_14 
ROOT
ATOM      1  C   UNL d   1       2.452  -0.352   0.495  0.00  0.00     0.050 C 
ATOM      2  C   UNL d   1       0.987  -0.114   0.294  0.00  0.00    -0.035 C 
ATOM      3  C   UNL d   1       0.226  -1.276   0.149  0.00  0.00     0.010 C 
ATOM      4  C   UNL d   1      -1.155  -1.231   0.037  0.00  0.00     0.017 C 
ATOM      5  C   UNL d   1      -1.825  -0.010   0.053  0.00  0.00     0.034 C 
ATOM      6  C   UNL d   1      -1.068   1.181   0.115  0.00  0.00     0.047 C 
ATOM      7  C   UNL d   1       0.350   1.140   0.179  0.00  0.00     0.042 C 
ENDROOT
BRANCH   7   8
ATOM      8  N   UNL d   1       1.053   2.370   0.033  0.00  0.00    -0.322 N 
ATOM      9  C   UNL d   1       2.402   2.581  -0.214  0.00  0.00     0.258 C 
ATOM     10  O   UNL d   1       3.023   3.370   0.500  0.00  0.00    -0.267 OA
ATOM     11  H   UNL d   1       0.536   3.226   0.213  0.00  0.00     0.169 HD
BRANCH   9  12
ATOM     12  C   UNL d   1       3.139   1.849  -1.324  0.00  0.00     0.055 C 
ATOM     13  C   UNL d   1       4.542   1.708  -1.130  0.00  0.00     0.019 C 
ATOM     14  C   UNL d   1       5.289   0.785  -1.874  0.00  0.00     0.003 C 
ATOM     15  C   UNL d   1       4.644  -0.060  -2.770  0.00  0.00     0.026 C 
ATOM     16  C   UNL d   1       3.269   0.070  -2.986  0.00  0.00     0.056 C 
ATOM     17 CL   UNL d   1       2.514  -1.200  -3.901  0.00  0.00    -0.083 Cl
ATOM     18  C   UNL d   1       2.523   1.088  -2.351  0.00  0.00     0.071 C 
ATOM     19 CL   UNL d   1       0.860   1.266  -2.818  0.00  0.00    -0.081 Cl
ENDBRANCH   9  12
ENDBRANCH   7   8
BRANCH   5  20
ATOM     20  C   UNL d   1      -3.322   0.040  -0.033  0.00  0.00     0.249 C 
ATOM     21  N   UNL d   1      -4.006  -1.158  -0.066  0.00  0.00    -0.366 N 
ATOM     22  H   UNL d   1      -3.594  -2.075  -0.042  0.00  0.00     0.159 HD
ATOM     23  H   UNL d   1      -5.016  -1.116  -0.095  0.00  0.00     0.159 HD
ATOM     24  O   UNL d   1      -3.929   1.091  -0.060  0.00  0.00    -0.268 OA
ENDBRANCH   5  20
TORSDOF 3
