@<TRIPOS>MOLECULE
*****
 50 51 0 0 0
SMALL
GASTEIGER

@<TRIPOS>ATOM
      1 C           1.8512    1.4485   -0.0116 C.3     1  UNL1       -0.0394
      2 C           0.5607    0.6601    0.0155 C.ar    1  UNL1       -0.0454
      3 C          -0.6226    1.4005    0.0529 C.ar    1  UNL1       -0.0521
      4 C          -1.8475    0.7624    0.0387 C.ar    1  UNL1        0.0178
      5 C          -1.9273   -0.6339   -0.0483 C.ar    1  UNL1        0.2944
      6 N          -3.2856   -1.1099   -0.3563 N.pl3   1  UNL1        0.0815
      7 O          -3.4254   -1.9217   -1.2767 O.2     1  UNL1        0.0415
      8 O          -4.2284   -0.5391    0.2348 O.co2   1  UNL1       -0.5760
      9 C          -0.7584   -1.4458   -0.0382 C.ar    1  UNL1        0.1147
     10 N          -0.7795   -2.8757   -0.0913 N.am    1  UNL1       -0.2784
     11 C          -1.8670   -3.6723    0.2395 C.2     1  UNL1        0.2373
     12 O          -2.8369   -3.2738    0.8881 O.2     1  UNL1       -0.2734
     13 C          -1.7345   -5.1736   -0.0526 C.3     1  UNL1        0.0948
     14 C          -0.9666   -5.6073    1.1880 C.3     1  UNL1       -0.0381
     15 N          -3.1030   -5.7182   -0.2840 N.pl3   1  UNL1       -0.3331
     16 C          -3.4840   -7.0404   -0.1685 C.ar    1  UNL1        0.0294
     17 C          -4.5062   -7.5787   -0.9361 C.ar    1  UNL1       -0.0407
     18 C          -4.8601   -8.9326   -0.7944 C.ar    1  UNL1       -0.0583
     19 C          -4.1506   -9.7842    0.0798 C.ar    1  UNL1       -0.0404
     20 C          -3.1631   -9.2497    0.9015 C.ar    1  UNL1        0.0352
     21 N          -2.4352  -10.0182    1.8636 N.am    1  UNL1       -0.2836
     22 C          -1.4253   -9.5100    2.6931 C.2     1  UNL1        0.2427
     23 O          -0.9734   -8.3642    2.6993 O.2     1  UNL1       -0.2730
     24 C          -0.7769  -10.4865    3.6666 C.3     1  UNL1        0.1205
     25 O           0.2434   -9.8392    4.4357 O.3     1  UNL1       -0.3858
     26 C          -2.9304   -7.8861    0.7795 C.ar    1  UNL1       -0.0196
     27 C           0.5131   -0.7706   -0.0022 C.ar    1  UNL1       -0.0197
     28 C           1.8544   -1.4814    0.0220 C.3     1  UNL1       -0.0375
     29 H           1.6566    2.5290   -0.0263 H       1  UNL1        0.0278
     30 H           2.4269    1.2226   -0.9144 H       1  UNL1        0.0278
     31 H           2.4507    1.2444    0.8795 H       1  UNL1        0.0278
     32 H          -0.6069    2.4883    0.0597 H       1  UNL1        0.0622
     33 H          -2.7509    1.3697    0.0369 H       1  UNL1        0.0686
     34 H           0.1027   -3.3630   -0.1753 H       1  UNL1        0.1551
     35 H          -1.1472   -5.3717   -0.9569 H       1  UNL1        0.0591
     36 H          -1.5522   -5.3991    2.0950 H       1  UNL1        0.0252
     37 H          -0.0225   -5.0623    1.2889 H       1  UNL1        0.0252
     38 H          -0.6601   -6.6467    1.1469 H       1  UNL1        0.0252
     39 H          -3.8374   -5.0479   -0.0349 H       1  UNL1        0.1468
     40 H          -5.0215   -6.9512   -1.6607 H       1  UNL1        0.0636
     41 H          -5.6959   -9.3168   -1.3761 H       1  UNL1        0.0619
     42 H          -4.4155  -10.8361    0.1099 H       1  UNL1        0.0636
     43 H          -2.6741  -10.9995    1.9322 H       1  UNL1        0.1549
     44 H          -0.2960  -11.2911    3.1120 H       1  UNL1        0.0654
     45 H          -1.5260  -10.8656    4.3625 H       1  UNL1        0.0654
     46 H           0.6949   -9.2205    3.8249 H       1  UNL1        0.2100
     47 H          -2.3375   -7.4203    1.5300 H       1  UNL1        0.0655
     48 H           1.7947   -2.5688    0.0376 H       1  UNL1        0.0278
     49 H           2.4176   -1.1930    0.9185 H       1  UNL1        0.0278
     50 H           2.4430   -1.2088   -0.8619 H       1  UNL1        0.0278
@<TRIPOS>UNITY_ATOM_ATTR
6 1
charge 1
8 1
charge -1
@<TRIPOS>BOND
     1     1     2    1
     2     2     3   ar
     3     3     4   ar
     4     4     5   ar
     5     5     6    1
     6     6     7    2
     7     6     8    1
     8     5     9   ar
     9     9    10    1
    10    10    11   am
    11    11    12    2
    12    11    13    1
    13    13    14    1
    14    13    15    1
    15    15    16    1
    16    16    17   ar
    17    17    18   ar
    18    18    19   ar
    19    19    20   ar
    20    20    21    1
    21    21    22   am
    22    22    23    2
    23    22    24    1
    24    24    25    1
    25    20    26   ar
    26    16    26   ar
    27     9    27   ar
    28     2    27   ar
    29    27    28    1
    30     1    29    1
    31     1    30    1
    32     1    31    1
    33     3    32    1
    34     4    33    1
    35    10    34    1
    36    13    35    1
    37    14    36    1
    38    14    37    1
    39    14    38    1
    40    15    39    1
    41    17    40    1
    42    18    41    1
    43    19    42    1
    44    21    43    1
    45    24    44    1
    46    24    45    1
    47    25    46    1
    48    26    47    1
    49    28    48    1
    50    28    49    1
    51    28    50    1
