REMARK  3 active torsions:
REMARK  status: ('A' for Active; 'I' for Inactive)
REMARK    1  A    between atoms: C_5  and  N_6 
REMARK       I    between atoms: N_6  and  C_7 
REMARK    2  A    between atoms: C_7  and  C_9 
REMARK    3  A    between atoms: C_14  and  O_15 
ROOT
ATOM      1  N   UNL d   1      -3.130  -1.349  -0.072  0.00  0.00    -0.323 N 
ATOM      2  C   UNL d   1      -4.376  -0.731  -0.116  0.00  0.00     0.259 C 
ATOM      3  O   UNL d   1      -4.603   0.480  -0.138  0.00  0.00    -0.267 OA
ATOM      4  H   UNL d   1      -3.117  -2.364  -0.056  0.00  0.00     0.169 HD
ENDROOT
BRANCH   1   5
ATOM      5  C   UNL d   1      -1.883  -0.671  -0.025  0.00  0.00     0.035 A 
ATOM      6  C   UNL d   1      -1.814   0.720   0.017  0.00  0.00     0.030 A 
ATOM      7  C   UNL d   1      -0.601   1.396   0.024  0.00  0.00     0.009 A 
ATOM      8  C   UNL d   1       0.602   0.697   0.002  0.00  0.00    -0.056 A 
ATOM      9  C   UNL d   1       1.880   1.487  -0.015  0.00  0.00     0.049 C 
ATOM     10  C   UNL d   1       0.573  -0.712  -0.001  0.00  0.00    -0.054 A 
ATOM     11  C   UNL d   1      -0.675  -1.387  -0.019  0.00  0.00     0.037 A 
ATOM     12  C   UNL d   1       1.863  -1.490   0.021  0.00  0.00     0.049 C 
ENDBRANCH   1   5
BRANCH   2  13
ATOM     13  C   UNL d   1      -5.580  -1.585  -0.179  0.00  0.00     0.065 A 
ATOM     14  C   UNL d   1      -6.626  -1.159  -1.019  0.00  0.00     0.020 A 
ATOM     15  C   UNL d   1      -7.836  -1.848  -1.050  0.00  0.00     0.001 A 
ATOM     16  C   UNL d   1      -8.019  -2.948  -0.216  0.00  0.00     0.003 A 
ATOM     17  C   UNL d   1      -6.991  -3.366   0.640  0.00  0.00     0.037 A 
ATOM     18  C   UNL d   1      -5.767  -2.692   0.648  0.00  0.00     0.081 A 
BRANCH  18  19
ATOM     19  O   UNL d   1      -4.758  -3.098   1.475  0.00  0.00    -0.360 OA
ATOM     20  H   UNL d   1      -5.075  -3.818   2.046  0.00  0.00     0.217 HD
ENDBRANCH  18  19
ENDBRANCH   2  13
TORSDOF 3
