REMARK  9 active torsions:
REMARK  status: ('A' for Active; 'I' for Inactive)
REMARK    1  A    between atoms: C_2  and  C_15 
REMARK    2  A    between atoms: C_2  and  N_3 
REMARK       I    between atoms: N_3  and  C_4 
REMARK    3  A    between atoms: C_4  and  C_6 
REMARK       I    between atoms: C_6  and  N_8 
REMARK    4  A    between atoms: N_8  and  C_9 
REMARK    5  A    between atoms: C_9  and  C_10 
REMARK    6  A    between atoms: C_10  and  C_11 
REMARK    7  A    between atoms: C_11  and  C_12 
REMARK    8  A    between atoms: C_12  and  C_13 
REMARK    9  A    between atoms: C_13  and  O_14 
ROOT
ATOM      1  N   UNL d   1       0.910  -0.109   0.016  0.00  0.00    -0.345 N 
ATOM      2  C   UNL d   1       0.136  -0.801  -0.904  0.00  0.00     0.309 C 
ATOM      3  O   UNL d   1       0.524  -1.388  -1.913  0.00  0.00    -0.262 OA
ATOM      4  H   UNL d   1       0.395   0.511   0.635  0.00  0.00     0.163 HD
ENDROOT
BRANCH   2   5
ATOM      5  C   UNL d   1      -1.384  -0.860  -0.658  0.00  0.00     0.309 C 
ATOM      6  O   UNL d   1      -1.928  -0.049   0.081  0.00  0.00    -0.262 OA
ATOM      7  N   UNL d   1      -2.014  -1.866  -1.380  0.00  0.00    -0.353 N 
ATOM      8  H   UNL d   1      -1.417  -2.430  -1.983  0.00  0.00     0.162 HD
BRANCH   7   9
ATOM      9  C   UNL d   1      -3.451  -1.946  -1.481  0.00  0.00     0.123 C 
BRANCH   9  10
ATOM     10  C   UNL d   1      -3.945  -3.064  -2.400  0.00  0.00     0.020 C 
BRANCH  10  11
ATOM     11  C   UNL d   1      -5.476  -3.088  -2.426  0.00  0.00     0.004 C 
BRANCH  11  12
ATOM     12  C   UNL d   1      -6.011  -4.197  -3.327  0.00  0.00     0.026 C 
BRANCH  12  13
ATOM     13  C   UNL d   1      -7.534  -4.205  -3.337  0.00  0.00     0.164 C 
BRANCH  13  14
ATOM     14  O   UNL d   1      -8.006  -5.253  -4.172  0.00  0.00    -0.401 OA
ATOM     15  H   UNL d   1      -7.671  -5.087  -5.069  0.00  0.00     0.209 HD
ENDBRANCH  13  14
ENDBRANCH  12  13
ENDBRANCH  11  12
ENDBRANCH  10  11
ENDBRANCH   9  10
ENDBRANCH   7   9
ENDBRANCH   2   5
BRANCH   1  16
ATOM     16  C   UNL d   1       2.398  -0.065   0.045  0.00  0.00     0.114 C 
ATOM     17  C   UNL d   1       2.866   0.990   1.077  0.00  0.00     0.037 C 
BRANCH  16  18
ATOM     18  C   UNL d   1       3.003  -1.441   0.373  0.00  0.00    -0.036 C 
ATOM     19  C   UNL d   1       2.592  -2.582  -0.325  0.00  0.00     0.009 C 
ATOM     20  C   UNL d   1       2.835  -3.869   0.133  0.00  0.00     0.001 C 
ATOM     21  C   UNL d   1       3.740  -4.056   1.157  0.00  0.00     0.000 C 
ATOM     22  C   UNL d   1       4.341  -2.950   1.746  0.00  0.00     0.001 C 
ATOM     23  C   UNL d   1       3.958  -1.655   1.378  0.00  0.00     0.009 C 
ENDBRANCH  16  18
ENDBRANCH   1  16
TORSDOF 9
