REMARK  9 active torsions:
REMARK  status: ('A' for Active; 'I' for Inactive)
REMARK    1  A    between atoms: C_8  and  O_9 
REMARK    2  A    between atoms: O_9  and  C_10 
REMARK    3  A    between atoms: C_10  and  C_11 
REMARK       I    between atoms: C_11  and  N_13 
REMARK    4  A    between atoms: N_13  and  C_14 
REMARK    5  A    between atoms: C_14  and  N_16 
REMARK    6  A    between atoms: N_16  and  N_17 
REMARK       I    between atoms: N_17  and  C_18 
REMARK    7  A    between atoms: C_18  and  C_20 
REMARK    8  A    between atoms: C_20  and  O_21 
REMARK    9  A    between atoms: O_21  and  C_22 
ROOT
ATOM      1  N   UNL d   1     -10.110  -0.777  -0.022  0.00  0.00    -0.273 N 
ATOM      2  H   UNL d   1      -9.966  -1.788  -0.018  0.00  0.00     0.189 HD
ENDROOT
BRANCH   1   3
ATOM      3  C   UNL d   1      -9.126   0.227  -0.022  0.00  0.00     0.193 C 
ATOM      4  S   UNL d   1      -9.621   1.844  -0.029  0.00  0.00    -0.039 SA
BRANCH   3   5
ATOM      5  N   UNL d   1      -7.779  -0.200  -0.017  0.00  0.00    -0.301 N 
ATOM      6  C   UNL d   1      -6.645   0.657  -0.015  0.00  0.00     0.248 C 
ATOM      7  O   UNL d   1      -6.713   1.892  -0.019  0.00  0.00    -0.271 OA
ATOM      8  H   UNL d   1      -7.604  -1.199  -0.013  0.00  0.00     0.171 HD
BRANCH   6   9
ATOM      9  C   UNL d   1      -5.250   0.016  -0.009  0.00  0.00     0.278 C 
BRANCH   9  10
ATOM     10  O   UNL d   1      -4.191   0.991  -0.004  0.00  0.00    -0.342 OA
BRANCH  10  11
ATOM     11  C   UNL d   1      -2.867   0.622  -0.004  0.00  0.00     0.075 A 
ATOM     12  C   UNL d   1      -1.959   1.708  -0.001  0.00  0.00     0.039 A 
ATOM     13  C   UNL d   1      -0.568   1.510   0.004  0.00  0.00     0.022 A 
ATOM     14  C   UNL d   1      -0.067   0.217  -0.004  0.00  0.00     0.011 A 
ATOM     15  C   UNL d   1      -0.943  -0.863  -0.012  0.00  0.00     0.028 A 
ATOM     16 BR   UNL d   1       1.796  -0.101  -0.001  0.00  0.00    -0.051 Br
ATOM     17  C   UNL d   1      -2.342  -0.680  -0.005  0.00  0.00    -0.027 A 
ATOM     18  C   UNL d   1      -3.167  -1.929   0.007  0.00  0.00     0.051 C 
ENDBRANCH  10  11
ENDBRANCH   9  10
ENDBRANCH   6   9
ENDBRANCH   3   5
ENDBRANCH   1   3
BRANCH   1  19
ATOM     19  N   UNL d   1     -11.519  -0.366  -0.027  0.00  0.00    -0.266 N 
ATOM     20  C   UNL d   1     -12.557  -1.290  -0.022  0.00  0.00     0.260 C 
ATOM     21  O   UNL d   1     -12.319  -2.499  -0.015  0.00  0.00    -0.269 OA
ATOM     22  H   UNL d   1     -11.666   0.645  -0.028  0.00  0.00     0.190 HD
BRANCH  20  23
ATOM     23  C   UNL d   1     -14.008  -0.695  -0.036  0.00  0.00     0.280 C 
BRANCH  23  24
ATOM     24  O   UNL d   1     -14.986  -1.750  -0.008  0.00  0.00    -0.341 OA
BRANCH  24  25
ATOM     25  C   UNL d   1     -16.322  -1.403  -0.005  0.00  0.00     0.080 A 
ATOM     26  C   UNL d   1     -16.846  -0.442  -0.875  0.00  0.00     0.037 A 
ATOM     27  C   UNL d   1     -18.215  -0.155  -0.870  0.00  0.00     0.004 A 
ATOM     28  C   UNL d   1     -19.077  -0.834  -0.011  0.00  0.00     0.012 A 
ATOM     29  C   UNL d   1     -18.593  -1.843   0.829  0.00  0.00    -0.023 A 
ATOM     30  C   UNL d   1     -19.479  -2.560   1.654  0.00  0.00     0.012 A 
ATOM     31  C   UNL d   1     -17.203  -2.144   0.835  0.00  0.00     0.007 A 
ATOM     32  C   UNL d   1     -19.015  -3.574   2.489  0.00  0.00     0.001 A 
ATOM     33  C   UNL d   1     -17.661  -3.885   2.504  0.00  0.00     0.001 A 
ATOM     34  C   UNL d   1     -16.768  -3.180   1.688  0.00  0.00     0.015 A 
ENDBRANCH  24  25
ENDBRANCH  23  24
ENDBRANCH  20  23
ENDBRANCH   1  19
TORSDOF 9
