@<TRIPOS>MOLECULE
*****
 63 65 0 0 0
SMALL
GASTEIGER

@<TRIPOS>ATOM
      1 C           2.3681    1.4637   -0.4138 C.3     1  UNL1       -0.0397
      2 C           1.0194    0.8209   -0.5372 C.ar    1  UNL1       -0.0502
      3 C           0.8669   -0.4333   -1.0886 C.ar    1  UNL1       -0.0585
      4 C          -0.3241   -1.1360   -1.0577 C.ar    1  UNL1       -0.0558
      5 C          -1.3546   -0.7217   -0.2492 C.ar    1  UNL1       -0.0149
      6 C          -2.4989   -1.7264   -0.1380 C.3     1  UNL1        0.1326
      7 C          -3.2211   -1.4631   -1.5153 C.2     1  UNL1        0.2389
      8 O          -3.1262   -2.2526   -2.4466 O.2     1  UNL1       -0.2734
      9 N          -3.8490   -0.2341   -1.6567 N.am    1  UNL1       -0.3087
     10 C          -4.5509    0.2431   -2.8335 C.3     1  UNL1        0.0262
     11 C          -3.7075    0.0029   -4.0853 C.3     1  UNL1       -0.0442
     12 C          -5.8986   -0.4679   -2.8290 C.3     1  UNL1       -0.0442
     13 C          -4.7845    1.7698   -2.7118 C.3     1  UNL1       -0.0442
     14 N          -2.1171   -3.2620    0.1079 N.am    1  UNL1       -0.2513
     15 C          -0.7972   -3.8996    0.2010 C.2     1  UNL1        0.2520
     16 O          -0.6316   -5.1252   -0.0247 O.2     1  UNL1       -0.2696
     17 C           0.5285   -3.2312    0.5419 C.ar    1  UNL1        0.0437
     18 C           1.6710   -3.4055   -0.3009 C.ar    1  UNL1       -0.0492
     19 C           2.8492   -2.6364   -0.1166 C.ar    1  UNL1       -0.0546
     20 C           2.8903   -1.6494    0.8911 C.ar    1  UNL1        0.0156
     21 C           1.7418   -1.4387    1.6935 C.ar    1  UNL1        0.2739
     22 N           1.5552   -0.1487    2.4246 N.pl3   1  UNL1        0.0796
     23 O           2.5252    0.5990    2.5694 O.2     1  UNL1        0.0414
     24 O           0.4018    0.1241    2.8206 O.co2   1  UNL1       -0.5760
     25 C           0.6028   -2.2690    1.5561 C.ar    1  UNL1        0.0277
     26 C          -3.2850   -4.2070    0.0465 C.ar    1  UNL1        0.0391
     27 C          -3.2601   -5.4035    0.7791 C.ar    1  UNL1       -0.0401
     28 C          -4.2490   -6.3971    0.6313 C.ar    1  UNL1       -0.0586
     29 C          -5.3288   -6.2111   -0.2243 C.ar    1  UNL1       -0.0433
     30 C          -5.4157   -5.0221   -0.9153 C.ar    1  UNL1        0.0427
     31 CL         -6.6921   -4.7731   -2.0529 Cl      1  UNL1       -0.0835
     32 C          -4.4458   -4.0254   -0.7332 C.ar    1  UNL1       -0.0219
     33 C          -1.3154    0.6428    0.1047 C.ar    1  UNL1       -0.0448
     34 C          -2.5398    1.4207    0.4457 C.3     1  UNL1       -0.0394
     35 C          -0.1360    1.4115   -0.0714 C.ar    1  UNL1       -0.0556
     36 H           3.1887    0.7359   -0.3897 H       1  UNL1        0.0278
     37 H           2.4362    2.0197    0.5267 H       1  UNL1        0.0278
     38 H           2.5608    2.1361   -1.2450 H       1  UNL1        0.0278
     39 H           1.7317   -1.0082   -1.3590 H       1  UNL1        0.0620
     40 H          -0.3781   -2.1316   -1.4930 H       1  UNL1        0.0621
     41 H          -3.1583   -1.4948    0.7128 H       1  UNL1        0.0651
     42 H          -3.8861    0.4138   -0.9061 H       1  UNL1        0.1493
     43 H          -3.4667   -1.0493   -4.2393 H       1  UNL1        0.0250
     44 H          -2.7488    0.5333   -4.0017 H       1  UNL1        0.0250
     45 H          -4.2228    0.3396   -4.9849 H       1  UNL1        0.0250
     46 H          -5.7682   -1.5542   -2.8265 H       1  UNL1        0.0250
     47 H          -6.5131   -0.1845   -3.6833 H       1  UNL1        0.0250
     48 H          -6.4468   -0.2209   -1.9075 H       1  UNL1        0.0250
     49 H          -3.8361    2.3218   -2.6736 H       1  UNL1        0.0250
     50 H          -5.3365    2.0325   -1.8008 H       1  UNL1        0.0250
     51 H          -5.3520    2.1499   -3.5687 H       1  UNL1        0.0250
     52 H           1.5634   -3.9514   -1.2466 H       1  UNL1        0.0625
     53 H           3.6072   -2.6133   -0.9131 H       1  UNL1        0.0620
     54 H           3.7097   -0.9263    0.8651 H       1  UNL1        0.0685
     55 H          -0.3148   -2.0085    2.0716 H       1  UNL1        0.0693
     56 H          -2.4644   -5.5886    1.4961 H       1  UNL1        0.0636
     57 H          -4.1511   -7.3349    1.1702 H       1  UNL1        0.0619
     58 H          -6.0895   -6.9757   -0.3454 H       1  UNL1        0.0632
     59 H          -4.6628   -3.1509   -1.3155 H       1  UNL1        0.0651
     60 H          -3.3503    0.7532    0.7392 H       1  UNL1        0.0278
     61 H          -2.7898    1.9777   -0.4699 H       1  UNL1        0.0278
     62 H          -2.4086    2.1253    1.2604 H       1  UNL1        0.0278
     63 H          -0.1143    2.4640    0.1990 H       1  UNL1        0.0623
@<TRIPOS>UNITY_ATOM_ATTR
22 1
charge 1
24 1
charge -1
@<TRIPOS>BOND
     1     1     2    1
     2     2     3   ar
     3     3     4   ar
     4     4     5   ar
     5     5     6    1
     6     6     7    1
     7     7     8    2
     8     7     9   am
     9     9    10    1
    10    10    11    1
    11    10    12    1
    12    10    13    1
    13     6    14    1
    14    14    15   am
    15    15    16    2
    16    15    17    1
    17    17    18   ar
    18    18    19   ar
    19    19    20   ar
    20    20    21   ar
    21    21    22    1
    22    22    23    2
    23    22    24    1
    24    21    25   ar
    25    17    25   ar
    26    14    26    1
    27    26    27   ar
    28    27    28   ar
    29    28    29   ar
    30    29    30   ar
    31    30    31    1
    32    30    32   ar
    33    26    32   ar
    34     5    33   ar
    35    33    34    1
    36    33    35   ar
    37     2    35   ar
    38     1    36    1
    39     1    37    1
    40     1    38    1
    41     3    39    1
    42     4    40    1
    43     6    41    1
    44     9    42    1
    45    11    43    1
    46    11    44    1
    47    11    45    1
    48    12    46    1
    49    12    47    1
    50    12    48    1
    51    13    49    1
    52    13    50    1
    53    13    51    1
    54    18    52    1
    55    19    53    1
    56    20    54    1
    57    25    55    1
    58    27    56    1
    59    28    57    1
    60    29    58    1
    61    32    59    1
    62    34    60    1
    63    34    61    1
    64    34    62    1
    65    35    63    1
