REMARK  7 active torsions:
REMARK  status: ('A' for Active; 'I' for Inactive)
REMARK    1  A    between atoms: O_2  and  C_3 
REMARK    2  A    between atoms: C_3  and  C_5 
REMARK    3  A    between atoms: C_8  and  N_9 
REMARK       I    between atoms: N_9  and  C_10 
REMARK       I    between atoms: C_10  and  N_12 
REMARK    4  A    between atoms: N_12  and  C_13 
REMARK    5  A    between atoms: C_13  and  C_14 
REMARK    6  A    between atoms: C_17  and  N_18 
REMARK       I    between atoms: N_18  and  C_19 
REMARK    7  A    between atoms: C_19  and  C_21 
ROOT
ATOM      1  N   UNL d   1       1.253  -6.557   0.061  0.00  0.00    -0.308 N 
ATOM      2  C   UNL d   1       0.699  -7.097  -1.120  0.00  0.00     0.321 C 
ATOM      3  O   UNL d   1       0.919  -6.679  -2.251  0.00  0.00    -0.247 OA
ATOM      4  N   UNL d   1      -0.281  -8.073  -0.893  0.00  0.00    -0.339 N 
ATOM      5  H   UNL d   1       1.541  -7.229   0.757  0.00  0.00     0.170 HD
ATOM      6  H   UNL d   1       0.072  -8.876  -0.393  0.00  0.00     0.164 HD
ENDROOT
BRANCH   4   7
ATOM      7  C   UNL d   1      -1.317  -8.415  -1.940  0.00  0.00     0.162 C 
BRANCH   7   8
ATOM      8  C   UNL d   1      -2.194  -7.258  -2.416  0.00  0.00    -0.040 C 
ATOM      9  C   UNL d   1      -3.074  -7.238  -3.509  0.00  0.00     0.011 C 
ATOM     10  C   UNL d   1      -3.673  -6.012  -3.974  0.00  0.00     0.030 C 
ATOM     11  C   UNL d   1      -3.312  -4.786  -3.412  0.00  0.00     0.034 C 
ATOM     12  C   UNL d   1      -2.554  -4.883  -2.278  0.00  0.00     0.030 C 
ATOM     13  C   UNL d   1      -2.148  -6.084  -1.714  0.00  0.00     0.011 C 
BRANCH  11  14
ATOM     14  N   UNL d   1      -3.749  -3.494  -3.843  0.00  0.00    -0.327 N 
ATOM     15  C   UNL d   1      -3.279  -2.277  -3.309  0.00  0.00     0.225 C 
ATOM     16  O   UNL d   1      -2.359  -2.147  -2.498  0.00  0.00    -0.273 OA
ATOM     17  H   UNL d   1      -4.450  -3.469  -4.569  0.00  0.00     0.169 HD
BRANCH  15  18
ATOM     18  C   UNL d   1      -3.949  -1.000  -3.801  0.00  0.00     0.070 C 
ATOM     19  C   UNL d   1      -5.435  -0.999  -3.481  0.00  0.00     0.019 C 
ATOM     20  C   UNL d   1      -3.289   0.212  -3.106  0.00  0.00     0.019 C 
ENDBRANCH  15  18
ENDBRANCH  11  14
ENDBRANCH   7   8
ENDBRANCH   4   7
BRANCH   1  21
ATOM     21  C   UNL d   1       1.758  -5.200   0.231  0.00  0.00     0.042 C 
ATOM     22  C   UNL d   1       2.683  -4.879   1.238  0.00  0.00     0.031 C 
ATOM     23  C   UNL d   1       3.132  -3.533   1.447  0.00  0.00     0.020 C 
ATOM     24  C   UNL d   1       2.660  -2.473   0.662  0.00  0.00     0.040 C 
ATOM     25  C   UNL d   1       1.832  -2.807  -0.371  0.00  0.00     0.026 C 
ATOM     26  C   UNL d   1       1.331  -4.101  -0.521  0.00  0.00    -0.034 C 
ATOM     27  C   UNL d   1       0.184  -4.070  -1.432  0.00  0.00     0.050 C 
BRANCH  24  28
ATOM     28  C   UNL d   1       3.045  -1.047   0.829  0.00  0.00     0.292 C 
ATOM     29  O   UNL d   1       4.040  -0.749   1.504  0.00  0.00    -0.259 OA
BRANCH  28  30
ATOM     30  O   UNL d   1       2.376  -0.118   0.088  0.00  0.00    -0.323 OA
ATOM     31  C   UNL d   1       0.938   0.044   0.162  0.00  0.00     0.213 C 
ENDBRANCH  28  30
ENDBRANCH  24  28
ENDBRANCH   1  21
TORSDOF 7
