@<TRIPOS>MOLECULE
*****
 61 63 0 0 0
SMALL
GASTEIGER

@<TRIPOS>ATOM
      1 C           2.2160    1.9093    0.0335 C.3     1  UNL1       -0.0397
      2 C           1.0497    0.9682   -0.0210 C.ar    1  UNL1       -0.0498
      3 C          -0.2986    1.3336    0.0033 C.ar    1  UNL1       -0.0541
      4 C          -1.3423    0.3499   -0.0139 C.ar    1  UNL1       -0.0287
      5 C          -2.7665    0.8508    0.0023 C.3     1  UNL1       -0.0379
      6 C          -1.0295   -1.0431   -0.0328 C.ar    1  UNL1        0.0393
      7 N          -2.1016   -2.0440   -0.0006 N.am    1  UNL1       -0.2844
      8 C          -2.0047   -3.4164   -0.2775 C.2     1  UNL1        0.2275
      9 O          -1.0386   -3.9390   -0.8390 O.2     1  UNL1       -0.2746
     10 C          -3.2018   -4.3425    0.0264 C.3     1  UNL1        0.0779
     11 S          -2.4838   -6.0472    0.2032 S.3     1  UNL1       -0.0785
     12 C          -3.8082   -7.1251    0.0639 C.ar    1  UNL1        0.1696
     13 N          -5.0379   -6.7394   -0.0218 N.ar    1  UNL1       -0.2277
     14 C          -5.9865   -7.7447   -0.0905 C.ar    1  UNL1        0.0580
     15 C          -7.4268   -7.2474   -0.1041 C.3     1  UNL1        0.0665
     16 C          -8.4811   -8.3520   -0.1174 C.2     1  UNL1        0.2189
     17 O          -8.2401   -9.5575   -0.1123 O.2     1  UNL1       -0.2754
     18 N          -9.7976   -7.9718   -0.1364 N.am    1  UNL1       -0.3147
     19 C         -10.7305   -9.0701   -0.1806 C.3     1  UNL1        0.0156
     20 C         -12.1873   -8.6721   -0.2145 C.3     1  UNL1       -0.0121
     21 C         -13.1127   -9.8676   -0.2251 C.ar    1  UNL1       -0.0459
     22 C         -14.4871   -9.6581   -0.0737 C.ar    1  UNL1       -0.0585
     23 C         -15.3491  -10.7456    0.0728 C.ar    1  UNL1       -0.0615
     24 C         -14.8636  -12.0494   -0.0239 C.ar    1  UNL1       -0.0617
     25 C         -13.5089  -12.2720   -0.2272 C.ar    1  UNL1       -0.0615
     26 C         -12.6422  -11.1897   -0.3237 C.ar    1  UNL1       -0.0585
     27 C          -5.6393   -9.0429   -0.1205 C.ar    1  UNL1        0.0246
     28 C          -4.2462   -9.4601   -0.0079 C.ar    1  UNL1        0.2523
     29 O          -3.9297  -10.6287    0.0097 O.2     1  UNL1       -0.2678
     30 N          -3.3828   -8.4185    0.0868 N.ar    1  UNL1       -0.3019
     31 C           0.3500   -1.3637    0.0061 C.ar    1  UNL1       -0.0287
     32 C           0.8943   -2.7371    0.1966 C.3     1  UNL1       -0.0379
     33 C           1.3515   -0.3803   -0.0416 C.ar    1  UNL1       -0.0541
     34 H           1.9206    2.9591    0.0136 H       1  UNL1        0.0278
     35 H           2.8816    1.7175   -0.8177 H       1  UNL1        0.0278
     36 H           2.7896    1.7239    0.9514 H       1  UNL1        0.0278
     37 H          -0.5460    2.3954    0.0417 H       1  UNL1        0.0623
     38 H          -2.8253    1.9467    0.0121 H       1  UNL1        0.0278
     39 H          -3.2844    0.4929    0.8976 H       1  UNL1        0.0278
     40 H          -3.2950    0.5071   -0.8919 H       1  UNL1        0.0278
     41 H          -3.0380   -1.6705    0.0754 H       1  UNL1        0.1548
     42 H          -3.8686   -4.2714   -0.8387 H       1  UNL1        0.0475
     43 H          -3.7284   -4.0915    0.9506 H       1  UNL1        0.0475
     44 H          -7.5806   -6.6040   -0.9802 H       1  UNL1        0.0422
     45 H          -7.5977   -6.6297    0.7887 H       1  UNL1        0.0422
     46 H         -10.0962   -7.0069   -0.1276 H       1  UNL1        0.1487
     47 H         -10.5310   -9.7064    0.6965 H       1  UNL1        0.0465
     48 H         -10.4799   -9.6632   -1.0728 H       1  UNL1        0.0465
     49 H         -12.3718   -8.0433   -1.0918 H       1  UNL1        0.0328
     50 H         -12.3935   -8.0731    0.6814 H       1  UNL1        0.0328
     51 H         -14.8905   -8.6482   -0.0459 H       1  UNL1        0.0620
     52 H         -16.4016  -10.5771    0.2807 H       1  UNL1        0.0618
     53 H         -15.5400  -12.8941    0.0580 H       1  UNL1        0.0618
     54 H         -13.1112  -13.2813   -0.2877 H       1  UNL1        0.0618
     55 H         -11.5879  -11.4190   -0.4592 H       1  UNL1        0.0620
     56 H          -6.2853   -9.8985   -0.1903 H       1  UNL1        0.0690
     57 H          -2.4064   -8.6470    0.1734 H       1  UNL1        0.1708
     58 H           0.1261   -3.2916    0.7101 H       1  UNL1        0.0278
     59 H           1.6900   -2.8152    0.9378 H       1  UNL1        0.0278
     60 H           1.2190   -3.1564   -0.7642 H       1  UNL1        0.0278
     61 H           2.3976   -0.6897   -0.0325 H       1  UNL1        0.0623
@<TRIPOS>BOND
     1     1     2    1
     2     2     3   ar
     3     3     4   ar
     4     4     5    1
     5     4     6   ar
     6     6     7    1
     7     7     8   am
     8     8     9    2
     9     8    10    1
    10    10    11    1
    11    11    12    1
    12    12    13   ar
    13    13    14   ar
    14    14    15    1
    15    15    16    1
    16    16    17    2
    17    16    18   am
    18    18    19    1
    19    19    20    1
    20    20    21    1
    21    21    22   ar
    22    22    23   ar
    23    23    24   ar
    24    24    25   ar
    25    25    26   ar
    26    21    26   ar
    27    14    27   ar
    28    27    28   ar
    29    28    29    2
    30    28    30   ar
    31    12    30   ar
    32     6    31   ar
    33    31    32    1
    34    31    33   ar
    35     2    33   ar
    36     1    34    1
    37     1    35    1
    38     1    36    1
    39     3    37    1
    40     5    38    1
    41     5    39    1
    42     5    40    1
    43     7    41    1
    44    10    42    1
    45    10    43    1
    46    15    44    1
    47    15    45    1
    48    18    46    1
    49    19    47    1
    50    19    48    1
    51    20    49    1
    52    20    50    1
    53    22    51    1
    54    23    52    1
    55    24    53    1
    56    25    54    1
    57    26    55    1
    58    27    56    1
    59    30    57    1
    60    32    58    1
    61    32    59    1
    62    32    60    1
    63    33    61    1
