@<TRIPOS>MOLECULE
*****
 36 38 0 0 0
SMALL
GASTEIGER

@<TRIPOS>ATOM
      1 C           2.4593   -1.7420    0.0399 C.3     1  UNL1       -0.0354
      2 C           1.6697   -0.4898    0.0034 C.ar    1  UNL1        0.0077
      3 C           2.0718    0.8489    0.0068 C.ar    1  UNL1        0.1948
      4 C           3.3895    1.5302    0.0342 C.2     1  UNL1        0.2957
      5 O           3.5256    2.7599    0.0483 O.2     1  UNL1       -0.2653
      6 N           4.5280    0.7199    0.0474 N.am    1  UNL1       -0.2276
      7 N           5.8539    1.2131    0.1070 N.am    1  UNL1       -0.2300
      8 C           6.8820    0.2670    0.0700 C.2     1  UNL1        0.2630
      9 O           6.6594   -0.9424    0.0432 O.2     1  UNL1       -0.2686
     10 C           8.2776    0.7748    0.0804 C.ar    1  UNL1        0.0760
     11 C           8.6462    1.8087    0.9461 C.ar    1  UNL1       -0.0115
     12 C           9.9628    2.2697    0.9451 C.ar    1  UNL1        0.1243
     13 F          10.3081    3.2628    1.7736 F       1  UNL1       -0.2055
     14 C          10.9264    1.7221    0.1034 C.ar    1  UNL1       -0.0237
     15 C          10.5718    0.6728   -0.7418 C.ar    1  UNL1       -0.0230
     16 C           9.2556    0.1959   -0.7413 C.ar    1  UNL1        0.1357
     17 F           8.9558   -0.8097   -1.5752 F       1  UNL1       -0.2047
     18 O           0.9175    1.6350    0.0009 O.2     1  UNL1       -0.4499
     19 C          -0.1820    0.8123   -0.0013 C.ar    1  UNL1        0.1362
     20 C          -1.5370    1.1787    0.0183 C.ar    1  UNL1       -0.0187
     21 C          -2.4883    0.1390    0.0232 C.ar    1  UNL1       -0.0582
     22 C          -2.0950   -1.1980   -0.0030 C.ar    1  UNL1       -0.0610
     23 C          -0.7372   -1.5318   -0.0266 C.ar    1  UNL1       -0.0507
     24 C           0.2351   -0.5072   -0.0165 C.ar    1  UNL1        0.0238
     25 H           3.5288   -1.6188    0.0719 H       1  UNL1        0.0279
     26 H           2.2526   -2.3405   -0.8507 H       1  UNL1        0.0279
     27 H           2.2065   -2.3090    0.9396 H       1  UNL1        0.0279
     28 H           4.5076   -0.2837   -0.0050 H       1  UNL1        0.1732
     29 H           5.9774    2.2206    0.0512 H       1  UNL1        0.1731
     30 H           7.9380    2.2452    1.6421 H       1  UNL1        0.0655
     31 H          11.9413    2.1113    0.1167 H       1  UNL1        0.0647
     32 H          11.3106    0.2270   -1.4035 H       1  UNL1        0.0647
     33 H          -1.8529    2.2157    0.0394 H       1  UNL1        0.0654
     34 H          -3.5530    0.3719    0.0501 H       1  UNL1        0.0619
     35 H          -2.8420   -1.9907    0.0010 H       1  UNL1        0.0618
     36 H          -0.4372   -2.5756   -0.0432 H       1  UNL1        0.0625
@<TRIPOS>BOND
     1     1     2    1
     2     2     3   ar
     3     3     4    1
     4     4     5    2
     5     4     6   am
     6     6     7    1
     7     7     8   am
     8     8     9    2
     9     8    10    1
    10    10    11   ar
    11    11    12   ar
    12    12    13    1
    13    12    14   ar
    14    14    15   ar
    15    15    16   ar
    16    10    16   ar
    17    16    17    1
    18     3    18   ar
    19    18    19   ar
    20    19    20   ar
    21    20    21   ar
    22    21    22   ar
    23    22    23   ar
    24    23    24   ar
    25     2    24   ar
    26    19    24   ar
    27     1    25    1
    28     1    26    1
    29     1    27    1
    30     6    28    1
    31     7    29    1
    32    11    30    1
    33    14    31    1
    34    15    32    1
    35    20    33    1
    36    21    34    1
    37    22    35    1
    38    23    36    1
