@<TRIPOS>MOLECULE
*****
 66 67 0 0 0
SMALL
GASTEIGER

@<TRIPOS>ATOM
      1 C          13.3591   -0.0218    7.9307 C.3     1  UNL1       -0.0653
      2 C          13.1596   -1.3307    7.1924 C.3     1  UNL1       -0.0559
      3 C          12.0151   -1.2031    6.2287 C.3     1  UNL1       -0.0533
      4 C          11.7528   -2.5121    5.4777 C.3     1  UNL1       -0.0516
      5 C          10.6331   -2.1641    4.5341 C.3     1  UNL1       -0.0371
      6 C          10.0766   -3.1340    3.5601 C.3     1  UNL1        0.0161
      7 N           9.0511   -2.8628    2.5909 N.am    1  UNL1       -0.2817
      8 C           8.5081   -1.5790    2.3369 C.2     1  UNL1        0.2475
      9 O           7.6757   -1.3635    1.4367 O.2     1  UNL1       -0.2700
     10 C           8.8464   -0.3864    3.1784 C.ar    1  UNL1        0.0371
     11 C          10.1272    0.1816    3.1269 C.ar    1  UNL1       -0.0469
     12 C          10.5567    1.0362    4.1547 C.ar    1  UNL1       -0.0257
     13 C           9.6463    1.4987    5.0911 C.ar    1  UNL1        0.1234
     14 F          10.0647    2.3081    6.0736 F       1  UNL1       -0.2055
     15 C           8.3118    1.1167    5.0176 C.ar    1  UNL1       -0.0257
     16 C           7.9154    0.1382    4.0891 C.ar    1  UNL1       -0.0469
     17 C           8.5662   -4.1118    1.8144 C.3     1  UNL1        0.1344
     18 C           6.9939   -3.9304    1.7409 C.2     1  UNL1        0.2387
     19 O           6.3661   -3.5594    2.7355 O.2     1  UNL1       -0.2734
     20 N           6.3471   -4.3070    0.5388 N.am    1  UNL1       -0.3087
     21 C           4.8731   -4.1420    0.4043 C.3     1  UNL1        0.0262
     22 C           4.1222   -4.8590    1.5445 C.3     1  UNL1       -0.0442
     23 C           4.5240   -2.6470    0.3777 C.3     1  UNL1       -0.0442
     24 C           4.3769   -4.7715   -0.9170 C.3     1  UNL1       -0.0442
     25 C           8.8456   -5.5974    2.3966 C.ar    1  UNL1        0.0648
     26 C           8.1631   -6.7110    1.8348 C.ar    1  UNL1        0.1292
     27 O           7.4408   -6.7018    0.6726 O.3     1  UNL1       -0.5062
     28 C           8.2242   -8.0165    2.3649 C.ar    1  UNL1        0.0219
     29 C           8.9654   -8.2773    3.4946 C.ar    1  UNL1        0.1238
     30 O           9.1193   -9.5123    4.0321 O.3     1  UNL1       -0.5065
     31 C           9.6807   -7.2706    4.0653 C.ar    1  UNL1        0.0219
     32 C           9.7006   -6.0099    3.4646 C.ar    1  UNL1        0.1292
     33 O          10.7967   -5.3537    3.9649 O.3     1  UNL1       -0.5062
     34 H          14.1888   -0.1221    8.6321 H       1  UNL1        0.0230
     35 H          12.4573    0.2553    8.4871 H       1  UNL1        0.0230
     36 H          13.5876    0.7941    7.2352 H       1  UNL1        0.0230
     37 H          12.9523   -2.1430    7.8927 H       1  UNL1        0.0263
     38 H          14.0633   -1.5782    6.6262 H       1  UNL1        0.0263
     39 H          12.2905   -0.4229    5.5109 H       1  UNL1        0.0265
     40 H          11.1017   -0.8593    6.7359 H       1  UNL1        0.0265
     41 H          11.5073   -3.3339    6.1518 H       1  UNL1        0.0266
     42 H          12.6447   -2.7792    4.8972 H       1  UNL1        0.0266
     43 H          11.1697   -1.4787    3.9107 H       1  UNL1        0.0280
     44 H           9.7993   -1.7596    5.1130 H       1  UNL1        0.0280
     45 H           9.5317   -3.7864    4.2322 H       1  UNL1        0.0465
     46 H          10.9197   -3.5221    2.9712 H       1  UNL1        0.0465
     47 H          10.8641   -0.2241    2.4340 H       1  UNL1        0.0626
     48 H          11.6139    1.2574    4.2859 H       1  UNL1        0.0646
     49 H           7.5988    1.5642    5.7031 H       1  UNL1        0.0646
     50 H           6.8903   -0.2248    4.0930 H       1  UNL1        0.0626
     51 H           9.0011   -4.0528    0.8076 H       1  UNL1        0.0650
     52 H           6.8635   -4.2072   -0.3342 H       1  UNL1        0.1493
     53 H           4.3742   -4.4741    2.5338 H       1  UNL1        0.0250
     54 H           4.3558   -5.9300    1.5503 H       1  UNL1        0.0250
     55 H           3.0386   -4.7410    1.4451 H       1  UNL1        0.0250
     56 H           4.8494   -2.1374    1.2889 H       1  UNL1        0.0250
     57 H           3.4449   -2.4893    0.2788 H       1  UNL1        0.0250
     58 H           5.0185   -2.1497   -0.4655 H       1  UNL1        0.0250
     59 H           4.5842   -5.8469   -0.9547 H       1  UNL1        0.0250
     60 H           4.8502   -4.3119   -1.7911 H       1  UNL1        0.0250
     61 H           3.2908   -4.6438   -1.0271 H       1  UNL1        0.0250
     62 H           7.1014   -5.8152    0.4956 H       1  UNL1        0.2922
     63 H           7.6885   -8.8118    1.8583 H       1  UNL1        0.0691
     64 H           8.6594  -10.1474    3.4639 H       1  UNL1        0.2921
     65 H          10.3248   -7.4822    4.9146 H       1  UNL1        0.0691
     66 H          10.6900   -5.3276    4.9371 H       1  UNL1        0.2922
@<TRIPOS>BOND
     1     1     2    1
     2     2     3    1
     3     3     4    1
     4     4     5    1
     5     5     6    1
     6     6     7    1
     7     7     8   am
     8     8     9    2
     9     8    10    1
    10    10    11   ar
    11    11    12   ar
    12    12    13   ar
    13    13    14    1
    14    13    15   ar
    15    15    16   ar
    16    10    16   ar
    17    18    19    2
    18    18    20   am
    19    20    21    1
    20    21    22    1
    21    21    23    1
    22    21    24    1
    23    17    25    1
    24    25    26   ar
    25    26    27    1
    26    26    28   ar
    27    28    29   ar
    28    29    30    1
    29    29    31   ar
    30    31    32   ar
    31    25    32   ar
    32    32    33    1
    33    17    18    1
    34    17     7    1
    35     1    34    1
    36     1    35    1
    37     1    36    1
    38     2    37    1
    39     2    38    1
    40     3    39    1
    41     3    40    1
    42     4    41    1
    43     4    42    1
    44     5    43    1
    45     5    44    1
    46     6    45    1
    47     6    46    1
    48    11    47    1
    49    12    48    1
    50    15    49    1
    51    16    50    1
    52    17    51    1
    53    20    52    1
    54    22    53    1
    55    22    54    1
    56    22    55    1
    57    23    56    1
    58    23    57    1
    59    23    58    1
    60    24    59    1
    61    24    60    1
    62    24    61    1
    63    27    62    1
    64    28    63    1
    65    30    64    1
    66    31    65    1
    67    33    66    1
