@<TRIPOS>MOLECULE
*****
 36 37 0 0 0
SMALL
GASTEIGER

@<TRIPOS>ATOM
      1 C           1.1135   -0.0009   -0.0736 C.3     1  UNL1        0.0788
      2 O           2.5337    0.1314   -0.1664 O.3     1  UNL1       -0.4951
      3 C           3.1694    0.6605    0.9240 C.ar    1  UNL1        0.1202
      4 C           4.3961    1.2984    0.7146 C.ar    1  UNL1       -0.0182
      5 C           5.1764    1.7659    1.8062 C.ar    1  UNL1       -0.0370
      6 C           4.7052    1.6560    3.1270 C.ar    1  UNL1        0.0350
      7 N           5.4266    2.2088    4.2447 N.am    1  UNL1       -0.2683
      8 C           4.9725    2.2063    5.5647 C.2     1  UNL1        0.3202
      9 O           3.9232    1.6996    5.9699 O.2     1  UNL1       -0.2509
     10 N           5.7848    2.8286    6.5027 N.am    1  UNL1       -0.2177
     11 N           5.3265    2.8007    7.8735 N.am    1  UNL1       -0.2292
     12 C           6.0207    3.4558    8.8748 C.2     1  UNL1        0.2602
     13 O           7.0555    4.0948    8.6566 O.2     1  UNL1       -0.2687
     14 C           5.4937    3.3640   10.2823 C.ar    1  UNL1        0.0382
     15 C           5.6089    4.4711   11.1451 C.ar    1  UNL1       -0.0482
     16 C           5.2808    4.3639   12.5081 C.ar    1  UNL1       -0.0427
     17 C           4.7796    3.1649   13.0071 C.ar    1  UNL1        0.0410
     18 CL          4.2864    3.0558   14.6538 Cl      1  UNL1       -0.0835
     19 C           4.6549    2.0598   12.1659 C.ar    1  UNL1       -0.0427
     20 C           5.0144    2.1555   10.8087 C.ar    1  UNL1       -0.0482
     21 C           3.4837    1.0020    3.2966 C.ar    1  UNL1       -0.0370
     22 C           2.7248    0.5185    2.2261 C.ar    1  UNL1       -0.0182
     23 H           0.7692   -0.6140   -0.9130 H       1  UNL1        0.0660
     24 H           0.6522    0.9871   -0.1588 H       1  UNL1        0.0660
     25 H           0.7644   -0.5081    0.8314 H       1  UNL1        0.0660
     26 H           4.7453    1.4389   -0.3084 H       1  UNL1        0.0655
     27 H           6.1493    2.1958    1.5791 H       1  UNL1        0.0637
     28 H           6.2886    2.6924    4.0313 H       1  UNL1        0.1564
     29 H           6.6539    3.3204    6.3210 H       1  UNL1        0.1744
     30 H           4.4215    2.3470    8.0114 H       1  UNL1        0.1732
     31 H           5.9615    5.4286   10.7660 H       1  UNL1        0.0625
     32 H           5.4292    5.2107   13.1762 H       1  UNL1        0.0632
     33 H           4.2985    1.1135   12.5681 H       1  UNL1        0.0632
     34 H           4.9527    1.2650   10.1903 H       1  UNL1        0.0625
     35 H           3.0635    0.8146    4.2744 H       1  UNL1        0.0637
     36 H           1.8011    0.0128    2.4767 H       1  UNL1        0.0655
@<TRIPOS>BOND
     1     1     2    1
     2     2     3    1
     3     3     4   ar
     4     4     5   ar
     5     5     6   ar
     6     6     7    1
     7     7     8   am
     8     8     9    2
     9     8    10   am
    10    10    11    1
    11    11    12   am
    12    12    13    2
    13    12    14    1
    14    14    15   ar
    15    15    16   ar
    16    16    17   ar
    17    17    18    1
    18    17    19   ar
    19    19    20   ar
    20    14    20   ar
    21     6    21   ar
    22    21    22   ar
    23     3    22   ar
    24     1    23    1
    25     1    24    1
    26     1    25    1
    27     4    26    1
    28     5    27    1
    29     7    28    1
    30    10    29    1
    31    11    30    1
    32    15    31    1
    33    16    32    1
    34    19    33    1
    35    20    34    1
    36    21    35    1
    37    22    36    1
