@<TRIPOS>MOLECULE
*****
 42 43 0 0 0
SMALL
GASTEIGER

@<TRIPOS>ATOM
      1 C           0.9763   -0.0502    0.0834 C.3     1  UNL1       -0.0612
      2 C           2.5141   -0.0364    0.1053 C.3     1  UNL1       -0.0311
      3 C           2.9829    1.3604    0.5135 C.3     1  UNL1       -0.0612
      4 C           3.0732   -1.1168    1.0602 C.3     1  UNL1        0.0154
      5 N           4.5405   -1.2015    1.1034 N.am    1  UNL1       -0.2980
      6 C           5.1942   -2.0902    1.9332 C.2     1  UNL1        0.3160
      7 O           4.6075   -2.8831    2.6684 O.2     1  UNL1       -0.2513
      8 N           6.5802   -2.0399    1.8729 N.am    1  UNL1       -0.2179
      9 N           7.3407   -2.9205    2.7147 N.am    1  UNL1       -0.2281
     10 C           8.7297   -2.8823    2.7193 C.2     1  UNL1        0.2777
     11 O           9.3955   -2.1336    2.0043 O.2     1  UNL1       -0.2672
     12 C           9.4354   -3.8771    3.6478 C.2     1  UNL1        0.1467
     13 N          10.4445   -3.5808    4.4002 N.2     1  UNL1       -0.0836
     14 O          10.8653   -4.7818    5.0483 O.2     1  UNL1       -0.3850
     15 C          10.0864   -5.9008    4.5696 C.3     1  UNL1        0.1589
     16 C          10.9752   -6.9620    3.9252 C.ar    1  UNL1       -0.0044
     17 C          12.0610   -7.5406    4.6126 C.ar    1  UNL1       -0.0550
     18 C          12.8905   -8.4820    3.9789 C.ar    1  UNL1       -0.0614
     19 C          12.6078   -8.9163    2.6851 C.ar    1  UNL1       -0.0617
     20 C          11.5212   -8.3878    2.0107 C.ar    1  UNL1       -0.0614
     21 C          10.7209   -7.4325    2.6276 C.ar    1  UNL1       -0.0550
     22 C           8.9929   -5.2821    3.6998 C.3     1  UNL1        0.0418
     23 H           0.5870    0.7068   -0.6096 H       1  UNL1        0.0233
     24 H           0.5609    0.1701    1.0735 H       1  UNL1        0.0233
     25 H           0.5874   -1.0212   -0.2391 H       1  UNL1        0.0233
     26 H           2.8672   -0.2398   -0.9138 H       1  UNL1        0.0311
     27 H           2.6291    1.6108    1.5195 H       1  UNL1        0.0233
     28 H           2.6005    2.1198   -0.1775 H       1  UNL1        0.0233
     29 H           4.0736    1.4294    0.5079 H       1  UNL1        0.0233
     30 H           2.6958   -2.1019    0.7591 H       1  UNL1        0.0465
     31 H           2.7138   -0.9340    2.0803 H       1  UNL1        0.0465
     32 H           5.0790   -0.5672    0.5326 H       1  UNL1        0.1503
     33 H           7.1046   -1.3721    1.3145 H       1  UNL1        0.1744
     34 H           6.7859   -3.5322    3.3113 H       1  UNL1        0.1732
     35 H           9.6202   -6.3706    5.4477 H       1  UNL1        0.0815
     36 H          12.2816   -7.2725    5.6459 H       1  UNL1        0.0621
     37 H          13.7683   -8.8751    4.4874 H       1  UNL1        0.0618
     38 H          13.2236   -9.6677    2.2001 H       1  UNL1        0.0618
     39 H          11.2822   -8.6975    0.9975 H       1  UNL1        0.0618
     40 H           9.8864   -7.0850    2.0360 H       1  UNL1        0.0621
     41 H           8.0142   -5.3622    4.1738 H       1  UNL1        0.0371
     42 H           8.9083   -5.6336    2.6766 H       1  UNL1        0.0371
@<TRIPOS>BOND
     1     1     2    1
     2     2     3    1
     3     2     4    1
     4     4     5    1
     5     5     6   am
     6     6     7    2
     7     6     8   am
     8     8     9    1
     9     9    10   am
    10    10    11    2
    11    10    12    1
    12    12    13    2
    13    13    14    1
    14    14    15    1
    15    16    17   ar
    16    17    18   ar
    17    18    19   ar
    18    19    20   ar
    19    20    21   ar
    20    16    21   ar
    21    15    22    1
    22    12    22    1
    23    15    16    1
    24     1    23    1
    25     1    24    1
    26     1    25    1
    27     2    26    1
    28     3    27    1
    29     3    28    1
    30     3    29    1
    31     4    30    1
    32     4    31    1
    33     5    32    1
    34     8    33    1
    35     9    34    1
    36    15    35    1
    37    17    36    1
    38    18    37    1
    39    19    38    1
    40    20    39    1
    41    21    40    1
    42    22    41    1
    43    22    42    1
