@<TRIPOS>MOLECULE
*****
 45 45 0 0 0
SMALL
GASTEIGER

@<TRIPOS>ATOM
      1 C           0.9409    0.0159    0.0642 C.3     1  UNL1       -0.0622
      2 C           2.4623    0.0309    0.0407 C.3     1  UNL1       -0.0215
      3 C           2.9871    1.3801   -0.4479 C.3     1  UNL1        0.0893
      4 O           4.4162    1.3375   -0.5441 O.3     1  UNL1       -0.4920
      5 C           5.0186    2.5390   -0.8217 C.ar    1  UNL1        0.1207
      6 C           6.1691    2.5111   -1.6100 C.ar    1  UNL1       -0.0165
      7 C           6.8942    3.6953   -1.8508 C.ar    1  UNL1       -0.0165
      8 C           6.4471    4.9326   -1.3610 C.ar    1  UNL1        0.1214
      9 O           7.1772    6.0409   -1.7163 O.3     1  UNL1       -0.4827
     10 C           6.6877    7.3465   -1.3532 C.3     1  UNL1        0.1666
     11 C           7.5660    8.4946   -1.9461 C.2     1  UNL1        0.2667
     12 O           8.5354    8.2836   -2.6793 O.2     1  UNL1       -0.2705
     13 N           7.2018    9.7989   -1.6077 N.am    1  UNL1       -0.2304
     14 N           7.9824   10.9081   -2.1015 N.am    1  UNL1       -0.2181
     15 C           7.6026   12.2014   -1.7825 C.2     1  UNL1        0.3162
     16 O           6.6010   12.4213   -1.0958 O.2     1  UNL1       -0.2513
     17 N           8.4364   13.2003   -2.2557 N.am    1  UNL1       -0.2959
     18 C           8.1929   14.6327   -1.9812 C.3     1  UNL1        0.0190
     19 C           8.2667   14.9348   -0.4821 C.3     1  UNL1       -0.0468
     20 C           9.1840   15.5645   -2.6986 C.3     1  UNL1       -0.0468
     21 C           5.3091    4.9450   -0.5608 C.ar    1  UNL1       -0.0165
     22 C           4.6087    3.7591   -0.2863 C.ar    1  UNL1       -0.0165
     23 H           0.5693   -0.9536    0.4094 H       1  UNL1        0.0231
     24 H           0.5357    0.1994   -0.9363 H       1  UNL1        0.0231
     25 H           0.5497    0.7876    0.7360 H       1  UNL1        0.0231
     26 H           2.8369   -0.7742   -0.6006 H       1  UNL1        0.0295
     27 H           2.8479   -0.1740    1.0474 H       1  UNL1        0.0295
     28 H           2.6421    2.1368    0.2629 H       1  UNL1        0.0696
     29 H           2.5782    1.6017   -1.4402 H       1  UNL1        0.0696
     30 H           6.5034    1.5717   -2.0473 H       1  UNL1        0.0655
     31 H           7.8184    3.6389   -2.4233 H       1  UNL1        0.0655
     32 H           6.7010    7.4368   -0.2606 H       1  UNL1        0.0795
     33 H           5.6646    7.4766   -1.7290 H       1  UNL1        0.0795
     34 H           6.4172   10.0519   -1.0081 H       1  UNL1        0.1729
     35 H           8.7711   10.6701   -2.6965 H       1  UNL1        0.1744
     36 H           9.2031   12.9563   -2.8667 H       1  UNL1        0.1505
     37 H           7.1831   14.8670   -2.3416 H       1  UNL1        0.0493
     38 H           9.2645   14.7088   -0.0911 H       1  UNL1        0.0247
     39 H           7.5457   14.3439    0.0868 H       1  UNL1        0.0247
     40 H           8.0514   15.9903   -0.2803 H       1  UNL1        0.0247
     41 H          10.2148   15.3801   -2.3752 H       1  UNL1        0.0247
     42 H           8.9596   16.6176   -2.4753 H       1  UNL1        0.0247
     43 H           9.1450   15.4471   -3.7856 H       1  UNL1        0.0247
     44 H           4.9417    5.8574   -0.1084 H       1  UNL1        0.0655
     45 H           3.7549    3.8243    0.3775 H       1  UNL1        0.0655
@<TRIPOS>BOND
     1     1     2    1
     2     2     3    1
     3     3     4    1
     4     4     5    1
     5     5     6   ar
     6     6     7   ar
     7     7     8   ar
     8     8     9    1
     9     9    10    1
    10    10    11    1
    11    11    12    2
    12    11    13   am
    13    13    14    1
    14    14    15   am
    15    15    16    2
    16    15    17   am
    17    17    18    1
    18    18    19    1
    19    18    20    1
    20     8    21   ar
    21    21    22   ar
    22     5    22   ar
    23     1    23    1
    24     1    24    1
    25     1    25    1
    26     2    26    1
    27     2    27    1
    28     3    28    1
    29     3    29    1
    30     6    30    1
    31     7    31    1
    32    10    32    1
    33    10    33    1
    34    13    34    1
    35    14    35    1
    36    17    36    1
    37    18    37    1
    38    19    38    1
    39    19    39    1
    40    19    40    1
    41    20    41    1
    42    20    42    1
    43    20    43    1
    44    21    44    1
    45    22    45    1
