REMARK  6 active torsions:
REMARK  status: ('A' for Active; 'I' for Inactive)
REMARK    1  A    between atoms: C_2  and  O_3 
REMARK    2  A    between atoms: O_3  and  C_4 
REMARK    3  A    between atoms: C_6  and  C_7 
REMARK    4  A    between atoms: N_8  and  N_9 
REMARK       I    between atoms: N_9  and  C_10 
REMARK    5  A    between atoms: C_12  and  C_10 
REMARK    6  A    between atoms: C_21  and  O_22 
ROOT
ATOM      1  C   UNL d   1      13.759  -3.359  -9.439  0.00  0.00     0.104 A 
ATOM      2  C   UNL d   1      12.469  -3.819  -9.121  0.00  0.00     0.052 A 
ATOM      3  C   UNL d   1      12.197  -5.192  -8.992  0.00  0.00    -0.013 A 
ATOM      4  C   UNL d   1      13.233  -6.115  -9.174  0.00  0.00     0.035 A 
ATOM      5  C   UNL d   1      14.524  -5.656  -9.472  0.00  0.00     0.047 A 
ATOM      6 BR   UNL d   1      15.920  -6.924  -9.709  0.00  0.00    -0.048 Br
ATOM      7  C   UNL d   1      14.796  -4.286  -9.589  0.00  0.00     0.116 A 
ENDROOT
BRANCH   3   8
ATOM      8  C   UNL d   1      10.819  -5.668  -8.657  0.00  0.00     0.150 C 
ATOM      9  N   UNL d   1       9.847  -4.830  -8.482  0.00  0.00    -0.184 NA
BRANCH   9  10
ATOM     10  N   UNL d   1       8.610  -5.325  -8.155  0.00  0.00    -0.245 N 
ATOM     11  C   UNL d   1       7.559  -4.439  -7.932  0.00  0.00     0.268 C 
ATOM     12  O   UNL d   1       7.646  -3.213  -8.077  0.00  0.00    -0.269 OA
ATOM     13  H   UNL d   1       8.448  -6.326  -8.072  0.00  0.00     0.192 HD
BRANCH  11  14
ATOM     14  C   UNL d   1       6.223  -5.067  -7.513  0.00  0.00     0.249 A 
ATOM     15  C   UNL d   1       5.216  -4.953  -8.594  0.00  0.00     0.040 A 
ATOM     16  C   UNL d   1       4.900  -6.205  -8.920  0.00  0.00     0.051 A 
ATOM     17  C   UNL d   1       3.946  -6.620  -9.981  0.00  0.00     0.072 C 
ATOM     18  N   UNL d   1       5.577  -7.130  -8.165  0.00  0.00    -0.160 NA
ATOM     19  N   UNL d   1       6.349  -6.545  -7.351  0.00  0.00    -0.174 NA
ENDBRANCH  11  14
ENDBRANCH   9  10
ENDBRANCH   3   8
BRANCH   1  20
ATOM     20  O   UNL d   1      13.907  -1.994  -9.487  0.00  0.00    -0.349 OA
BRANCH  20  21
ATOM     21  C   UNL d   1      14.695  -1.492 -10.572  0.00  0.00     0.171 C 
ATOM     22  C   UNL d   1      14.769   0.022 -10.466  0.00  0.00     0.034 C 
ENDBRANCH  20  21
ENDBRANCH   1  20
BRANCH   7  23
ATOM     23  O   UNL d   1      16.079  -3.855  -9.804  0.00  0.00    -0.357 OA
ATOM     24  H   UNL d   1      16.662  -4.627  -9.902  0.00  0.00     0.218 HD
ENDBRANCH   7  23
TORSDOF 6
