REMARK  10 active torsions:
REMARK  status: ('A' for Active; 'I' for Inactive)
REMARK    1  A    between atoms: O_2  and  C_3 
REMARK    2  A    between atoms: C_8  and  N_9 
REMARK       I    between atoms: N_9  and  C_10 
REMARK    3  A    between atoms: C_10  and  C_12 
REMARK    4  A    between atoms: C_12  and  O_13 
REMARK    5  A    between atoms: O_13  and  C_14 
REMARK    6  A    between atoms: C_16  and  C_14 
REMARK    7  A    between atoms: C_16  and  N_27 
REMARK    8  A    between atoms: C_16  and  C_17 
REMARK    9  A    between atoms: C_17  and  C_18 
REMARK       I    between atoms: N_27  and  C_28 
REMARK   10  A    between atoms: C_28  and  C_30 
ROOT
ATOM      1  C   UNL d   1      -3.133  -2.086  -2.186  0.00  0.00     0.188 C 
ENDROOT
BRANCH   1   2
ATOM      2  N   UNL d   1      -4.604  -2.606  -2.272  0.00  0.00    -0.342 N 
ATOM      3  C   UNL d   1      -5.356  -2.655  -3.456  0.00  0.00     0.259 C 
ATOM      4  O   UNL d   1      -4.904  -2.085  -4.462  0.00  0.00    -0.267 OA
ATOM      5  H   UNL d   1      -4.894  -3.294  -1.583  0.00  0.00     0.163 HD
BRANCH   3   6
ATOM      6  C   UNL d   1      -6.546  -3.534  -3.491  0.00  0.00     0.072 A 
ATOM      7  C   UNL d   1      -7.446  -3.853  -2.486  0.00  0.00     0.025 A 
ATOM      8  C   UNL d   1      -8.511  -4.710  -2.917  0.00  0.00     0.009 A 
ATOM      9  C   UNL d   1      -8.357  -5.122  -4.220  0.00  0.00     0.050 A 
ATOM     10  S   UNL d   1      -7.019  -4.342  -4.956  0.00  0.00    -0.097 SA
ENDBRANCH   3   6
ENDBRANCH   1   2
BRANCH   1  11
ATOM     11  C   UNL d   1      -2.516  -2.644  -0.805  0.00  0.00     0.072 C 
BRANCH  11  12
ATOM     12  C   UNL d   1      -2.496  -4.183  -0.690  0.00  0.00    -0.048 C 
ATOM     13  C   UNL d   1      -2.925  -5.033  -1.639  0.00  0.00    -0.006 C 
ATOM     14  C   UNL d   1      -3.408  -4.860  -2.950  0.00  0.00     0.014 C 
ATOM     15  C   UNL d   1      -2.854  -6.392  -1.118  0.00  0.00     0.038 C 
ATOM     16  C   UNL d   1      -4.092  -5.776  -3.609  0.00  0.00     0.001 C 
ATOM     17  C   UNL d   1      -4.131  -7.098  -3.101  0.00  0.00     0.002 C 
ATOM     18  C   UNL d   1      -3.503  -7.452  -1.958  0.00  0.00     0.030 C 
ATOM     19  N   UNL d   1      -2.249  -6.411   0.007  0.00  0.00    -0.385 N 
ATOM     20  C   UNL d   1      -1.946  -5.000   0.469  0.00  0.00     0.155 C 
ATOM     21  H   UNL d   1      -2.012  -7.290   0.466  0.00  0.00     0.160 HD
ENDBRANCH  11  12
ENDBRANCH   1  11
BRANCH   1  22
ATOM     22  C   UNL d   1      -1.942  -2.443  -3.275  0.00  0.00     0.282 C 
ATOM     23  O   UNL d   1      -0.954  -3.123  -2.984  0.00  0.00    -0.263 OA
BRANCH  22  24
ATOM     24  O   UNL d   1      -2.200  -2.090  -4.564  0.00  0.00    -0.310 OA
BRANCH  24  25
ATOM     25  C   UNL d   1      -1.361  -2.720  -5.587  0.00  0.00     0.281 C 
BRANCH  25  26
ATOM     26  C   UNL d   1      -1.952  -2.557  -7.012  0.00  0.00     0.246 C 
ATOM     27  N   UNL d   1      -1.046  -2.209  -8.018  0.00  0.00    -0.323 N 
ATOM     28  H   UNL d   1      -0.149  -2.677  -8.035  0.00  0.00     0.169 HD
ATOM     29  O   UNL d   1      -3.165  -2.665  -7.185  0.00  0.00    -0.271 OA
BRANCH  27  30
ATOM     30  C   UNL d   1      -1.383  -1.439  -9.179  0.00  0.00     0.068 A 
ATOM     31  C   UNL d   1      -0.603  -1.614 -10.345  0.00  0.00     0.032 A 
ATOM     32  C   UNL d   1      -0.912  -0.949 -11.547  0.00  0.00     0.002 A 
ATOM     33  C   UNL d   1      -2.006  -0.096 -11.606  0.00  0.00     0.003 A 
ATOM     34  C   UNL d   1      -2.729   0.156 -10.443  0.00  0.00     0.039 A 
ATOM     35  C   UNL d   1      -2.420  -0.488  -9.228  0.00  0.00     0.095 A 
BRANCH  35  36
ATOM     36  O   UNL d   1      -3.261  -0.125  -8.214  0.00  0.00    -0.354 OA
ATOM     37  C   UNL d   1      -2.704   0.216  -6.953  0.00  0.00     0.210 C 
ENDBRANCH  35  36
ENDBRANCH  27  30
ENDBRANCH  25  26
ENDBRANCH  24  25
ENDBRANCH  22  24
ENDBRANCH   1  22
TORSDOF 10
