REMARK  11 active torsions:
REMARK  status: ('A' for Active; 'I' for Inactive)
REMARK    1  A    between atoms: C_2  and  C_3 
REMARK    2  A    between atoms: C_3  and  O_4 
REMARK    3  A    between atoms: O_4  and  C_5 
REMARK    4  A    between atoms: C_5  and  C_7 
REMARK    5  A    between atoms: C_7  and  C_8 
REMARK    6  A    between atoms: C_8  and  C_9 
REMARK       I    between atoms: C_9  and  N_11 
REMARK    7  A    between atoms: N_11  and  C_12 
REMARK    8  A    between atoms: C_12  and  N_14 
REMARK    9  A    between atoms: N_14  and  C_15 
REMARK   10  A    between atoms: C_19  and  N_20 
REMARK       I    between atoms: N_20  and  C_21 
REMARK   11  A    between atoms: C_21  and  C_23 
ROOT
ATOM      1  N   UNL d   1      11.560   4.422   4.831  0.00  0.00    -0.333 N 
ATOM      2  H   UNL d   1      11.028   4.875   5.561  0.00  0.00     0.168 HD
ENDROOT
BRANCH   1   3
ATOM      3  C   UNL d   1      10.940   3.526   3.909  0.00  0.00     0.178 C 
ATOM      4  S   UNL d   1      11.825   2.365   3.037  0.00  0.00    -0.040 SA
BRANCH   3   5
ATOM      5  N   UNL d   1       9.522   3.615   3.830  0.00  0.00    -0.304 N 
ATOM      6  C   UNL d   1       8.726   2.841   2.959  0.00  0.00     0.224 C 
ATOM      7  O   UNL d   1       9.179   2.096   2.090  0.00  0.00    -0.273 OA
ATOM      8  H   UNL d   1       9.048   4.249   4.460  0.00  0.00     0.171 HD
BRANCH   6   9
ATOM      9  C   UNL d   1       7.206   2.913   3.048  0.00  0.00     0.113 C 
BRANCH   9  10
ATOM     10  C   UNL d   1       6.586   1.940   1.989  0.00  0.00     0.120 C 
BRANCH  10  11
ATOM     11  C   UNL d   1       5.079   1.950   2.001  0.00  0.00     0.259 C 
ATOM     12  O   UNL d   1       4.415   2.651   2.768  0.00  0.00    -0.265 OA
BRANCH  11  13
ATOM     13  O   UNL d   1       4.539   1.100   1.074  0.00  0.00    -0.321 OA
BRANCH  13  14
ATOM     14  C   UNL d   1       3.095   1.089   1.061  0.00  0.00     0.178 C 
BRANCH  14  15
ATOM     15  C   UNL d   1       2.554   0.121   0.005  0.00  0.00     0.022 C 
ATOM     16  C   UNL d   1       1.028   0.104  -0.014  0.00  0.00     0.007 C 
ENDBRANCH  14  15
ENDBRANCH  13  14
ENDBRANCH  11  13
ENDBRANCH  10  11
ENDBRANCH   9  10
ENDBRANCH   6   9
ENDBRANCH   3   5
ENDBRANCH   1   3
BRANCH   1  17
ATOM     17  C   UNL d   1      12.995   4.598   4.914  0.00  0.00     0.036 A 
ATOM     18  C   UNL d   1      13.726   4.658   6.092  0.00  0.00     0.029 A 
ATOM     19  C   UNL d   1      15.134   4.808   6.032  0.00  0.00     0.004 A 
ATOM     20  C   UNL d   1      15.823   4.864   4.799  0.00  0.00     0.029 A 
ATOM     21  C   UNL d   1      15.095   4.848   3.613  0.00  0.00     0.036 A 
ATOM     22  C   UNL d   1      13.706   4.752   3.727  0.00  0.00     0.059 A 
BRANCH  21  23
ATOM     23  N   UNL d   1      15.717   4.944   2.330  0.00  0.00    -0.327 N 
ATOM     24  C   UNL d   1      15.009   4.941   1.127  0.00  0.00     0.225 C 
ATOM     25  O   UNL d   1      13.784   4.885   1.022  0.00  0.00    -0.273 OA
ATOM     26  H   UNL d   1      16.725   5.029   2.307  0.00  0.00     0.169 HD
BRANCH  24  27
ATOM     27  C   UNL d   1      15.800   5.081  -0.163  0.00  0.00     0.070 C 
ATOM     28  C   UNL d   1      16.796   3.949  -0.342  0.00  0.00     0.019 C 
ATOM     29  C   UNL d   1      14.792   5.058  -1.332  0.00  0.00     0.019 C 
ENDBRANCH  24  27
ENDBRANCH  21  23
ENDBRANCH   1  17
TORSDOF 11
