REMARK  10 active torsions:
REMARK  status: ('A' for Active; 'I' for Inactive)
REMARK    1  A    between atoms: C_2  and  C_3 
REMARK       I    between atoms: C_2  and  N_11 
REMARK    2  A    between atoms: C_3  and  C_4 
REMARK    3  A    between atoms: N_11  and  N_12 
REMARK    4  A    between atoms: N_12  and  C_13 
REMARK    5  A    between atoms: C_13  and  N_15 
REMARK       I    between atoms: N_15  and  C_16 
REMARK    6  A    between atoms: C_16  and  C_18 
REMARK    7  A    between atoms: C_23  and  O_24 
REMARK    8  A    between atoms: O_24  and  C_25 
REMARK    9  A    between atoms: C_25  and  C_26 
REMARK   10  A    between atoms: C_26  and  C_27 
ROOT
ATOM      1  N   UNL d   1       6.254  -1.281   2.759  0.00  0.00    -0.298 N 
ATOM      2  C   UNL d   1       7.181  -1.067   3.849  0.00  0.00     0.260 C 
ATOM      3  O   UNL d   1       6.846  -1.109   5.024  0.00  0.00    -0.267 OA
ATOM      4  H   UNL d   1       6.698  -1.372   1.859  0.00  0.00     0.171 HD
ENDROOT
BRANCH   1   5
ATOM      5  C   UNL d   1       4.793  -1.216   2.788  0.00  0.00     0.193 C 
ATOM      6  S   UNL d   1       3.898  -0.834   4.152  0.00  0.00    -0.039 SA
BRANCH   5   7
ATOM      7  N   UNL d   1       4.152  -1.538   1.518  0.00  0.00    -0.273 N 
ATOM      8  H   UNL d   1       4.686  -1.414   0.668  0.00  0.00     0.189 HD
BRANCH   7   9
ATOM      9  N   UNL d   1       2.571  -1.261   1.271  0.00  0.00    -0.268 N 
ATOM     10  C   UNL d   1       1.895  -0.639   0.099  0.00  0.00     0.240 C 
ATOM     11  O   UNL d   1       0.720  -0.347   0.209  0.00  0.00    -0.272 OA
ATOM     12  H   UNL d   1       2.112  -1.005   2.164  0.00  0.00     0.190 HD
BRANCH  10  13
ATOM     13  C   UNL d   1       2.740  -0.135  -1.247  0.00  0.00     0.143 C 
BRANCH  13  14
ATOM     14  C   UNL d   1       1.875   0.292  -2.410  0.00  0.00    -0.049 A 
ATOM     15  C   UNL d   1       1.679   1.635  -2.827  0.00  0.00     0.009 A 
ATOM     16  C   UNL d   1       0.798   1.911  -3.878  0.00  0.00     0.024 A 
ATOM     17  C   UNL d   1       0.140   0.852  -4.503  0.00  0.00     0.034 A 
ATOM     18 CL   UNL d   1      -0.997   1.159  -5.756  0.00  0.00    -0.084 Cl
ATOM     19  C   UNL d   1       0.380  -0.467  -4.120  0.00  0.00     0.024 A 
ATOM     20  C   UNL d   1       1.255  -0.743  -3.087  0.00  0.00     0.009 A 
ENDBRANCH  13  14
ENDBRANCH  10  13
ENDBRANCH   7   9
ENDBRANCH   5   7
ENDBRANCH   1   5
BRANCH   2  21
ATOM     21  C   UNL d   1       8.688  -0.896   3.646  0.00  0.00     0.065 A 
ATOM     22  C   UNL d   1       9.460  -1.812   4.412  0.00  0.00     0.020 A 
ATOM     23  C   UNL d   1      10.847  -1.673   4.588  0.00  0.00     0.001 A 
ATOM     24  C   UNL d   1      11.526  -0.658   3.935  0.00  0.00     0.003 A 
ATOM     25  C   UNL d   1      10.802   0.265   3.189  0.00  0.00     0.038 A 
ATOM     26  C   UNL d   1       9.392   0.197   3.076  0.00  0.00     0.084 A 
BRANCH  26  27
ATOM     27  O   UNL d   1       8.938   1.338   2.451  0.00  0.00    -0.350 OA
BRANCH  27  28
ATOM     28  C   UNL d   1       7.555   1.377   2.222  0.00  0.00     0.180 C 
BRANCH  28  29
ATOM     29  C   UNL d   1       7.099   2.551   1.326  0.00  0.00     0.065 C 
BRANCH  29  30
ATOM     30  C   UNL d   1       5.613   2.554   1.213  0.00  0.00    -0.056 C 
ATOM     31  C   UNL d   1       4.684   3.604   1.276  0.00  0.00     0.007 C 
ATOM     32  C   UNL d   1       3.279   3.392   1.339  0.00  0.00     0.001 C 
ATOM     33  C   UNL d   1       2.791   2.133   1.222  0.00  0.00     0.000 C 
ATOM     34  C   UNL d   1       3.776   1.220   0.984  0.00  0.00     0.001 C 
ATOM     35  C   UNL d   1       5.117   1.343   0.941  0.00  0.00     0.007 C 
ENDBRANCH  29  30
ENDBRANCH  28  29
ENDBRANCH  27  28
ENDBRANCH  26  27
ENDBRANCH   2  21
TORSDOF 10
