@<TRIPOS>MOLECULE
*****
 40 40 0 0 0
SMALL
GASTEIGER

@<TRIPOS>ATOM
      1 C           1.1487    0.1084   -0.0268 C.3     1  UNL1       -0.0570
      2 C           2.6907    0.0137    0.0034 C.3     1  UNL1        0.0215
      3 C           3.1052   -1.3933    0.4523 C.2     1  UNL1        0.2182
      4 O           2.2020   -2.1969    0.7085 O.2     1  UNL1       -0.2754
      5 N           4.4727   -1.7142    0.5547 N.am    1  UNL1       -0.2667
      6 C           4.9967   -2.9706    0.9557 C.2     1  UNL1        0.1530
      7 S           4.0730   -4.3216    1.3862 S.2     1  UNL1       -0.0170
      8 N           6.3991   -3.0763    0.9895 N.am    1  UNL1       -0.2455
      9 N           7.0026   -4.3478    1.3985 N.am    1  UNL1       -0.2323
     10 C           8.3812   -4.5142    1.4604 C.2     1  UNL1        0.2667
     11 O           9.1392   -3.5858    1.1607 O.2     1  UNL1       -0.2705
     12 C           8.8848   -5.9251    1.9105 C.3     1  UNL1        0.1666
     13 O          10.3204   -5.9602    1.9904 O.3     1  UNL1       -0.4827
     14 C          10.9090   -7.1574    2.3140 C.ar    1  UNL1        0.1217
     15 C          10.5269   -8.3852    1.7779 C.ar    1  UNL1       -0.0170
     16 C          11.2073   -9.5661    2.1252 C.ar    1  UNL1       -0.0467
     17 C          10.7664  -10.8847    1.5576 C.3     1  UNL1       -0.0396
     18 C          12.2943   -9.5068    3.0098 C.ar    1  UNL1       -0.0557
     19 C          12.7111   -8.2784    3.5365 C.ar    1  UNL1       -0.0467
     20 C          13.8724   -8.1992    4.4884 C.3     1  UNL1       -0.0396
     21 C          12.0210   -7.1086    3.1661 C.ar    1  UNL1       -0.0170
     22 H           0.7946    1.0947   -0.3416 H       1  UNL1        0.0234
     23 H           0.7223   -0.0970    0.9640 H       1  UNL1        0.0234
     24 H           0.7223   -0.6330   -0.7154 H       1  UNL1        0.0234
     25 H           3.0720    0.7669    0.7000 H       1  UNL1        0.0356
     26 H           3.0720    0.2242   -1.0007 H       1  UNL1        0.0356
     27 H           5.1292   -0.9802    0.3208 H       1  UNL1        0.1565
     28 H           7.0713   -2.3456    0.7572 H       1  UNL1        0.1718
     29 H           6.3358   -5.0844    1.6355 H       1  UNL1        0.1729
     30 H           8.5103   -6.6589    1.1877 H       1  UNL1        0.0795
     31 H           8.4749   -6.1502    2.9034 H       1  UNL1        0.0795
     32 H           9.7206   -8.4444    1.0559 H       1  UNL1        0.0657
     33 H           9.9219  -10.7559    0.8722 H       1  UNL1        0.0278
     34 H          10.4423  -11.5513    2.3630 H       1  UNL1        0.0278
     35 H          11.5802  -11.3569    0.9983 H       1  UNL1        0.0278
     36 H          12.8190  -10.4224    3.2817 H       1  UNL1        0.0623
     37 H          14.2904   -9.1885    4.7077 H       1  UNL1        0.0278
     38 H          13.5504   -7.7607    5.4389 H       1  UNL1        0.0278
     39 H          14.6734   -7.5852    4.0643 H       1  UNL1        0.0278
     40 H          12.3535   -6.1480    3.5541 H       1  UNL1        0.0657
@<TRIPOS>BOND
     1     1     2    1
     2     2     3    1
     3     3     4    2
     4     3     5   am
     5     5     6    1
     6     6     7    2
     7     6     8    1
     8     8     9    1
     9     9    10   am
    10    10    11    2
    11    10    12    1
    12    12    13    1
    13    13    14    1
    14    14    15   ar
    15    15    16   ar
    16    16    17    1
    17    16    18   ar
    18    18    19   ar
    19    19    20    1
    20    19    21   ar
    21    14    21   ar
    22     1    22    1
    23     1    23    1
    24     1    24    1
    25     2    25    1
    26     2    26    1
    27     5    27    1
    28     8    28    1
    29     9    29    1
    30    12    30    1
    31    12    31    1
    32    15    32    1
    33    17    33    1
    34    17    34    1
    35    17    35    1
    36    18    36    1
    37    20    37    1
    38    20    38    1
    39    20    39    1
    40    21    40    1
