REMARK  16 active torsions:
REMARK  status: ('A' for Active; 'I' for Inactive)
REMARK    1  A    between atoms: C_2  and  C_3 
REMARK    2  A    between atoms: C_3  and  C_4 
REMARK    3  A    between atoms: C_6  and  C_7 
REMARK    4  A    between atoms: N_8  and  N_9 
REMARK       I    between atoms: N_9  and  C_10 
REMARK    5  A    between atoms: C_10  and  C_12 
REMARK    6  A    between atoms: C_12  and  C_13 
REMARK    7  A    between atoms: C_13  and  C_14 
REMARK    8  A    between atoms: C_14  and  O_15 
REMARK    9  A    between atoms: C_14  and  C_16 
REMARK   10  A    between atoms: C_19  and  O_20 
REMARK   11  A    between atoms: O_20  and  C_21 
REMARK   12  A    between atoms: C_26  and  O_27 
REMARK   13  A    between atoms: O_27  and  C_28 
REMARK   14  A    between atoms: C_30  and  O_31 
REMARK   15  A    between atoms: O_31  and  C_32 
REMARK   16  A    between atoms: C_32  and  C_33 
ROOT
ATOM      1  C   UNL d   1       4.439   0.724  -0.702  0.00  0.00    -0.018 C 
ATOM      2  C   UNL d   1       5.107  -0.519  -0.590  0.00  0.00     0.023 C 
ATOM      3  C   UNL d   1       6.460  -0.570  -0.282  0.00  0.00    -0.014 C 
ATOM      4  C   UNL d   1       7.175   0.613  -0.323  0.00  0.00     0.052 C 
ATOM      5  C   UNL d   1       6.559   1.848  -0.320  0.00  0.00     0.103 C 
ATOM      6  C   UNL d   1       5.183   1.921  -0.576  0.00  0.00     0.109 C 
ENDROOT
BRANCH   3   7
ATOM      7  C   UNL d   1       7.064  -1.847   0.179  0.00  0.00     0.150 C 
ATOM      8  N   UNL d   1       8.248  -2.087   0.675  0.00  0.00    -0.184 NA
BRANCH   8   9
ATOM      9  N   UNL d   1       9.113  -1.057   0.891  0.00  0.00    -0.247 N 
ATOM     10  C   UNL d   1      10.402  -1.240   1.318  0.00  0.00     0.237 C 
ATOM     11  O   UNL d   1      10.900  -2.329   1.627  0.00  0.00    -0.272 OA
ATOM     12  H   UNL d   1       8.738  -0.144   1.096  0.00  0.00     0.192 HD
BRANCH  10  13
ATOM     13  C   UNL d   1      11.173   0.079   1.346  0.00  0.00     0.107 C 
BRANCH  13  14
ATOM     14  C   UNL d   1      12.560  -0.209   1.869  0.00  0.00     0.046 C 
BRANCH  14  15
ATOM     15  C   UNL d   1      13.504   0.986   1.982  0.00  0.00     0.151 C 
BRANCH  15  16
ATOM     16  O   UNL d   1      12.909   1.966   2.827  0.00  0.00    -0.391 OA
ATOM     17  H   UNL d   1      12.895   1.591   3.724  0.00  0.00     0.210 HD
ENDBRANCH  15  16
BRANCH  15  18
ATOM     18  C   UNL d   1      14.866   0.567   2.514  0.00  0.00    -0.029 A 
ATOM     19  C   UNL d   1      15.840   1.518   2.841  0.00  0.00     0.012 A 
ATOM     20  C   UNL d   1      17.139   1.111   3.185  0.00  0.00     0.037 A 
ATOM     21  C   UNL d   1      17.461  -0.246   3.292  0.00  0.00     0.068 A 
ATOM     22  C   UNL d   1      16.494  -1.192   2.983  0.00  0.00     0.037 A 
ATOM     23  C   UNL d   1      15.222  -0.789   2.603  0.00  0.00     0.012 A 
BRANCH  21  24
ATOM     24  O   UNL d   1      18.726  -0.550   3.719  0.00  0.00    -0.352 OA
BRANCH  24  25
ATOM     25  C   UNL d   1      18.978  -1.941   3.949  0.00  0.00     0.171 C 
ATOM     26  C   UNL d   1      20.369  -2.103   4.525  0.00  0.00     0.034 C 
ENDBRANCH  24  25
ENDBRANCH  21  24
ENDBRANCH  15  18
ENDBRANCH  14  15
ENDBRANCH  13  14
ENDBRANCH  10  13
ENDBRANCH   8   9
ENDBRANCH   3   7
BRANCH   1  27
ATOM     27  C   UNL d   1       2.954   0.656  -0.944  0.00  0.00     0.068 C 
BRANCH  27  28
ATOM     28  C   UNL d   1       2.178  -0.196   0.001  0.00  0.00    -0.032 C 
ATOM     29  C   UNL d   1       0.845  -0.077   0.060  0.00  0.00     0.007 C 
ENDBRANCH  27  28
ENDBRANCH   1  27
BRANCH   5  30
ATOM     30  O   UNL d   1       7.458   2.853  -0.033  0.00  0.00    -0.349 OA
BRANCH  30  31
ATOM     31  C   UNL d   1       6.943   4.173  -0.045  0.00  0.00     0.171 C 
ATOM     32  C   UNL d   1       7.995   5.201   0.282  0.00  0.00     0.034 C 
ENDBRANCH  30  31
ENDBRANCH   5  30
BRANCH   6  33
ATOM     33  O   UNL d   1       4.739   3.194  -0.750  0.00  0.00    -0.343 OA
BRANCH  33  34
ATOM     34  C   UNL d   1       3.410   3.466  -1.091  0.00  0.00     0.214 C 
BRANCH  34  35
ATOM     35  C   UNL d   1       3.113   4.911  -1.255  0.00  0.00    -0.034 A 
ATOM     36  C   UNL d   1       4.113   5.864  -1.391  0.00  0.00     0.009 A 
ATOM     37  C   UNL d   1       3.791   7.202  -1.289  0.00  0.00     0.001 A 
ATOM     38  C   UNL d   1       2.453   7.582  -1.194  0.00  0.00     0.000 A 
ATOM     39  C   UNL d   1       1.439   6.627  -1.145  0.00  0.00     0.001 A 
ATOM     40  C   UNL d   1       1.768   5.286  -1.167  0.00  0.00     0.009 A 
ENDBRANCH  34  35
ENDBRANCH  33  34
ENDBRANCH   6  33
TORSDOF 16
