@<TRIPOS>MOLECULE
*****
 61 64 0 0 0
SMALL
GASTEIGER

@<TRIPOS>ATOM
      1 C           1.1774    0.3325    0.4922 C.3     1  UNL1        0.0790
      2 O           2.5648    0.0983    0.2776 O.3     1  UNL1       -0.4913
      3 C           3.0384   -0.9702   -0.4567 C.ar    1  UNL1        0.1655
      4 C           4.1903   -1.5326    0.1479 C.ar    1  UNL1       -0.0114
      5 C           5.0036   -2.4851   -0.5038 C.ar    1  UNL1       -0.0232
      6 C           6.3569   -2.8558    0.0679 C.3     1  UNL1        0.0371
      7 N           7.1065   -3.8196   -0.7490 N.am    1  UNL1       -0.3110
      8 C           8.3652   -4.2182   -0.4067 C.2     1  UNL1        0.2165
      9 O           8.8906   -3.8468    0.6406 O.2     1  UNL1       -0.2755
     10 C           9.1020   -5.1885   -1.3643 C.3     1  UNL1        0.0379
     11 C           8.3043   -5.9900   -2.4165 C.3     1  UNL1       -0.0286
     12 C           7.4942   -7.1926   -1.8251 C.3     1  UNL1        0.0117
     13 N           8.4610   -8.1833   -0.8522 N.3     1  UNL1       -0.1843
     14 C           7.9894   -9.6034   -0.3938 C.3     1  UNL1        0.4121
     15 N           8.6384  -11.0621    0.2726 N.2     1  UNL1       -0.1606
     16 C           7.7080  -11.5405    1.0559 C.ar    1  UNL1        0.2788
     17 C           7.2327  -12.7215    1.8590 C.ar    1  UNL1        0.0176
     18 C           5.8787  -12.8884    1.7647 C.ar    1  UNL1       -0.0367
     19 C           5.0127  -11.9432    1.0527 C.ar    1  UNL1        0.0476
     20 CL          3.3614  -12.2917    0.7567 Cl      1  UNL1       -0.0833
     21 C           5.4265  -10.7326    0.6967 C.ar    1  UNL1        0.0345
     22 C           6.7664  -10.3986    1.1459 C.ar    1  UNL1        0.2801
     23 N           7.3380   -9.3274    0.9103 N.2     1  UNL1       -0.1605
     24 C           9.0193   -7.2128    0.1534 C.3     1  UNL1        0.0117
     25 C           9.9007   -6.1736   -0.4983 C.3     1  UNL1       -0.0286
     26 C           4.5698   -2.9708   -1.7371 C.ar    1  UNL1       -0.0114
     27 C           3.4658   -2.4266   -2.3813 C.ar    1  UNL1        0.1655
     28 O           3.2981   -2.9525   -3.6524 O.3     1  UNL1       -0.4913
     29 C           2.2621   -2.4074   -4.4710 C.3     1  UNL1        0.0790
     30 C           2.6904   -1.4239   -1.7494 C.ar    1  UNL1        0.2035
     31 O           1.7026   -1.0185   -2.5819 O.3     1  UNL1       -0.4885
     32 C           0.7042   -0.1720   -2.1509 C.3     1  UNL1        0.0791
     33 H           0.9986    0.9125    1.3988 H       1  UNL1        0.0660
     34 H           0.6112   -0.5994    0.5666 H       1  UNL1        0.0660
     35 H           0.7771    1.0324   -0.2421 H       1  UNL1        0.0660
     36 H           4.4673   -1.1809    1.1441 H       1  UNL1        0.0658
     37 H           6.2401   -3.2869    1.0681 H       1  UNL1        0.0512
     38 H           6.9642   -1.9439    0.1589 H       1  UNL1        0.0512
     39 H           6.8450   -3.9116   -1.7145 H       1  UNL1        0.1490
     40 H           9.8197   -4.5506   -1.9041 H       1  UNL1        0.0395
     41 H           9.0154   -6.3969   -3.1473 H       1  UNL1        0.0285
     42 H           7.6707   -5.3010   -3.0009 H       1  UNL1        0.0285
     43 H           6.9918   -7.7732   -2.6062 H       1  UNL1        0.0431
     44 H           6.7265   -6.7573   -1.1631 H       1  UNL1        0.0431
     45 H           7.1616   -9.8948   -1.0689 H       1  UNL1        0.2157
     46 H           9.6097  -11.3589    0.4581 H       1  UNL1        0.4544
     47 H           7.7991  -13.4154    2.4868 H       1  UNL1        0.0686
     48 H           5.3538  -13.7491    2.1985 H       1  UNL1        0.0634
     49 H           4.9094  -10.0540    0.0332 H       1  UNL1        0.0700
     50 H           8.2912   -9.1338    1.3166 H       1  UNL1        0.4544
     51 H           9.5910   -7.7734    0.8848 H       1  UNL1        0.0431
     52 H           8.1515   -6.7458    0.6495 H       1  UNL1        0.0431
     53 H          10.6481   -6.6818   -1.1110 H       1  UNL1        0.0285
     54 H          10.4183   -5.6479    0.3079 H       1  UNL1        0.0285
     55 H           5.0859   -3.7591   -2.2691 H       1  UNL1        0.0658
     56 H           2.2666   -2.8868   -5.4498 H       1  UNL1        0.0660
     57 H           2.4220   -1.3352   -4.6514 H       1  UNL1        0.0660
     58 H           1.2824   -2.6259   -4.0283 H       1  UNL1        0.0660
     59 H          -0.0381    0.0427   -2.9161 H       1  UNL1        0.0660
     60 H           1.2117    0.7682   -1.9565 H       1  UNL1        0.0660
     61 H           0.1641   -0.6980   -1.3637 H       1  UNL1        0.0660
@<TRIPOS>UNITY_ATOM_ATTR
15 1
charge 1
23 1
charge 1
@<TRIPOS>BOND
     1     1     2    1
     2     2     3    1
     3     3     4   ar
     4     4     5   ar
     5     5     6    1
     6     6     7    1
     7     7     8   am
     8     8     9    2
     9     8    10    1
    10    10    11    1
    11    11    12    1
    12    12    13    1
    13    13    14    1
    14    14    15    1
    15    15    16    2
    16    16    17   ar
    17    17    18   ar
    18    18    19   ar
    19    19    20    1
    20    19    21   ar
    21    21    22   ar
    22    16    22   ar
    23    22    23    2
    24    14    23    1
    25    13    24    1
    26    24    25    1
    27    10    25    1
    28     5    26   ar
    29    26    27   ar
    30    27    28    1
    31    28    29    1
    32    27    30   ar
    33     3    30   ar
    34    30    31    1
    35    31    32    1
    36     1    33    1
    37     1    34    1
    38     1    35    1
    39     4    36    1
    40     6    37    1
    41     6    38    1
    42     7    39    1
    43    10    40    1
    44    11    41    1
    45    11    42    1
    46    12    43    1
    47    12    44    1
    48    14    45    1
    49    15    46    1
    50    17    47    1
    51    18    48    1
    52    21    49    1
    53    23    50    1
    54    24    51    1
    55    24    52    1
    56    25    53    1
    57    25    54    1
    58    26    55    1
    59    29    56    1
    60    29    57    1
    61    29    58    1
    62    32    59    1
    63    32    60    1
    64    32    61    1
