REMARK  10 active torsions:
REMARK  status: ('A' for Active; 'I' for Inactive)
REMARK    1  A    between atoms: O_2  and  C_3 
REMARK    2  A    between atoms: C_5  and  C_6 
REMARK       I    between atoms: C_6  and  N_8 
REMARK    3  A    between atoms: N_8  and  N_9 
REMARK    4  A    between atoms: N_9  and  C_10 
REMARK    5  A    between atoms: C_10  and  N_12 
REMARK    6  A    between atoms: N_12  and  C_13 
REMARK    7  A    between atoms: C_13  and  C_14 
REMARK    8  A    between atoms: C_14  and  C_15 
REMARK    9  A    between atoms: C_19  and  O_20 
REMARK   10  A    between atoms: C_22  and  O_23 
ROOT
ATOM      1  C   UNL d   1       6.249  -2.942  -0.522  0.00  0.00     0.270 C 
ATOM      2  O   UNL d   1       6.590  -2.720   0.648  0.00  0.00    -0.266 OA
ATOM      3  N   UNL d   1       7.071  -3.638  -1.401  0.00  0.00    -0.264 N 
ATOM      4  H   UNL d   1       6.845  -3.803  -2.379  0.00  0.00     0.190 HD
ENDROOT
BRANCH   1   5
ATOM      5  C   UNL d   1       4.924  -2.400  -1.041  0.00  0.00     0.039 A 
ATOM      6  C   UNL d   1       4.103  -1.605  -0.203  0.00  0.00     0.057 A 
ATOM      7  C   UNL d   1       2.967  -0.894  -0.683  0.00  0.00     0.105 A 
ATOM      8  C   UNL d   1       2.655  -0.994  -2.053  0.00  0.00     0.135 A 
ATOM      9  C   UNL d   1       3.417  -1.864  -2.881  0.00  0.00     0.105 A 
ATOM     10  C   UNL d   1       4.517  -2.576  -2.366  0.00  0.00     0.057 A 
BRANCH   7  11
ATOM     11  O   UNL d   1       2.467   0.022   0.223  0.00  0.00    -0.353 OA
ATOM     12  C   UNL d   1       1.081   0.025   0.572  0.00  0.00     0.210 C 
ENDBRANCH   7  11
BRANCH   8  13
ATOM     13  O   UNL d   1       1.758  -0.272  -2.773  0.00  0.00    -0.351 OA
ATOM     14  C   UNL d   1       0.751   0.478  -2.183  0.00  0.00     0.210 C 
ENDBRANCH   8  13
BRANCH   9  15
ATOM     15  O   UNL d   1       3.236  -2.072  -4.241  0.00  0.00    -0.353 OA
ATOM     16  C   UNL d   1       2.208  -1.340  -4.913  0.00  0.00     0.210 C 
ENDBRANCH   9  15
ENDBRANCH   1   5
BRANCH   3  17
ATOM     17  N   UNL d   1       8.358  -4.139  -1.009  0.00  0.00    -0.274 N 
ATOM     18  H   UNL d   1       8.639  -3.940  -0.052  0.00  0.00     0.189 HD
BRANCH  17  19
ATOM     19  C   UNL d   1       9.129  -4.856  -1.924  0.00  0.00     0.186 C 
ATOM     20  S   UNL d   1       8.609  -5.126  -3.506  0.00  0.00    -0.040 SA
BRANCH  19  21
ATOM     21  N   UNL d   1      10.340  -5.328  -1.422  0.00  0.00    -0.366 N 
ATOM     22  H   UNL d   1      10.610  -5.098  -0.475  0.00  0.00     0.161 HD
BRANCH  21  23
ATOM     23  C   UNL d   1      11.302  -6.085  -2.237  0.00  0.00     0.122 C 
BRANCH  23  24
ATOM     24  C   UNL d   1      12.601  -6.494  -1.534  0.00  0.00     0.023 C 
BRANCH  24  25
ATOM     25  C   UNL d   1      13.547  -7.286  -2.473  0.00  0.00    -0.021 C 
ATOM     26  C   UNL d   1      13.947  -6.471  -3.706  0.00  0.00     0.009 C 
ATOM     27  C   UNL d   1      14.813  -7.712  -1.725  0.00  0.00     0.009 C 
ENDBRANCH  24  25
ENDBRANCH  23  24
ENDBRANCH  21  23
ENDBRANCH  19  21
ENDBRANCH  17  19
ENDBRANCH   3  17
TORSDOF 10
