@<TRIPOS>MOLECULE
*****
 54 58 0 0 0
SMALL
GASTEIGER

@<TRIPOS>ATOM
      1 C           1.0737    0.1238   -0.0383 C.3     1  UNL1       -0.0199
      2 C           2.5532   -0.0247   -0.0280 C.ar    1  UNL1        0.0704
      3 N           3.3396    1.0548    0.0693 N.ar    1  UNL1       -0.1691
      4 N           4.6091    0.5709   -0.0240 N.ar    1  UNL1       -0.2138
      5 C           5.7008    1.4795   -0.0402 C.ar    1  UNL1        0.0677
      6 C           6.5743    1.5239   -1.1312 C.ar    1  UNL1       -0.0362
      7 C           7.4682    2.5963   -1.2436 C.ar    1  UNL1       -0.0598
      8 C           7.6837    3.4469   -0.1595 C.ar    1  UNL1       -0.0616
      9 C           6.8973    3.3200    0.9832 C.ar    1  UNL1       -0.0598
     10 C           5.8336    2.4125    0.9974 C.ar    1  UNL1       -0.0362
     11 C           4.6327   -0.8204   -0.0818 C.ar    1  UNL1        0.1648
     12 N           5.7286   -1.6232   -0.0764 N.ar    1  UNL1       -0.2272
     13 C           5.4395   -2.9426   -0.0713 C.ar    1  UNL1        0.0741
     14 C           6.5684   -3.8905   -0.0528 C.ar    1  UNL1        0.0005
     15 C           7.4140   -4.0006    1.0613 C.ar    1  UNL1       -0.0512
     16 C           8.2771   -5.0953    1.1908 C.ar    1  UNL1       -0.0428
     17 C           8.4859   -5.9420    0.1062 C.ar    1  UNL1        0.0410
     18 CL          9.7075   -7.1496    0.1830 Cl      1  UNL1       -0.0835
     19 C           7.7354   -5.7887   -1.0537 C.ar    1  UNL1       -0.0428
     20 C           6.7303   -4.8195   -1.0983 C.ar    1  UNL1       -0.0512
     21 C           4.1414   -3.4662   -0.0682 C.ar    1  UNL1       -0.0228
     22 C           3.0206   -2.6272   -0.0763 C.ar    1  UNL1        0.0528
     23 C           1.6168   -3.1711   -0.0509 C.2     1  UNL1        0.2641
     24 O           0.6361   -2.4227   -0.0009 O.2     1  UNL1       -0.2684
     25 N           1.4387   -4.5370   -0.0833 N.am    1  UNL1       -0.2029
     26 N           0.1668   -5.0592   -0.0237 N.2     1  UNL1       -0.1875
     27 C           0.0075   -6.3489   -0.0162 C.2     1  UNL1        0.0528
     28 C           1.0861   -7.3483    0.0159 C.ar    1  UNL1       -0.0053
     29 C           1.1160   -8.3528   -0.9498 C.ar    1  UNL1       -0.0504
     30 C           2.3038   -9.0600   -1.1310 C.ar    1  UNL1       -0.0258
     31 C           3.3408   -8.9160   -0.2110 C.ar    1  UNL1        0.1234
     32 F           4.4337   -9.6788   -0.3261 F       1  UNL1       -0.2055
     33 C           3.2541   -8.0086    0.8374 C.ar    1  UNL1       -0.0258
     34 C           2.1390   -7.1874    0.9249 C.ar    1  UNL1       -0.0504
     35 C           3.2960   -1.2379   -0.0668 C.ar    1  UNL1        0.0540
     36 H           0.7311    1.1581   -0.0474 H       1  UNL1        0.0293
     37 H           0.6539   -0.3440    0.8597 H       1  UNL1        0.0293
     38 H           0.6629   -0.3533   -0.9373 H       1  UNL1        0.0293
     39 H           6.5287    0.7877   -1.9278 H       1  UNL1        0.0639
     40 H           7.9939    2.7772   -2.1788 H       1  UNL1        0.0618
     41 H           8.4608    4.2070   -0.2068 H       1  UNL1        0.0618
     42 H           7.0949    3.9482    1.8482 H       1  UNL1        0.0618
     43 H           5.1469    2.4070    1.8401 H       1  UNL1        0.0639
     44 H           7.3837   -3.2526    1.8514 H       1  UNL1        0.0625
     45 H           8.7845   -5.2772    2.1349 H       1  UNL1        0.0632
     46 H           7.9113   -6.4269   -1.9152 H       1  UNL1        0.0632
     47 H           6.0705   -4.7884   -1.9634 H       1  UNL1        0.0625
     48 H           4.0448   -4.5437   -0.0399 H       1  UNL1        0.0647
     49 H           2.2133   -5.1635   -0.2281 H       1  UNL1        0.1776
     50 H          -1.0263   -6.7347   -0.0632 H       1  UNL1        0.0851
     51 H           0.2581   -8.5576   -1.5853 H       1  UNL1        0.0625
     52 H           2.4353   -9.7131   -1.9886 H       1  UNL1        0.0646
     53 H           4.0597   -7.9246    1.5587 H       1  UNL1        0.0646
     54 H           2.0997   -6.4003    1.6760 H       1  UNL1        0.0625
@<TRIPOS>BOND
     1     1     2    1
     2     2     3   ar
     3     3     4   ar
     4     4     5    1
     5     5     6   ar
     6     6     7   ar
     7     7     8   ar
     8     8     9   ar
     9     9    10   ar
    10     5    10   ar
    11     4    11   ar
    12    11    12   ar
    13    12    13   ar
    14    13    14    1
    15    14    15   ar
    16    15    16   ar
    17    16    17   ar
    18    17    18    1
    19    17    19   ar
    20    19    20   ar
    21    14    20   ar
    22    13    21   ar
    23    21    22   ar
    24    22    23    1
    25    23    24    2
    26    23    25   am
    27    25    26    1
    28    26    27    2
    29    27    28    1
    30    28    29   ar
    31    29    30   ar
    32    30    31   ar
    33    31    32    1
    34    31    33   ar
    35    33    34   ar
    36    28    34   ar
    37    22    35   ar
    38     2    35   ar
    39    11    35   ar
    40     1    36    1
    41     1    37    1
    42     1    38    1
    43     6    39    1
    44     7    40    1
    45     8    41    1
    46     9    42    1
    47    10    43    1
    48    15    44    1
    49    16    45    1
    50    19    46    1
    51    20    47    1
    52    21    48    1
    53    25    49    1
    54    27    50    1
    55    29    51    1
    56    30    52    1
    57    33    53    1
    58    34    54    1
