REMARK  15 active torsions:
REMARK  status: ('A' for Active; 'I' for Inactive)
REMARK    1  A    between atoms: C_2  and  C_35 
REMARK    2  A    between atoms: C_2  and  C_3 
REMARK    3  A    between atoms: C_3  and  C_4 
REMARK       I    between atoms: C_4  and  N_6 
REMARK    4  A    between atoms: N_6  and  C_7 
REMARK    5  A    between atoms: C_9  and  N_10 
REMARK       I    between atoms: N_10  and  C_11 
REMARK    6  A    between atoms: C_11  and  C_13 
REMARK    7  A    between atoms: C_14  and  C_13 
REMARK    8  A    between atoms: C_14  and  C_16 
REMARK    9  A    between atoms: C_16  and  C_17 
REMARK   10  A    between atoms: C_22  and  N_23 
REMARK       I    between atoms: N_23  and  C_24 
REMARK   11  A    between atoms: C_24  and  C_26 
REMARK   12  A    between atoms: C_27  and  C_26 
REMARK   13  A    between atoms: C_27  and  C_29 
REMARK   14  A    between atoms: C_29  and  C_30 
REMARK   15  A    between atoms: C_35  and  C_36 
ROOT
ATOM      1  C   UNL d   1      -0.148   6.551  -4.106  0.00  0.00     0.760 A 
ATOM      2  N   UNL d   1      -0.345   7.008  -5.319  0.00  0.00     0.132 NA
ATOM      3  C   UNL d   1      -1.339   7.845  -5.481  0.00  0.00     0.760 A 
ATOM      4  N   UNL d   1      -2.176   8.181  -4.525  0.00  0.00     0.132 NA
ATOM      5  C   UNL d   1      -1.840   7.654  -3.348  0.00  0.00     0.760 A 
ATOM      6  N   UNL d   1      -0.869   6.832  -3.079  0.00  0.00     0.132 NA
ENDROOT
BRANCH   1   7
ATOM      7  N   UNL d   1       0.880   5.681  -3.857  0.00  0.00    -0.155 N 
ATOM      8  C   UNL d   1       2.104   6.116  -4.246  0.00  0.00     0.236 C 
ATOM      9  O   UNL d   1       2.299   7.257  -4.696  0.00  0.00    -0.273 OA
ATOM     10  H   UNL d   1       0.804   5.227  -2.959  0.00  0.00     0.187 HD
BRANCH   8  11
ATOM     11  C   UNL d   1       3.207   5.124  -4.000  0.00  0.00     0.108 C 
BRANCH  11  12
ATOM     12  C   UNL d   1       4.483   5.472  -4.782  0.00  0.00    -0.009 C 
ATOM     13  C   UNL d   1       4.129   6.032  -6.168  0.00  0.00     0.010 C 
BRANCH  12  14
ATOM     14  C   UNL d   1       5.407   6.388  -3.937  0.00  0.00     0.013 C 
BRANCH  14  15
ATOM     15  C   UNL d   1       6.746   6.805  -4.608  0.00  0.00    -0.051 C 
ATOM     16  C   UNL d   1       7.544   5.545  -4.979  0.00  0.00     0.014 C 
ATOM     17  C   UNL d   1       6.557   7.700  -5.844  0.00  0.00     0.014 C 
ATOM     18  C   UNL d   1       7.567   7.654  -3.623  0.00  0.00     0.014 C 
ENDBRANCH  14  15
ENDBRANCH  12  14
ENDBRANCH  11  12
ENDBRANCH   8  11
ENDBRANCH   1   7
BRANCH   3  19
ATOM     19  N   UNL d   1      -1.545   8.382  -6.734  0.00  0.00    -0.155 N 
ATOM     20  C   UNL d   1      -0.830   7.966  -7.819  0.00  0.00     0.236 C 
ATOM     21  O   UNL d   1       0.173   7.247  -7.810  0.00  0.00    -0.273 OA
ATOM     22  H   UNL d   1      -2.280   9.067  -6.798  0.00  0.00     0.187 HD
BRANCH  20  23
ATOM     23  C   UNL d   1      -1.262   8.500  -9.145  0.00  0.00     0.108 C 
BRANCH  23  24
ATOM     24  C   UNL d   1      -2.608   9.183  -9.350  0.00  0.00    -0.009 C 
ATOM     25  C   UNL d   1      -3.771   8.386  -8.755  0.00  0.00     0.010 C 
BRANCH  24  26
ATOM     26  C   UNL d   1      -2.926   9.390 -10.858  0.00  0.00     0.013 C 
BRANCH  26  27
ATOM     27  C   UNL d   1      -1.916  10.203 -11.713  0.00  0.00    -0.051 C 
ATOM     28  C   UNL d   1      -1.749  11.602 -11.107  0.00  0.00     0.014 C 
ATOM     29  C   UNL d   1      -0.551   9.513 -11.878  0.00  0.00     0.014 C 
ATOM     30  C   UNL d   1      -2.475  10.335 -13.143  0.00  0.00     0.014 C 
ENDBRANCH  26  27
ENDBRANCH  24  26
ENDBRANCH  23  24
ENDBRANCH  20  23
ENDBRANCH   3  19
BRANCH   5  31
ATOM     31  N   UNL d   1      -2.691   7.941  -2.339  0.00  0.00    -0.155 N 
ATOM     32  C   UNL d   1      -2.530   7.608  -1.034  0.00  0.00     0.236 C 
ATOM     33  O   UNL d   1      -1.551   7.025  -0.566  0.00  0.00    -0.273 OA
ATOM     34  H   UNL d   1      -3.506   8.281  -2.781  0.00  0.00     0.187 HD
BRANCH  32  35
ATOM     35  C   UNL d   1      -3.558   8.116  -0.059  0.00  0.00     0.108 C 
BRANCH  35  36
ATOM     36  C   UNL d   1      -4.833   8.907  -0.413  0.00  0.00    -0.009 C 
ATOM     37  C   UNL d   1      -5.221   8.861  -1.871  0.00  0.00     0.010 C 
BRANCH  36  38
ATOM     38  C   UNL d   1      -4.709  10.394  -0.024  0.00  0.00     0.013 C 
BRANCH  38  39
ATOM     39  C   UNL d   1      -4.716  10.694   1.492  0.00  0.00    -0.051 C 
ATOM     40  C   UNL d   1      -6.013  10.155   2.107  0.00  0.00     0.014 C 
ATOM     41  C   UNL d   1      -3.524  10.090   2.246  0.00  0.00     0.014 C 
ATOM     42  C   UNL d   1      -4.638  12.215   1.670  0.00  0.00     0.014 C 
ENDBRANCH  38  39
ENDBRANCH  36  38
ENDBRANCH  35  36
ENDBRANCH  32  35
ENDBRANCH   5  31
TORSDOF 15
