REMARK  3 active torsions:
REMARK  status: ('A' for Active; 'I' for Inactive)
REMARK    1  A    between atoms: C_2  and  C_14 
REMARK    2  A    between atoms: N_3  and  N_4 
REMARK       I    between atoms: N_4  and  C_5 
REMARK       I    between atoms: C_5  and  N_7 
REMARK    3  A    between atoms: N_7  and  C_8 
ROOT
ATOM      1  N   UNL d   1       4.543  -1.203  -0.619  0.00  0.00    -0.229 N 
ATOM      2  C   UNL d   1       5.172  -2.215  -1.334  0.00  0.00     0.341 C 
ATOM      3  O   UNL d   1       4.542  -3.085  -1.943  0.00  0.00    -0.245 OA
ATOM      4  N   UNL d   1       6.567  -2.163  -1.280  0.00  0.00    -0.308 N 
ATOM      5  H   UNL d   1       5.085  -0.551  -0.074  0.00  0.00     0.194 HD
ATOM      6  H   UNL d   1       7.011  -1.568  -0.596  0.00  0.00     0.170 HD
ENDROOT
BRANCH   1   7
ATOM      7  N   UNL d   1       3.161  -1.115  -0.619  0.00  0.00    -0.180 NA
ATOM      8  C   UNL d   1       2.545  -0.114  -0.062  0.00  0.00     0.033 C 
ATOM      9  C   UNL d   1       1.031  -0.079  -0.021  0.00  0.00     0.068 C 
BRANCH   8  10
ATOM     10  C   UNL d   1       3.251   1.019   0.598  0.00  0.00     0.035 A 
ATOM     11  C   UNL d   1       4.430   1.629  -0.135  0.00  0.00     0.011 A 
ATOM     12  C   UNL d   1       3.210   2.449   0.100  0.00  0.00     0.011 A 
ENDBRANCH   8  10
ENDBRANCH   1   7
BRANCH   4  13
ATOM     13  C   UNL d   1       7.380  -3.150  -1.900  0.00  0.00     0.036 A 
ATOM     14  C   UNL d   1       8.509  -3.653  -1.242  0.00  0.00     0.029 A 
ATOM     15  C   UNL d   1       9.313  -4.625  -1.859  0.00  0.00     0.002 A 
ATOM     16  C   UNL d   1       8.985  -5.112  -3.124  0.00  0.00     0.000 A 
ATOM     17  C   UNL d   1       7.877  -4.598  -3.791  0.00  0.00     0.002 A 
ATOM     18  C   UNL d   1       7.082  -3.624  -3.181  0.00  0.00     0.029 A 
ENDBRANCH   4  13
TORSDOF 3
