REMARK  6 active torsions:
REMARK  status: ('A' for Active; 'I' for Inactive)
REMARK    1  A    between atoms: C_3  and  N_4 
REMARK       I    between atoms: N_4  and  C_5 
REMARK    2  A    between atoms: C_5  and  C_7 
REMARK    3  A    between atoms: C_7  and  C_8 
REMARK    4  A    between atoms: C_11  and  N_12 
REMARK       I    between atoms: N_12  and  C_13 
REMARK       I    between atoms: C_13  and  N_15 
REMARK    5  A    between atoms: N_15  and  C_16 
REMARK    6  A    between atoms: N_25  and  C_26 
ROOT
ATOM      1  N   UNL d   1       3.257   2.667  -0.041  0.00  0.00    -0.321 N 
ATOM      2  C   UNL d   1       2.029   3.277  -0.048  0.00  0.00     0.228 C 
ATOM      3  O   UNL d   1       1.061   2.523  -0.039  0.00  0.00    -0.273 OA
ATOM      4  H   UNL d   1       4.111   3.223  -0.046  0.00  0.00     0.169 HD
ENDROOT
BRANCH   2   5
ATOM      5  C   UNL d   1       1.701   4.785  -0.051  0.00  0.00     0.163 C 
BRANCH   5   6
ATOM      6  C   UNL d   1       0.136   5.040  -0.044  0.00  0.00     0.052 A 
ATOM      7  C   UNL d   1      -0.901   4.109  -0.041  0.00  0.00     0.081 A 
ATOM      8  S   UNL d   1      -2.448   4.821  -0.021  0.00  0.00    -0.062 SA
ATOM      9  C   UNL d   1      -1.696   6.343  -0.029  0.00  0.00     0.174 A 
ATOM     10  N   UNL d   1      -0.374   6.348  -0.038  0.00  0.00    -0.228 NA
BRANCH   9  11
ATOM     11  N   UNL d   1      -2.616   7.369  -0.032  0.00  0.00    -0.287 N 
ATOM     12  C   UNL d   1      -2.196   8.665  -0.060  0.00  0.00     0.322 C 
ATOM     13  O   UNL d   1      -1.018   9.010  -0.051  0.00  0.00    -0.247 OA
ATOM     14  N   UNL d   1      -3.211   9.617  -0.118  0.00  0.00    -0.338 N 
ATOM     15  H   UNL d   1      -4.174   9.363   0.055  0.00  0.00     0.164 HD
ATOM     16  H   UNL d   1      -3.588   7.108  -0.024  0.00  0.00     0.172 HD
BRANCH  14  17
ATOM     17  C   UNL d   1      -2.791  11.021  -0.026  0.00  0.00     0.086 C 
ATOM     18  C   UNL d   1      -3.796  12.067  -0.535  0.00  0.00     0.025 C 
ATOM     19  C   UNL d   1      -3.183  13.480  -0.457  0.00  0.00     0.002 C 
ATOM     20  C   UNL d   1      -2.706  13.823   0.954  0.00  0.00     0.000 C 
ATOM     21  C   UNL d   1      -1.739  12.766   1.472  0.00  0.00     0.002 C 
ATOM     22  C   UNL d   1      -2.356  11.372   1.407  0.00  0.00     0.025 C 
ENDBRANCH  14  17
ENDBRANCH   9  11
ENDBRANCH   5   6
ENDBRANCH   2   5
BRANCH   1  23
ATOM     23  C   UNL d   1       3.429   1.252  -0.050  0.00  0.00     0.129 C 
ATOM     24  C   UNL d   1       2.591   0.167  -0.088  0.00  0.00     0.057 C 
ATOM     25  C   UNL d   1       1.085  -0.042  -0.073  0.00  0.00     0.072 C 
ATOM     26  N   UNL d   1       3.312  -1.041  -0.173  0.00  0.00    -0.289 N 
ATOM     27  N   UNL d   1       4.653  -0.776   0.047  0.00  0.00    -0.217 N 
ATOM     28  C   UNL d   1       2.769  -2.386  -0.022  0.00  0.00     0.178 C 
ATOM     29  C   UNL d   1       4.830   0.618   0.004  0.00  0.00     0.295 C 
ATOM     30  O   UNL d   1       5.870   1.264  -0.017  0.00  0.00    -0.264 OA
BRANCH  27  31
ATOM     31  C   UNL d   1       5.660  -1.757  -0.097  0.00  0.00     0.060 A 
ATOM     32  C   UNL d   1       6.649  -1.867   0.884  0.00  0.00     0.031 A 
ATOM     33  C   UNL d   1       7.654  -2.834   0.772  0.00  0.00     0.002 A 
ATOM     34  C   UNL d   1       7.639  -3.747  -0.282  0.00  0.00     0.000 A 
ATOM     35  C   UNL d   1       6.638  -3.674  -1.247  0.00  0.00     0.002 A 
ATOM     36  C   UNL d   1       5.658  -2.680  -1.158  0.00  0.00     0.031 A 
ENDBRANCH  27  31
ENDBRANCH   1  23
TORSDOF 6
