REMARK  8 active torsions:
REMARK  status: ('A' for Active; 'I' for Inactive)
REMARK       I    between atoms: C_2  and  N_3 
REMARK    1  A    between atoms: C_2  and  C_24 
REMARK    2  A    between atoms: N_3  and  N_4 
REMARK    3  A    between atoms: C_5  and  C_6 
REMARK    4  A    between atoms: C_5  and  C_18 
REMARK    5  A    between atoms: N_7  and  N_8 
REMARK       I    between atoms: N_8  and  C_9 
REMARK    6  A    between atoms: C_9  and  C_11 
REMARK    7  A    between atoms: C_14  and  O_15 
REMARK    8  A    between atoms: C_27  and  O_28 
ROOT
ATOM      1  N   UNL d   1       2.232   0.557   2.351  0.00  0.00    -0.170 NA
ATOM      2  C   UNL d   1       2.935   0.888   3.404  0.00  0.00     0.106 C 
ENDROOT
BRANCH   2   3
ATOM      3  C   UNL d   1       4.471   0.892   3.435  0.00  0.00     0.173 C 
ATOM      4  N   UNL d   1       5.143   0.585   2.370  0.00  0.00    -0.182 NA
BRANCH   4   5
ATOM      5  N   UNL d   1       6.514   0.558   2.408  0.00  0.00    -0.243 N 
ATOM      6  C   UNL d   1       7.191   0.271   1.221  0.00  0.00     0.271 C 
ATOM      7  O   UNL d   1       6.629   0.028   0.151  0.00  0.00    -0.266 OA
ATOM      8  H   UNL d   1       7.010   0.832   3.248  0.00  0.00     0.192 HD
BRANCH   6   9
ATOM      9  C   UNL d   1       8.680   0.285   1.248  0.00  0.00     0.033 A 
ATOM     10  C   UNL d   1       9.409  -0.321   2.279  0.00  0.00     0.020 A 
ATOM     11  C   UNL d   1      10.813  -0.341   2.235  0.00  0.00     0.037 A 
ATOM     12  C   UNL d   1      11.481   0.245   1.162  0.00  0.00     0.065 A 
ATOM     13  C   UNL d   1      10.769   0.843   0.130  0.00  0.00     0.037 A 
ATOM     14  C   UNL d   1       9.370   0.852   0.164  0.00  0.00     0.020 A 
BRANCH  12  15
ATOM     15  O   UNL d   1      12.841   0.253   1.068  0.00  0.00    -0.361 OA
ATOM     16  H   UNL d   1      13.229  -0.229   1.817  0.00  0.00     0.217 HD
ENDBRANCH  12  15
ENDBRANCH   6   9
ENDBRANCH   4   5
ENDBRANCH   2   3
BRANCH   2  17
ATOM     17  C   UNL d   1       2.218   1.213   4.693  0.00  0.00    -0.004 A 
ATOM     18  C   UNL d   1       2.656   2.233   5.550  0.00  0.00     0.014 A 
ATOM     19  C   UNL d   1       2.063   2.408   6.811  0.00  0.00     0.001 A 
ATOM     20  C   UNL d   1       0.980   1.619   7.197  0.00  0.00     0.000 A 
ATOM     21  C   UNL d   1       0.499   0.641   6.329  0.00  0.00     0.001 A 
ATOM     22  C   UNL d   1       1.113   0.439   5.083  0.00  0.00     0.014 A 
ENDBRANCH   2  17
BRANCH   1  23
ATOM     23  N   UNL d   1       2.878   0.214   1.178  0.00  0.00    -0.242 N 
ATOM     24  C   UNL d   1       2.162  -0.062   0.019  0.00  0.00     0.271 C 
ATOM     25  O   UNL d   1       0.934  -0.035  -0.077  0.00  0.00    -0.266 OA
ATOM     26  H   UNL d   1       3.903   0.253   1.156  0.00  0.00     0.192 HD
BRANCH  24  27
ATOM     27  C   UNL d   1       2.966  -0.380  -1.204  0.00  0.00     0.033 A 
ATOM     28  C   UNL d   1       2.563   0.141  -2.445  0.00  0.00     0.020 A 
ATOM     29  C   UNL d   1       3.292  -0.135  -3.614  0.00  0.00     0.037 A 
ATOM     30  C   UNL d   1       4.414  -0.953  -3.541  0.00  0.00     0.065 A 
ATOM     31  C   UNL d   1       4.800  -1.509  -2.326  0.00  0.00     0.037 A 
ATOM     32  C   UNL d   1       4.079  -1.226  -1.157  0.00  0.00     0.020 A 
BRANCH  30  33
ATOM     33  O   UNL d   1       5.173  -1.247  -4.636  0.00  0.00    -0.361 OA
ATOM     34  H   UNL d   1       4.830  -0.766  -5.406  0.00  0.00     0.217 HD
ENDBRANCH  30  33
ENDBRANCH  24  27
ENDBRANCH   1  23
TORSDOF 8
