REMARK  4 active torsions:
REMARK  status: ('A' for Active; 'I' for Inactive)
REMARK       I    between atoms: C_2  and  N_3 
REMARK    1  A    between atoms: C_2  and  C_10 
REMARK    2  A    between atoms: N_3  and  C_4 
REMARK    3  A    between atoms: C_13  and  N_14 
REMARK       I    between atoms: N_14  and  C_15 
REMARK    4  A    between atoms: C_15  and  C_17 
ROOT
ATOM      1  C   UNL d   1       2.966   0.677  -1.201  0.00  0.00     0.032 C 
ATOM      2  C   UNL d   1       4.053   0.121  -1.867  0.00  0.00     0.019 C 
ATOM      3  C   UNL d   1       4.726   0.836  -3.018  0.00  0.00     0.030 C 
ATOM      4  C   UNL d   1       4.276   2.077  -3.684  0.00  0.00     0.034 C 
ATOM      5  C   UNL d   1       3.201   2.595  -2.908  0.00  0.00     0.030 C 
ATOM      6  C   UNL d   1       2.563   1.915  -1.728  0.00  0.00     0.019 C 
ENDROOT
BRANCH   4   7
ATOM      7  N   UNL d   1       4.928   2.670  -5.184  0.00  0.00    -0.325 N 
ATOM      8  C   UNL d   1       4.425   3.924  -6.253  0.00  0.00     0.262 C 
ATOM      9  O   UNL d   1       3.548   4.497  -5.521  0.00  0.00    -0.270 OA
ATOM     10  H   UNL d   1       5.745   2.103  -5.369  0.00  0.00     0.169 HD
BRANCH   8  11
ATOM     11  C   UNL d   1       4.984   4.727  -7.962  0.00  0.00     0.217 C 
ATOM     12  N   UNL d   1       4.741   5.662  -7.084  0.00  0.00    -0.206 NA
ATOM     13  N   UNL d   1       5.413   6.766  -7.099  0.00  0.00    -0.149 NA
ATOM     14  C   UNL d   1       4.650   7.614  -7.822  0.00  0.00     0.251 C 
ATOM     15  H   UNL d   1       6.321   6.504  -7.515  0.00  0.00     0.158 HD
ATOM     16  O   UNL d   1       3.512   8.034  -7.757  0.00  0.00    -0.272 OA
ATOM     17  C   UNL d   1       5.222   7.496  -9.080  0.00  0.00     0.037 C 
ATOM     18  C   UNL d   1       5.536   8.924  -9.595  0.00  0.00     0.017 C 
ATOM     19  C   UNL d   1       5.343   6.103  -9.428  0.00  0.00     0.001 C 
ATOM     20  C   UNL d   1       6.014   9.250 -10.825  0.00  0.00     0.001 C 
ATOM     21  C   UNL d   1       6.183   8.071 -11.510  0.00  0.00     0.001 C 
ATOM     22  C   UNL d   1       5.848   6.541 -10.866  0.00  0.00     0.011 C 
ENDBRANCH   8  11
ENDBRANCH   4   7
BRANCH   1  23
ATOM     23  C   UNL d   1       2.189   0.044  -0.037  0.00  0.00     0.252 C 
ATOM     24  O   UNL d   1       0.961   0.088  -0.041  0.00  0.00    -0.268 OA
ATOM     25  N   UNL d   1       2.892  -0.523   1.025  0.00  0.00    -0.352 N 
ATOM     26  H   UNL d   1       3.900  -0.468   1.044  0.00  0.00     0.163 HD
BRANCH  25  27
ATOM     27  C   UNL d   1       2.227  -1.095   2.223  0.00  0.00     0.084 C 
ATOM     28  C   UNL d   1       2.665  -2.554   2.413  0.00  0.00     0.025 C 
ATOM     29  C   UNL d   1       2.104  -3.185   3.687  0.00  0.00     0.002 C 
ATOM     30  C   UNL d   1       2.452  -2.363   4.921  0.00  0.00     0.000 C 
ATOM     31  C   UNL d   1       1.969  -0.927   4.757  0.00  0.00     0.002 C 
ATOM     32  C   UNL d   1       2.542  -0.281   3.491  0.00  0.00     0.025 C 
ENDBRANCH  25  27
ENDBRANCH   1  23
TORSDOF 4
