REMARK  5 active torsions:
REMARK  status: ('A' for Active; 'I' for Inactive)
REMARK    1  A    between atoms: C_2  and  O_3 
REMARK    2  A    between atoms: O_3  and  C_4 
REMARK       I    between atoms: C_4  and  N_6 
REMARK    3  A    between atoms: C_17  and  C_18 
REMARK    4  A    between atoms: C_21  and  O_22 
REMARK    5  A    between atoms: C_25  and  O_26 
ROOT
ATOM      1  C   UNL d   1       4.348  -1.081   1.244  0.00  0.00     0.363 C 
ATOM      2  O   UNL d   1       5.126  -0.315   0.686  0.00  0.00    -0.238 OA
ATOM      3  N   UNL d   1       4.738  -1.968   2.245  0.00  0.00    -0.323 N 
ATOM      4  C   UNL d   1       4.174  -3.319   2.371  0.00  0.00     0.133 C 
ATOM      5  C   UNL d   1       5.195  -4.384   1.936  0.00  0.00     0.061 C 
ATOM      6  C   UNL d   1       6.514  -4.124   2.575  0.00  0.00    -0.023 A 
ATOM      7  C   UNL d   1       6.848  -2.885   3.081  0.00  0.00     0.010 A 
ATOM      8  S   UNL d   1       8.404  -2.890   3.785  0.00  0.00    -0.074 SA
ATOM      9  C   UNL d   1       8.649  -4.512   3.330  0.00  0.00     0.088 A 
ATOM     10  C   UNL d   1       7.561  -5.062   2.695  0.00  0.00     0.073 A 
ATOM     11  C   UNL d   1       7.576  -6.426   2.223  0.00  0.00     0.256 A 
ATOM     12  O   UNL d   1       6.638  -6.979   1.641  0.00  0.00    -0.267 OA
ATOM     13  N   UNL d   1       8.713  -7.102   2.452  0.00  0.00    -0.331 N 
ATOM     14  C   UNL d   1       9.879  -6.545   3.047  0.00  0.00     0.222 A 
ATOM     15  N   UNL d   1       9.774  -5.202   3.538  0.00  0.00    -0.358 N 
ATOM     16  C   UNL d   1       5.932  -1.693   3.076  0.00  0.00     0.174 C 
ATOM     17  H   UNL d   1       8.757  -8.052   2.112  0.00  0.00     0.165 HD
ATOM     18  H   UNL d   1      10.602  -4.816   3.982  0.00  0.00     0.162 HD
ENDROOT
BRANCH  14  19
ATOM     19  C   UNL d   1      11.012  -6.654   2.076  0.00  0.00     0.017 A 
ATOM     20  C   UNL d   1      10.827  -5.988   0.832  0.00  0.00     0.017 A 
ATOM     21  C   UNL d   1      11.718  -6.136  -0.221  0.00  0.00     0.037 A 
ATOM     22  C   UNL d   1      12.881  -6.863  -0.021  0.00  0.00     0.070 A 
ATOM     23  C   UNL d   1      13.091  -7.501   1.210  0.00  0.00     0.074 A 
ATOM     24  C   UNL d   1      12.172  -7.405   2.273  0.00  0.00     0.081 A 
BRANCH  22  25
ATOM     25  O   UNL d   1      13.740  -6.858  -1.085  0.00  0.00    -0.356 OA
ATOM     26  C   UNL d   1      15.008  -7.463  -0.869  0.00  0.00     0.210 C 
ENDBRANCH  22  25
BRANCH  24  27
ATOM     27  O   UNL d   1      12.571  -8.087   3.396  0.00  0.00    -0.355 OA
ATOM     28  C   UNL d   1      11.760  -8.051   4.561  0.00  0.00     0.210 C 
ENDBRANCH  24  27
ENDBRANCH  14  19
BRANCH   1  29
ATOM     29  O   UNL d   1       2.992  -1.078   1.000  0.00  0.00    -0.304 OA
BRANCH  29  30
ATOM     30  C   UNL d   1       2.517  -0.069   0.065  0.00  0.00     0.176 C 
ATOM     31  C   UNL d   1       0.988  -0.013   0.038  0.00  0.00     0.034 C 
ENDBRANCH  29  30
ENDBRANCH   1  29
TORSDOF 5
