@<TRIPOS>MOLECULE
*****
 36 37 0 0 0
SMALL
GASTEIGER

@<TRIPOS>ATOM
      1 C           1.0810    0.0763   -0.0416 C.3     1  UNL1        0.0004
      2 N           2.5312    0.1846   -0.1080 N.pl3   1  UNL1       -0.3360
      3 C           3.2702   -0.8113   -0.8796 C.3     1  UNL1        0.0004
      4 C           3.2350    0.9359    0.8278 C.ar    1  UNL1        0.0299
      5 C           4.4554    1.5385    0.4977 C.ar    1  UNL1       -0.0406
      6 C           5.2285    2.1861    1.4648 C.ar    1  UNL1       -0.0593
      7 C           4.7613    2.2958    2.7793 C.ar    1  UNL1       -0.0495
      8 C           3.5265    1.7375    3.1427 C.ar    1  UNL1        0.0399
      9 C           3.0691    1.7926    4.5813 C.2     1  UNL1        0.2602
     10 O           3.7633    2.3542    5.4290 O.2     1  UNL1       -0.2687
     11 N           1.8641    1.1777    4.9091 N.am    1  UNL1       -0.2301
     12 N           1.3724    1.2196    6.2405 N.am    1  UNL1       -0.2301
     13 C           0.2011    0.5390    6.5474 C.2     1  UNL1        0.2616
     14 O          -0.4339   -0.0829    5.6879 O.2     1  UNL1       -0.2686
     15 C          -0.2268    0.5886    7.9490 C.ar    1  UNL1        0.0554
     16 C          -0.2274    1.6949    8.8538 C.ar    1  UNL1       -0.0322
     17 C          -0.7695    1.2766   10.0518 C.ar    1  UNL1        0.0024
     18 N          -1.1041   -0.0444    9.9233 N.ar    1  UNL1       -0.3663
     19 C          -0.7950   -0.4650    8.6538 C.ar    1  UNL1        0.0139
     20 C           2.7784    1.0873    2.1496 C.ar    1  UNL1       -0.0285
     21 H           0.6964   -0.6640   -0.7500 H       1  UNL1        0.0428
     22 H           0.6415    1.0430   -0.3074 H       1  UNL1        0.0428
     23 H           0.7099   -0.2215    0.9435 H       1  UNL1        0.0428
     24 H           2.5961   -1.4647   -1.4448 H       1  UNL1        0.0428
     25 H           3.8747   -1.4583   -0.2318 H       1  UNL1        0.0428
     26 H           3.9264   -0.3277   -1.6097 H       1  UNL1        0.0428
     27 H           4.8062    1.5284   -0.5328 H       1  UNL1        0.0636
     28 H           6.2026    2.5865    1.1902 H       1  UNL1        0.0618
     29 H           5.3746    2.8151    3.5133 H       1  UNL1        0.0625
     30 H           1.2674    0.6791    4.2554 H       1  UNL1        0.1731
     31 H           1.9807    1.6298    6.9449 H       1  UNL1        0.1731
     32 H           0.0920    2.7065    8.6415 H       1  UNL1        0.0640
     33 H          -0.9602    1.8068   10.9769 H       1  UNL1        0.0807
     34 H          -1.5298   -0.6139   10.6461 H       1  UNL1        0.1648
     35 H          -1.0046   -1.4853    8.3578 H       1  UNL1        0.0814
     36 H           1.8364    0.6337    2.4118 H       1  UNL1        0.0643
@<TRIPOS>BOND
     1     1     2    1
     2     2     3    1
     3     2     4    1
     4     4     5   ar
     5     5     6   ar
     6     6     7   ar
     7     7     8   ar
     8     8     9    1
     9     9    10    2
    10     9    11   am
    11    11    12    1
    12    12    13   am
    13    13    14    2
    14    13    15    1
    15    15    16   ar
    16    16    17   ar
    17    17    18   ar
    18    18    19   ar
    19    15    19   ar
    20     8    20   ar
    21     4    20   ar
    22     1    21    1
    23     1    22    1
    24     1    23    1
    25     3    24    1
    26     3    25    1
    27     3    26    1
    28     5    27    1
    29     6    28    1
    30     7    29    1
    31    11    30    1
    32    12    31    1
    33    16    32    1
    34    17    33    1
    35    18    34    1
    36    19    35    1
    37    20    36    1
