REMARK  6 active torsions:
REMARK  status: ('A' for Active; 'I' for Inactive)
REMARK    1  A    between atoms: C_2  and  C_3 
REMARK       I    between atoms: C_2  and  N_15 
REMARK    2  A    between atoms: C_3  and  C_4 
REMARK    3  A    between atoms: N_15  and  N_16 
REMARK    4  A    between atoms: C_17  and  C_18 
REMARK    5  A    between atoms: C_21  and  C_22 
REMARK    6  A    between atoms: C_25  and  N_26 
ROOT
ATOM      1  N   UNL d   1       4.407  -0.039  -1.277  0.00  0.00    -0.182 NA
ATOM      2  C   UNL d   1       5.043   0.017  -2.414  0.00  0.00     0.175 C 
ENDROOT
BRANCH   1   3
ATOM      3  N   UNL d   1       3.041  -0.010  -1.305  0.00  0.00    -0.247 N 
ATOM      4  C   UNL d   1       2.259   0.017  -0.163  0.00  0.00     0.241 C 
ATOM      5  O   UNL d   1       1.031   0.018  -0.280  0.00  0.00    -0.271 OA
ATOM      6  H   UNL d   1       2.529  -0.033  -2.182  0.00  0.00     0.192 HD
BRANCH   4   7
ATOM      7  C   UNL d   1       2.978   0.040   1.184  0.00  0.00     0.144 C 
BRANCH   7   8
ATOM      8  C   UNL d   1       2.030   0.169   2.375  0.00  0.00    -0.038 A 
ATOM      9  C   UNL d   1       1.522  -1.008   2.946  0.00  0.00     0.010 A 
ATOM     10  C   UNL d   1       0.631  -0.954   4.013  0.00  0.00     0.020 A 
ATOM     11  C   UNL d   1       0.229   0.282   4.528  0.00  0.00     0.022 A 
ATOM     12 BR   UNL d   1      -0.973   0.216   6.009  0.00  0.00    -0.050 Br
ATOM     13  C   UNL d   1       0.705   1.501   3.977  0.00  0.00    -0.008 A 
ATOM     14  C   UNL d   1       0.333   2.790   4.446  0.00  0.00     0.013 A 
ATOM     15  C   UNL d   1       1.616   1.430   2.882  0.00  0.00    -0.018 A 
ATOM     16  C   UNL d   1       0.849   3.961   3.882  0.00  0.00     0.001 A 
ATOM     17  C   UNL d   1       1.731   3.880   2.821  0.00  0.00     0.001 A 
ATOM     18  C   UNL d   1       2.091   2.634   2.323  0.00  0.00     0.013 A 
ENDBRANCH   7   8
ENDBRANCH   4   7
ENDBRANCH   1   3
BRANCH   2  19
ATOM     19  C   UNL d   1       6.492  -0.058  -2.403  0.00  0.00     0.095 A 
ATOM     20  C   UNL d   1       7.292  -0.816  -1.572  0.00  0.00     0.041 A 
ATOM     21  C   UNL d   1       8.626  -0.520  -1.896  0.00  0.00     0.041 A 
ATOM     22  C   UNL d   1       8.605   0.395  -2.930  0.00  0.00     0.088 A 
ATOM     23  O   UNL d   1       7.294   0.681  -3.263  0.00  0.00    -0.308 OA
BRANCH  22  24
ATOM     24  C   UNL d   1       9.730   0.999  -3.667  0.00  0.00     0.020 A 
ATOM     25  C   UNL d   1       9.987   2.382  -3.604  0.00  0.00     0.018 A 
ATOM     26  C   UNL d   1      11.175   2.931  -4.136  0.00  0.00     0.037 A 
ATOM     27  C   UNL d   1      12.127   2.095  -4.735  0.00  0.00     0.104 A 
ATOM     28  C   UNL d   1      11.897   0.722  -4.810  0.00  0.00     0.060 A 
ATOM     29  C   UNL d   1      10.710   0.186  -4.286  0.00  0.00     0.049 A 
ATOM     30 CL   UNL d   1      10.523  -1.533  -4.428  0.00  0.00    -0.083 Cl
BRANCH  27  31
ATOM     31  N   UNL d   1      13.374   2.657  -5.282  0.00  0.00    -0.116 N 
ATOM     32  O   UNL d   1      13.546   3.876  -5.199  0.00  0.00    -0.532 OA
ATOM     33  O   UNL d   1      14.182   1.864  -5.799  0.00  0.00    -0.532 OA
ENDBRANCH  27  31
ENDBRANCH  22  24
ENDBRANCH   2  19
TORSDOF 6
