@<TRIPOS>MOLECULE
*****
 60 63 0 0 0
SMALL
GASTEIGER

@<TRIPOS>ATOM
      1 C          16.1777   -4.6441  -19.8824 C.3     1  UNL1        0.0788
      2 O          15.0321   -4.5048  -19.0445 O.3     1  UNL1       -0.4951
      3 C          14.5263   -3.2329  -18.8929 C.ar    1  UNL1        0.1211
      4 C          14.1950   -2.4454  -20.0805 C.ar    1  UNL1       -0.0137
      5 C          13.6073   -1.2311  -20.0326 C.ar    1  UNL1        0.0133
      6 C          13.2724   -0.6891  -18.7053 C.ar    1  UNL1        0.2088
      7 C          13.5969   -1.5116  -17.5267 C.ar    1  UNL1        0.0544
      8 C          14.2161   -2.7886  -17.6641 C.ar    1  UNL1       -0.0064
      9 C          13.1817   -0.7938  -16.4766 C.2     1  UNL1        0.0092
     10 C          13.2833   -1.1976  -15.0393 C.3     1  UNL1       -0.0092
     11 C          12.7215   -0.1461  -14.0930 C.3     1  UNL1        0.0155
     12 N          12.7845   -0.5199  -12.7123 N.am    1  UNL1       -0.3150
     13 C          12.2852    0.3650  -11.7787 C.2     1  UNL1        0.2131
     14 O          11.7900    1.4498  -12.0839 O.2     1  UNL1       -0.2758
     15 C          12.4529   -0.1157  -10.3756 C.3     1  UNL1        0.0262
     16 C          11.9024    0.8530   -9.3277 C.3     1  UNL1       -0.0187
     17 C          12.1033    0.4065   -7.8683 C.3     1  UNL1        0.0700
     18 N          11.6966   -0.9810   -7.6225 N.3     1  UNL1       -0.2422
     19 N          12.8474   -1.9168   -7.6485 N.3     1  UNL1       -0.2341
     20 C          14.1071   -1.1858   -7.8880 C.3     1  UNL1        0.1456
     21 C          15.3276   -1.7507   -7.1663 C.2     1  UNL1        0.2457
     22 O          15.7546   -1.2458   -6.1268 O.2     1  UNL1       -0.2728
     23 N          16.0095   -2.7635   -7.8720 N.am    1  UNL1       -0.2835
     24 C          17.2798   -3.1929   -7.4201 C.ar    1  UNL1        0.0335
     25 C          17.5105   -3.3248   -6.0496 C.ar    1  UNL1       -0.0405
     26 C          18.7925   -3.5240   -5.5568 C.ar    1  UNL1       -0.0600
     27 C          19.8441   -3.7171   -6.4423 C.ar    1  UNL1       -0.0616
     28 C          19.6028   -3.7259   -7.8182 C.ar    1  UNL1       -0.0600
     29 C          18.3256   -3.4298   -8.3158 C.ar    1  UNL1       -0.0405
     30 S          13.8392    0.5425   -7.4614 S.3     1  UNL1       -0.1116
     31 C          12.5858    0.5152  -16.9209 C.3     1  UNL1        0.1661
     32 N          12.7187    0.4198  -18.3850 N.2     1  UNL1       -0.2369
     33 H          16.5247   -5.6797  -19.8033 H       1  UNL1        0.0660
     34 H          16.9914   -3.9857  -19.5613 H       1  UNL1        0.0660
     35 H          15.9249   -4.4654  -20.9307 H       1  UNL1        0.0660
     36 H          14.4160   -2.8858  -21.0491 H       1  UNL1        0.0656
     37 H          13.3736   -0.6835  -20.9381 H       1  UNL1        0.0684
     38 H          14.4147   -3.3911  -16.7843 H       1  UNL1        0.0662
     39 H          14.3361   -1.3833  -14.7915 H       1  UNL1        0.0327
     40 H          12.7449   -2.1420  -14.8902 H       1  UNL1        0.0327
     41 H          11.6668    0.0501  -14.3196 H       1  UNL1        0.0465
     42 H          13.2665    0.7999  -14.2017 H       1  UNL1        0.0465
     43 H          13.2170   -1.3909  -12.4221 H       1  UNL1        0.1487
     44 H          13.5325   -0.2145  -10.2725 H       1  UNL1        0.0359
     45 H          11.9815   -1.1012  -10.2849 H       1  UNL1        0.0359
     46 H          10.8328    1.0073   -9.5119 H       1  UNL1        0.0293
     47 H          12.3731    1.8368   -9.4703 H       1  UNL1        0.0293
     48 H          11.5309    1.0759   -7.2152 H       1  UNL1        0.0589
     49 H          10.8941   -1.2503   -8.1942 H       1  UNL1        0.1418
     50 H          12.7238   -2.6604   -8.3366 H       1  UNL1        0.1424
     51 H          14.3541   -1.2495   -8.9467 H       1  UNL1        0.0686
     52 H          15.7769   -2.9413   -8.8390 H       1  UNL1        0.1549
     53 H          16.6860   -3.2400   -5.3456 H       1  UNL1        0.0636
     54 H          18.9552   -3.5147   -4.4833 H       1  UNL1        0.0618
     55 H          20.8483   -3.8622   -6.0533 H       1  UNL1        0.0618
     56 H          20.4258   -3.9363   -8.4969 H       1  UNL1        0.0618
     57 H          18.2000   -3.3186   -9.3885 H       1  UNL1        0.0636
     58 H          13.1624    1.3760  -16.5720 H       1  UNL1        0.1077
     59 H          11.5256    0.6032  -16.6684 H       1  UNL1        0.1077
     60 H          12.4201    1.1231  -19.0570 H       1  UNL1        0.4459
@<TRIPOS>UNITY_ATOM_ATTR
32 1
charge 1
@<TRIPOS>BOND
     1     1     2    1
     2     2     3    1
     3     3     4   ar
     4     4     5   ar
     5     5     6   ar
     6     6     7   ar
     7     7     8   ar
     8     3     8   ar
     9     7     9    2
    10     9    10    1
    11    10    11    1
    12    11    12    1
    13    12    13   am
    14    13    14    2
    15    13    15    1
    16    15    16    1
    17    17    18    1
    18    18    19    1
    19    19    20    1
    20    21    22    2
    21    21    23   am
    22    23    24    1
    23    24    25   ar
    24    25    26   ar
    25    26    27   ar
    26    27    28   ar
    27    28    29   ar
    28    24    29   ar
    29    20    30    1
    30    17    30    1
    31     9    31    1
    32    31    32    1
    33     6    32    2
    34    20    21    1
    35    17    16    1
    36     1    33    1
    37     1    34    1
    38     1    35    1
    39     4    36    1
    40     5    37    1
    41     8    38    1
    42    10    39    1
    43    10    40    1
    44    11    41    1
    45    11    42    1
    46    12    43    1
    47    15    44    1
    48    15    45    1
    49    16    46    1
    50    16    47    1
    51    17    48    1
    52    18    49    1
    53    19    50    1
    54    20    51    1
    55    23    52    1
    56    25    53    1
    57    26    54    1
    58    27    55    1
    59    28    56    1
    60    29    57    1
    61    31    58    1
    62    31    59    1
    63    32    60    1
