REMARK  5 active torsions:
REMARK  status: ('A' for Active; 'I' for Inactive)
REMARK    1  A    between atoms: O_2  and  C_3 
REMARK    2  A    between atoms: C_9  and  N_10 
REMARK    3  A    between atoms: N_10  and  C_11 
REMARK    4  A    between atoms: C_11  and  C_13 
REMARK       I    between atoms: C_13  and  N_15 
REMARK    5  A    between atoms: N_15  and  C_16 
ROOT
ATOM      1  C   UNL d   1       3.713  -2.044  -0.214  0.00  0.00     0.170 C 
ATOM      2  C   UNL d   1       2.388  -2.317  -0.922  0.00  0.00     0.042 C 
ENDROOT
BRANCH   1   3
ATOM      3  N   UNL d   1       4.533  -1.111  -1.009  0.00  0.00    -0.375 N 
ATOM      4  H   UNL d   1       5.353  -1.524  -1.454  0.00  0.00     0.160 HD
BRANCH   3   5
ATOM      5  C   UNL d   1       4.182   0.210  -1.281  0.00  0.00     0.064 A 
ATOM      6  C   UNL d   1       4.989   0.948  -2.172  0.00  0.00     0.056 A 
ATOM      7  C   UNL d   1       4.671   2.271  -2.505  0.00  0.00     0.036 A 
ATOM      8  C   UNL d   1       3.538   2.882  -1.979  0.00  0.00     0.026 A 
ATOM      9 CL   UNL d   1       5.690   3.171  -3.564  0.00  0.00    -0.084 Cl
ATOM     10  C   UNL d   1       2.724   2.179  -1.095  0.00  0.00     0.041 A 
ATOM     11  C   UNL d   1       3.050   0.871  -0.728  0.00  0.00     0.094 A 
BRANCH  11  12
ATOM     12  O   UNL d   1       2.348   0.279   0.298  0.00  0.00    -0.354 OA
ATOM     13  C   UNL d   1       0.925   0.247   0.166  0.00  0.00     0.210 C 
ENDBRANCH  11  12
ENDBRANCH   3   5
ENDBRANCH   1   3
BRANCH   1  14
ATOM     14  C   UNL d   1       4.418  -3.401  -0.040  0.00  0.00     0.245 C 
ATOM     15  O   UNL d   1       5.484  -3.635  -0.629  0.00  0.00    -0.271 OA
ATOM     16  N   UNL d   1       3.754  -4.320   0.771  0.00  0.00    -0.310 N 
ATOM     17  H   UNL d   1       2.766  -4.212   0.961  0.00  0.00     0.170 HD
BRANCH  16  18
ATOM     18  C   UNL d   1       4.246  -5.620   0.949  0.00  0.00     0.129 A 
ATOM     19  C   UNL d   1       5.607  -5.806   1.163  0.00  0.00     0.052 A 
ATOM     20  C   UNL d   1       6.120  -7.092   1.263  0.00  0.00     0.029 A 
ATOM     21  C   UNL d   1       5.257  -8.167   1.138  0.00  0.00     0.051 A 
ATOM     22 CL   UNL d   1       5.864  -9.770   1.202  0.00  0.00    -0.083 Cl
ATOM     23  C   UNL d   1       3.904  -7.902   0.969  0.00  0.00     0.142 A 
ATOM     24  N   UNL d   1       3.368  -6.646   0.912  0.00  0.00    -0.242 NA
ENDBRANCH  16  18
ENDBRANCH   1  14
TORSDOF 5
