@<TRIPOS>MOLECULE
*****
 75 77 0 0 0
SMALL
GASTEIGER

@<TRIPOS>ATOM
      1 C           0.7598    0.1220   -0.4738 C.3     1  UNL1       -0.0307
      2 C           2.2647    0.2555   -0.6097 C.3     1  UNL1        0.0870
      3 O           2.9421   -0.6778   -1.4568 O.3     1  UNL1       -0.4884
      4 C           4.3345   -0.7835   -1.4193 C.ar    1  UNL1        0.1663
      5 C           4.9400   -0.7109   -2.7049 C.ar    1  UNL1       -0.0039
      6 C           6.2985   -1.0627   -2.9328 C.ar    1  UNL1        0.0438
      7 C           6.8028   -1.2114   -4.3596 C.2     1  UNL1        0.2444
      8 O           6.0609   -0.9691   -5.2885 O.2     1  UNL1       -0.2702
      9 N           8.1079   -1.6859   -4.5584 N.am    1  UNL1       -0.3096
     10 C           8.6332   -1.9337   -5.9118 C.3     1  UNL1        0.0315
     11 C          10.0723   -2.4782   -5.9461 C.3     1  UNL1        0.0593
     12 N          10.5593   -2.7227   -7.2981 N.ar    1  UNL1       -0.2448
     13 N          10.9511   -1.6495   -8.0332 N.ar    1  UNL1       -0.1770
     14 C          11.3136   -2.1846   -9.2014 C.ar    1  UNL1        0.0620
     15 C          11.1949   -3.5888   -9.2263 C.ar    1  UNL1        0.0783
     16 C          11.4223   -4.6203  -10.1507 C.ar    1  UNL1        0.1339
     17 N          11.8674   -4.3340  -11.4253 N.pl3   1  UNL1       -0.3281
     18 C          12.1473   -5.3747  -12.3913 C.3     1  UNL1        0.0128
     19 C          12.6755   -4.7747  -13.7118 C.3     1  UNL1       -0.0312
     20 C          13.9825   -4.0033  -13.5053 C.3     1  UNL1       -0.0612
     21 C          12.9082   -5.8894  -14.7350 C.3     1  UNL1       -0.0612
     22 N          11.1790   -5.8979   -9.7504 N.ar    1  UNL1       -0.2064
     23 C          10.7216   -6.1182   -8.4965 C.ar    1  UNL1        0.1919
     24 S          10.3872   -7.8079   -7.9665 S.3     1  UNL1       -0.0862
     25 C          10.7958   -8.8721   -9.4089 C.3     1  UNL1       -0.0017
     26 C          10.5343  -10.3417   -9.0509 C.3     1  UNL1       -0.0558
     27 N          10.4653   -5.1756   -7.5459 N.ar    1  UNL1       -0.2023
     28 C          10.7193   -3.9226   -7.9702 C.ar    1  UNL1        0.1644
     29 C           7.0978   -1.3701   -1.8310 C.ar    1  UNL1       -0.0039
     30 C           6.5390   -1.4694   -0.5498 C.ar    1  UNL1        0.1663
     31 O           7.4487   -1.9009    0.4143 O.3     1  UNL1       -0.4884
     32 C           6.9364   -2.1066    1.7366 C.3     1  UNL1        0.0870
     33 C           7.9675   -2.5991    2.7091 C.3     1  UNL1       -0.0307
     34 C           5.1536   -1.2123   -0.3385 C.ar    1  UNL1        0.2038
     35 O           4.7933   -1.5474    0.9426 O.3     1  UNL1       -0.4855
     36 C           3.5866   -1.1130    1.4240 C.3     1  UNL1        0.0871
     37 C           3.1567   -1.2472    2.8514 C.3     1  UNL1       -0.0307
     38 H           0.4537    0.6165    0.4682 H       1  UNL1        0.0262
     39 H           0.4825   -0.9347   -0.3447 H       1  UNL1        0.0262
     40 H           0.2202    0.5627   -1.2994 H       1  UNL1        0.0262
     41 H           2.3282   -0.0656    0.3848 H       1  UNL1        0.0694
     42 H           2.7149    1.2504   -0.5798 H       1  UNL1        0.0694
     43 H           4.3238   -0.4212   -3.5579 H       1  UNL1        0.0663
     44 H           8.6934   -1.9269   -3.7771 H       1  UNL1        0.1491
     45 H           8.5690   -0.9844   -6.4572 H       1  UNL1        0.0480
     46 H           7.9583   -2.6387   -6.4088 H       1  UNL1        0.0480
     47 H          10.1651   -3.4055   -5.3733 H       1  UNL1        0.0525
     48 H          10.7545   -1.7483   -5.4866 H       1  UNL1        0.0525
     49 H          11.6534   -1.5305   -9.9943 H       1  UNL1        0.0856
     50 H          12.0290   -3.3694  -11.6765 H       1  UNL1        0.1475
     51 H          11.2271   -5.9345  -12.5965 H       1  UNL1        0.0464
     52 H          12.8891   -6.0734  -11.9874 H       1  UNL1        0.0464
     53 H          11.9272   -4.0818  -14.1202 H       1  UNL1        0.0310
     54 H          14.7607   -4.6577  -13.0992 H       1  UNL1        0.0233
     55 H          13.8523   -3.1640  -12.8159 H       1  UNL1        0.0233
     56 H          14.3453   -3.5907  -14.4530 H       1  UNL1        0.0233
     57 H          13.6583   -6.6017  -14.3735 H       1  UNL1        0.0233
     58 H          13.2661   -5.4803  -15.6862 H       1  UNL1        0.0233
     59 H          11.9840   -6.4412  -14.9336 H       1  UNL1        0.0233
     60 H          11.8498   -8.7591   -9.6811 H       1  UNL1        0.0378
     61 H          10.1771   -8.6050  -10.2715 H       1  UNL1        0.0378
     62 H          11.1502  -10.6734   -8.2066 H       1  UNL1        0.0238
     63 H          10.7741  -10.9973   -9.8975 H       1  UNL1        0.0238
     64 H           9.4826  -10.5205   -8.7972 H       1  UNL1        0.0238
     65 H           8.1552   -1.5852   -1.9321 H       1  UNL1        0.0663
     66 H           6.1699   -2.8942    1.7251 H       1  UNL1        0.0694
     67 H           6.5709   -1.1519    2.1395 H       1  UNL1        0.0694
     68 H           8.3511   -3.5683    2.3873 H       1  UNL1        0.0262
     69 H           7.4970   -2.7095    3.6939 H       1  UNL1        0.0262
     70 H           8.7878   -1.8857    2.7769 H       1  UNL1        0.0262
     71 H           2.8638   -1.7146    0.8631 H       1  UNL1        0.0694
     72 H           3.6717   -0.0242    1.3318 H       1  UNL1        0.0694
     73 H           3.2769   -2.2616    3.2173 H       1  UNL1        0.0262
     74 H           2.0943   -0.9602    2.8864 H       1  UNL1        0.0262
     75 H           3.7045   -0.5397    3.4771 H       1  UNL1        0.0262
@<TRIPOS>BOND
     1     1     2    1
     2     2     3    1
     3     3     4    1
     4     4     5   ar
     5     5     6   ar
     6     6     7    1
     7     7     8    2
     8     7     9   am
     9     9    10    1
    10    10    11    1
    11    11    12    1
    12    12    13   ar
    13    13    14   ar
    14    14    15   ar
    15    15    16   ar
    16    16    17    1
    17    17    18    1
    18    18    19    1
    19    19    20    1
    20    19    21    1
    21    16    22   ar
    22    22    23   ar
    23    23    24    1
    24    24    25    1
    25    25    26    1
    26    23    27   ar
    27    27    28   ar
    28    15    28   ar
    29    12    28   ar
    30     6    29   ar
    31    29    30   ar
    32    30    31    1
    33    31    32    1
    34    32    33    1
    35    30    34   ar
    36     4    34   ar
    37    34    35    1
    38    35    36    1
    39    36    37    1
    40     1    38    1
    41     1    39    1
    42     1    40    1
    43     2    41    1
    44     2    42    1
    45     5    43    1
    46     9    44    1
    47    10    45    1
    48    10    46    1
    49    11    47    1
    50    11    48    1
    51    14    49    1
    52    17    50    1
    53    18    51    1
    54    18    52    1
    55    19    53    1
    56    20    54    1
    57    20    55    1
    58    20    56    1
    59    21    57    1
    60    21    58    1
    61    21    59    1
    62    25    60    1
    63    25    61    1
    64    26    62    1
    65    26    63    1
    66    26    64    1
    67    29    65    1
    68    32    66    1
    69    32    67    1
    70    33    68    1
    71    33    69    1
    72    33    70    1
    73    36    71    1
    74    36    72    1
    75    37    73    1
    76    37    74    1
    77    37    75    1
