@<TRIPOS>MOLECULE
*****
 43 45 0 0 0
SMALL
GASTEIGER

@<TRIPOS>ATOM
      1 O           0.9825    0.0304   -0.1084 O.2     1  UNL1       -0.2702
      2 C           2.2107    0.0745   -0.0629 C.2     1  UNL1        0.2445
      3 N           2.9489    0.9838   -0.8031 N.am    1  UNL1       -0.3070
      4 C           2.2695    1.9021   -1.7069 C.3     1  UNL1        0.0427
      5 C           3.2061    2.8000   -2.4917 C.ar    1  UNL1        0.0333
      6 C           4.2522    2.2948   -3.2690 C.ar    1  UNL1       -0.0438
      7 C           5.0783    3.1618   -4.0028 C.ar    1  UNL1        0.0267
      8 C           4.8673    4.5421   -3.9613 C.ar    1  UNL1        0.2718
      9 N           5.5979    5.4724   -4.6438 N.pl3   1  UNL1       -0.2780
     10 C           6.3739    6.5085   -3.9565 C.3     1  UNL1        0.0173
     11 C           5.9467    7.8644   -4.5201 C.3     1  UNL1       -0.0370
     12 C           6.1075    7.9128   -6.0438 C.3     1  UNL1       -0.0502
     13 C           5.4448    6.7061   -6.7212 C.3     1  UNL1       -0.0370
     14 C           5.8832    5.3791   -6.0811 C.3     1  UNL1        0.0173
     15 N           3.8319    4.9788   -3.2239 N.ar    1  UNL1       -0.1978
     16 C           3.0083    4.1802   -2.5216 C.ar    1  UNL1        0.1757
     17 C           2.9399   -0.8905    0.8050 C.ar    1  UNL1        0.0424
     18 C           3.9659   -0.4849    1.6594 C.ar    1  UNL1       -0.0313
     19 C           4.4967   -1.4280    2.5299 C.ar    1  UNL1        0.0314
     20 N           4.0912   -2.7122    2.5848 N.ar    1  UNL1       -0.2276
     21 C           3.1011   -3.0751    1.7460 C.ar    1  UNL1        0.2139
     22 F           2.6815   -4.3471    1.8000 F       1  UNL1       -0.1839
     23 C           2.4993   -2.2150    0.8472 C.ar    1  UNL1        0.0048
     24 H           3.9567    0.9037   -0.8176 H       1  UNL1        0.1493
     25 H           1.5919    2.5102   -1.0925 H       1  UNL1        0.0514
     26 H           1.6353    1.3330   -2.3998 H       1  UNL1        0.0514
     27 H           4.4315    1.2201   -3.3177 H       1  UNL1        0.0625
     28 H           5.9030    2.7532   -4.5822 H       1  UNL1        0.0698
     29 H           7.4455    6.3532   -4.1459 H       1  UNL1        0.0465
     30 H           6.2329    6.4807   -2.8710 H       1  UNL1        0.0465
     31 H           6.5317    8.6673   -4.0591 H       1  UNL1        0.0280
     32 H           4.8934    8.0402   -4.2695 H       1  UNL1        0.0280
     33 H           7.1741    7.9352   -6.2997 H       1  UNL1        0.0266
     34 H           5.6698    8.8415   -6.4295 H       1  UNL1        0.0266
     35 H           5.6790    6.7099   -7.7915 H       1  UNL1        0.0280
     36 H           4.3559    6.8069   -6.6270 H       1  UNL1        0.0280
     37 H           6.9593    5.2324   -6.2447 H       1  UNL1        0.0465
     38 H           5.3584    4.5458   -6.5598 H       1  UNL1        0.0465
     39 H           3.6586    5.9798   -3.2576 H       1  UNL1        0.4542
     40 H           2.1948    4.6750   -1.9995 H       1  UNL1        0.1379
     41 H           4.3139    0.5393    1.7021 H       1  UNL1        0.0640
     42 H           5.2753   -1.1692    3.2446 H       1  UNL1        0.0831
     43 H           1.6982   -2.5782    0.2143 H       1  UNL1        0.0670
@<TRIPOS>UNITY_ATOM_ATTR
15 1
charge 1
@<TRIPOS>BOND
     1     1     2    2
     2     2     3   am
     3     3     4    1
     4     4     5    1
     5     5     6   ar
     6     6     7   ar
     7     7     8   ar
     8     8     9    1
     9     9    10    1
    10    10    11    1
    11    11    12    1
    12    12    13    1
    13    13    14    1
    14     9    14    1
    15     8    15   ar
    16    15    16   ar
    17     5    16   ar
    18     2    17    1
    19    17    18   ar
    20    18    19   ar
    21    19    20   ar
    22    20    21   ar
    23    21    22    1
    24    21    23   ar
    25    17    23   ar
    26     3    24    1
    27     4    25    1
    28     4    26    1
    29     6    27    1
    30     7    28    1
    31    10    29    1
    32    10    30    1
    33    11    31    1
    34    11    32    1
    35    12    33    1
    36    12    34    1
    37    13    35    1
    38    13    36    1
    39    14    37    1
    40    14    38    1
    41    15    39    1
    42    16    40    1
    43    18    41    1
    44    19    42    1
    45    23    43    1
