REMARK  6 active torsions:
REMARK  status: ('A' for Active; 'I' for Inactive)
REMARK    1  A    between atoms: C_2  and  O_3 
REMARK    2  A    between atoms: O_3  and  C_4 
REMARK    3  A    between atoms: C_4  and  C_6 
REMARK    4  A    between atoms: C_9  and  C_10 
REMARK    5  A    between atoms: C_14  and  C_13 
REMARK    6  A    between atoms: C_16  and  O_17 
ROOT
ATOM      1  C   UNL d   1       8.203   5.870   8.287  0.00  0.00     0.267 C 
ATOM      2  N   UNL d   1       7.332   6.048   9.488  0.00  0.00    -0.233 NA
ATOM      3  C   UNL d   1       7.912   6.577  10.504  0.00  0.00     0.173 C 
ATOM      4  C   UNL d   1       9.304   6.943  10.567  0.00  0.00     0.057 A 
ATOM      5  C   UNL d   1      10.133   6.427   9.602  0.00  0.00     0.087 A 
ATOM      6  S   UNL d   1      11.749   6.936   9.806  0.00  0.00    -0.074 SA
ATOM      7  C   UNL d   1      11.347   7.862  11.190  0.00  0.00     0.018 A 
ATOM      8  C   UNL d   1       9.993   7.786  11.483  0.00  0.00    -0.024 A 
ATOM      9  C   UNL d   1       9.387   8.487  12.664  0.00  0.00     0.068 C 
ATOM     10  C   UNL d   1      10.338   9.555  13.215  0.00  0.00     0.239 C 
ATOM     11  N   UNL d   1      11.742   8.972  13.383  0.00  0.00    -0.070 N 
ATOM     12  C   UNL d   1      11.765   7.774  14.300  0.00  0.00     0.270 C 
ATOM     13  C   UNL d   1      12.342   8.640  12.005  0.00  0.00     0.281 C 
ATOM     14  N   UNL d   1       9.625   5.634   8.631  0.00  0.00    -0.355 N 
ATOM     15  H   UNL d   1      12.328   9.698  13.815  0.00  0.00     0.279 HD
ATOM     16  H   UNL d   1      10.192   5.221   7.897  0.00  0.00     0.162 HD
ENDROOT
BRANCH   1  17
ATOM     17  C   UNL d   1       8.010   7.095   7.388  0.00  0.00     0.098 A 
ATOM     18  C   UNL d   1       8.354   8.410   7.637  0.00  0.00     0.040 A 
ATOM     19  C   UNL d   1       8.036   9.157   6.497  0.00  0.00     0.041 A 
ATOM     20  C   UNL d   1       7.464   8.288   5.593  0.00  0.00     0.086 A 
ATOM     21  O   UNL d   1       7.438   7.010   6.128  0.00  0.00    -0.310 OA
BRANCH  20  22
ATOM     22  C   UNL d   1       6.944   8.546   4.247  0.00  0.00    -0.002 A 
ATOM     23  C   UNL d   1       5.619   8.265   3.904  0.00  0.00     0.015 A 
ATOM     24  C   UNL d   1       5.117   8.605   2.631  0.00  0.00     0.018 A 
ATOM     25  C   UNL d   1       5.909   9.303   1.704  0.00  0.00     0.039 A 
ATOM     26  C   UNL d   1       7.228   9.609   2.044  0.00  0.00     0.018 A 
ATOM     27  C   UNL d   1       7.731   9.243   3.307  0.00  0.00     0.015 A 
BRANCH  25  28
ATOM     28  C   UNL d   1       5.277   9.875   0.481  0.00  0.00     0.293 C 
ATOM     29  O   UNL d   1       4.117  10.287   0.490  0.00  0.00    -0.259 OA
BRANCH  28  30
ATOM     30  O   UNL d   1       6.116   9.908  -0.587  0.00  0.00    -0.318 OA
BRANCH  30  31
ATOM     31  C   UNL d   1       5.539  10.499  -1.773  0.00  0.00     0.174 C 
ATOM     32  C   UNL d   1       6.527  10.428  -2.927  0.00  0.00     0.034 C 
ENDBRANCH  30  31
ENDBRANCH  28  30
ENDBRANCH  25  28
ENDBRANCH  20  22
ENDBRANCH   1  17
BRANCH   3  33
ATOM     33  O   UNL d   1       7.202   6.841  11.617  0.00  0.00    -0.344 OA
ATOM     34  H   UNL d   1       6.287   6.552  11.462  0.00  0.00     0.219 HD
ENDBRANCH   3  33
TORSDOF 6
