REMARK  9 active torsions:
REMARK  status: ('A' for Active; 'I' for Inactive)
REMARK    1  A    between atoms: C_4  and  O_5 
REMARK    2  A    between atoms: O_5  and  C_6 
REMARK    3  A    between atoms: C_6  and  C_7 
REMARK       I    between atoms: C_7  and  N_9 
REMARK    4  A    between atoms: N_9  and  C_10 
REMARK    5  A    between atoms: C_10  and  N_12 
REMARK    6  A    between atoms: N_12  and  N_13 
REMARK       I    between atoms: N_13  and  C_14 
REMARK    7  A    between atoms: C_14  and  C_16 
REMARK    8  A    between atoms: C_16  and  O_17 
REMARK    9  A    between atoms: O_17  and  C_18 
ROOT
ATOM      1  C   UNL d   1       9.255  -1.246   0.049  0.00  0.00     0.193 C 
ATOM      2  S   UNL d   1       9.984   0.279   0.052  0.00  0.00    -0.039 SA
ENDROOT
BRANCH   1   3
ATOM      3  N   UNL d   1       7.851  -1.484   0.041  0.00  0.00    -0.301 N 
ATOM      4  C   UNL d   1       6.835  -0.488   0.029  0.00  0.00     0.248 C 
ATOM      5  O   UNL d   1       7.091   0.719   0.029  0.00  0.00    -0.271 OA
ATOM      6  H   UNL d   1       7.549  -2.450   0.039  0.00  0.00     0.171 HD
BRANCH   4   7
ATOM      7  C   UNL d   1       5.336  -0.911   0.017  0.00  0.00     0.278 C 
BRANCH   7   8
ATOM      8  O   UNL d   1       4.515   0.289   0.001  0.00  0.00    -0.342 OA
BRANCH   8   9
ATOM      9  C   UNL d   1       3.148   0.195  -0.000  0.00  0.00     0.070 A 
ATOM     10  C   UNL d   1       2.447  -1.006  -0.001  0.00  0.00     0.044 A 
ATOM     11  C   UNL d   1       1.038  -1.037   0.001  0.00  0.00    -0.042 A 
ATOM     12  C   UNL d   1       0.353  -2.373  -0.007  0.00  0.00     0.049 C 
ATOM     13  C   UNL d   1       0.326   0.171   0.005  0.00  0.00     0.017 A 
ATOM     14  C   UNL d   1       1.013   1.385   0.003  0.00  0.00     0.022 A 
ATOM     15 BR   UNL d   1      -1.575   0.214   0.006  0.00  0.00    -0.051 Br
ATOM     16  C   UNL d   1       2.418   1.394  -0.003  0.00  0.00     0.038 A 
ENDBRANCH   8   9
ENDBRANCH   7   8
ENDBRANCH   4   7
ENDBRANCH   1   3
BRANCH   1  17
ATOM     17  N   UNL d   1      10.081  -2.389   0.052  0.00  0.00    -0.273 N 
ATOM     18  H   UNL d   1       9.781  -3.363   0.057  0.00  0.00     0.189 HD
BRANCH  17  19
ATOM     19  N   UNL d   1      11.536  -2.214   0.033  0.00  0.00    -0.266 N 
ATOM     20  C   UNL d   1      12.405  -3.303   0.018  0.00  0.00     0.260 C 
ATOM     21  O   UNL d   1      11.973  -4.461   0.028  0.00  0.00    -0.269 OA
ATOM     22  H   UNL d   1      11.855  -1.243   0.057  0.00  0.00     0.190 HD
BRANCH  20  23
ATOM     23  C   UNL d   1      13.927  -2.951   0.043  0.00  0.00     0.280 C 
BRANCH  23  24
ATOM     24  O   UNL d   1      14.784  -4.101   0.047  0.00  0.00    -0.342 OA
BRANCH  24  25
ATOM     25  C   UNL d   1      16.152  -3.947   0.098  0.00  0.00     0.075 A 
ATOM     26  C   UNL d   1      16.879  -4.837  -0.717  0.00  0.00     0.039 A 
ATOM     27  C   UNL d   1      18.284  -4.857  -0.717  0.00  0.00     0.026 A 
ATOM     28  C   UNL d   1      18.981  -4.010   0.131  0.00  0.00     0.034 A 
ATOM     29 CL   UNL d   1      20.702  -4.013   0.151  0.00  0.00    -0.084 Cl
ATOM     30  C   UNL d   1      18.282  -3.147   0.970  0.00  0.00     0.033 A 
ATOM     31  C   UNL d   1      16.869  -3.099   0.960  0.00  0.00    -0.027 A 
ATOM     32  C   UNL d   1      16.224  -2.134   1.905  0.00  0.00     0.051 C 
ENDBRANCH  24  25
ENDBRANCH  23  24
ENDBRANCH  20  23
ENDBRANCH  17  19
ENDBRANCH   1  17
TORSDOF 9
