REMARK  4 active torsions:
REMARK  status: ('A' for Active; 'I' for Inactive)
REMARK       I    between atoms: C_2  and  N_4 
REMARK    1  A    between atoms: N_4  and  C_5 
REMARK    2  A    between atoms: C_8  and  N_9 
REMARK       I    between atoms: N_9  and  C_10 
REMARK    3  A    between atoms: C_10  and  C_12 
REMARK    4  A    between atoms: N_16  and  C_17 
ROOT
ATOM      1  C   UNL d   1      11.078  -0.406   1.153  0.00  0.00     0.134 C 
ATOM      2  C   UNL d   1      11.875   0.052   2.189  0.00  0.00     0.090 C 
ATOM      3  S   UNL d   1      13.528  -0.062   1.772  0.00  0.00    -0.061 SA
ATOM      4  C   UNL d   1      13.085  -0.720   0.240  0.00  0.00     0.171 C 
ATOM      5  N   UNL d   1      14.027  -1.001  -0.692  0.00  0.00    -0.335 N 
ATOM      6  N   UNL d   1      11.788  -0.919   0.083  0.00  0.00    -0.218 NA
ATOM      7  H   UNL d   1      15.005  -0.806  -0.518  0.00  0.00     0.168 HD
ENDROOT
BRANCH   1   8
ATOM      8  C   UNL d   1       9.619  -0.267   1.174  0.00  0.00     0.275 C 
ATOM      9  N   UNL d   1       8.871  -1.289   0.588  0.00  0.00    -0.322 N 
ATOM     10  H   UNL d   1       9.396  -2.030   0.133  0.00  0.00     0.169 HD
ATOM     11  O   UNL d   1       9.155   0.730   1.738  0.00  0.00    -0.266 OA
BRANCH   9  12
ATOM     12  C   UNL d   1       7.442  -1.333   0.540  0.00  0.00     0.035 A 
ATOM     13  C   UNL d   1       6.756  -2.394  -0.074  0.00  0.00     0.032 A 
ATOM     14  C   UNL d   1       5.339  -2.368  -0.209  0.00  0.00     0.032 A 
ATOM     15  C   UNL d   1       4.595  -1.292   0.290  0.00  0.00     0.034 A 
ATOM     16  C   UNL d   1       5.277  -0.276   0.941  0.00  0.00     0.032 A 
ATOM     17  C   UNL d   1       6.663  -0.308   1.076  0.00  0.00     0.032 A 
BRANCH  15  18
ATOM     18  N   UNL d   1       3.182  -1.236   0.201  0.00  0.00    -0.328 N 
ATOM     19  C   UNL d   1       2.497  -0.042  -0.001  0.00  0.00     0.218 C 
ATOM     20  C   UNL d   1       0.994  -0.144   0.029  0.00  0.00     0.117 C 
ATOM     21  O   UNL d   1       3.025   1.045  -0.231  0.00  0.00    -0.274 OA
ATOM     22  H   UNL d   1       2.671  -2.109   0.201  0.00  0.00     0.169 HD
ENDBRANCH  15  18
ENDBRANCH   9  12
ENDBRANCH   1   8
BRANCH   5  23
ATOM     23  C   UNL d   1      13.697  -1.245  -2.040  0.00  0.00     0.040 A 
ATOM     24  C   UNL d   1      14.101  -2.457  -2.614  0.00  0.00     0.030 A 
ATOM     25  C   UNL d   1      13.762  -2.776  -3.931  0.00  0.00     0.009 A 
ATOM     26  C   UNL d   1      12.977  -1.904  -4.687  0.00  0.00    -0.061 A 
ATOM     27  C   UNL d   1      12.447  -2.308  -6.031  0.00  0.00     0.048 C 
ATOM     28  C   UNL d   1      12.630  -0.662  -4.145  0.00  0.00     0.015 A 
ATOM     29  C   UNL d   1      12.994  -0.314  -2.833  0.00  0.00    -0.035 A 
ATOM     30  C   UNL d   1      12.588   1.036  -2.308  0.00  0.00     0.050 C 
ENDBRANCH   5  23
TORSDOF 4
