@<TRIPOS>MOLECULE
*****
 33 34 0 0 0
SMALL
GASTEIGER

@<TRIPOS>ATOM
      1 C          -2.2146    0.0287   -0.0023 C.3     1  UNL1        0.0346
      2 N          -0.7878   -0.0682    0.0019 N.ar    1  UNL1       -0.2233
      3 N          -0.0534    1.0590   -0.0012 N.ar    1  UNL1       -0.0435
      4 N           1.2061    0.6512   -0.0021 N.ar    1  UNL1       -0.0222
      5 N           1.2743   -0.7204    0.0018 N.ar    1  UNL1       -0.1015
      6 C           0.0308   -1.1584    0.0069 C.ar    1  UNL1        0.2095
      7 S          -0.3831   -2.8340    0.0259 S.3     1  UNL1       -0.0752
      8 C          -2.1931   -3.0465    0.0103 C.3     1  UNL1        0.0780
      9 C          -2.5541   -4.5372   -0.0423 C.2     1  UNL1        0.2276
     10 O          -1.7060   -5.4037   -0.2486 O.2     1  UNL1       -0.2746
     11 N          -3.9165   -4.8463    0.0848 N.am    1  UNL1       -0.2825
     12 C          -4.3435   -6.2228    0.0826 C.ar    1  UNL1        0.0706
     13 C          -3.7392   -7.1836    0.9224 C.ar    1  UNL1        0.0654
     14 CL         -2.6189   -6.7695    2.1812 Cl      1  UNL1       -0.0815
     15 C          -4.1248   -8.5275    0.8870 C.ar    1  UNL1       -0.0151
     16 C          -5.1369   -8.9434    0.0289 C.ar    1  UNL1        0.1079
     17 S          -5.5933  -10.6604    0.0117 S.O2    1  UNL1        0.0560
     18 N          -7.1893  -10.5637    0.4575 N.3     1  UNL1       -0.2035
     19 O          -5.5447  -11.1101   -1.3629 O.2     1  UNL1       -0.1533
     20 O          -4.9048  -11.3267    1.0850 O.2     1  UNL1       -0.1533
     21 C          -5.7856   -8.0181   -0.7920 C.ar    1  UNL1       -0.0151
     22 C          -5.3983   -6.6635   -0.7500 C.ar    1  UNL1        0.0654
     23 CL         -6.2220   -5.5696   -1.8090 Cl      1  UNL1       -0.0815
     24 H          -2.5250    1.0743   -0.0035 H       1  UNL1        0.0474
     25 H          -2.5944   -0.4527    0.9003 H       1  UNL1        0.0474
     26 H          -2.5883   -0.4513   -0.9081 H       1  UNL1        0.0474
     27 H          -2.6146   -2.5801   -0.8831 H       1  UNL1        0.0475
     28 H          -2.6216   -2.6109    0.9170 H       1  UNL1        0.0475
     29 H          -4.5979   -4.1552   -0.2135 H       1  UNL1        0.1549
     30 H          -3.6329   -9.2410    1.5448 H       1  UNL1        0.0652
     31 H          -7.8792  -10.3825   -0.2620 H       1  UNL1        0.1442
     32 H          -7.3991  -10.4854    1.4478 H       1  UNL1        0.1442
     33 H          -6.5676   -8.3532   -1.4731 H       1  UNL1        0.0652
@<TRIPOS>BOND
     1     1     2    1
     2     2     3   ar
     3     3     4   ar
     4     4     5   ar
     5     5     6   ar
     6     2     6   ar
     7     6     7    1
     8     7     8    1
     9     8     9    1
    10     9    10    2
    11     9    11   am
    12    11    12    1
    13    12    13   ar
    14    13    14    1
    15    13    15   ar
    16    15    16   ar
    17    16    17    1
    18    17    18    1
    19    17    19    2
    20    17    20    2
    21    16    21   ar
    22    21    22   ar
    23    12    22   ar
    24    22    23    1
    25     1    24    1
    26     1    25    1
    27     1    26    1
    28     8    27    1
    29     8    28    1
    30    11    29    1
    31    15    30    1
    32    18    31    1
    33    18    32    1
    34    21    33    1
