@<TRIPOS>MOLECULE
*****
 42 43 0 0 0
SMALL
GASTEIGER

@<TRIPOS>ATOM
      1 O           0.9642    0.0661    0.1231 O.2     1  UNL1       -0.2758
      2 C           2.1874   -0.0759    0.0714 C.2     1  UNL1        0.2147
      3 C           2.8463   -1.4489    0.0007 C.3     1  UNL1        0.0395
      4 C           1.9169   -2.6449   -0.0761 C.3     1  UNL1        0.0213
      5 N           2.6359   -3.9307   -0.1871 N.am    1  UNL1       -0.2978
      6 C           1.9297   -5.1121   -0.2804 C.2     1  UNL1        0.3159
      7 O           0.6955   -5.1352   -0.2970 O.2     1  UNL1       -0.2513
      8 N           2.7013   -6.2641   -0.3288 N.am    1  UNL1       -0.2192
      9 N           2.0103   -7.5215   -0.2607 N.pl3   1  UNL1       -0.2472
     10 C           2.7606   -8.7014   -0.5064 C.ar    1  UNL1        0.1348
     11 C           3.8818   -8.9654    0.2790 C.ar    1  UNL1       -0.0205
     12 C           4.5565  -10.1836    0.1642 C.ar    1  UNL1       -0.0570
     13 C           4.1159  -11.1217   -0.7544 C.ar    1  UNL1       -0.0435
     14 C           3.0011  -10.7959   -1.5077 C.ar    1  UNL1        0.0297
     15 N           2.3137   -9.6214   -1.3960 N.ar    1  UNL1       -0.2391
     16 N           2.9863    1.0484    0.0523 N.am    1  UNL1       -0.3124
     17 C           4.4466    1.1504    0.0923 C.3     1  UNL1        0.0231
     18 C           5.1432    0.0682   -0.7143 C.3     1  UNL1       -0.0345
     19 C           6.5344    0.5484   -0.9952 C.3     1  UNL1       -0.0513
     20 C           6.4132    2.0588   -1.0478 C.3     1  UNL1       -0.0513
     21 C           4.9855    2.4103   -0.6000 C.3     1  UNL1       -0.0345
     22 H           3.5100   -1.5494    0.8672 H       1  UNL1        0.0374
     23 H           3.4087   -1.5032   -0.9309 H       1  UNL1        0.0374
     24 H           1.2814   -2.5466   -0.9635 H       1  UNL1        0.0467
     25 H           1.2712   -2.6821    0.8050 H       1  UNL1        0.0467
     26 H           3.6459   -3.9441   -0.2135 H       1  UNL1        0.1503
     27 H           3.7093   -6.2743   -0.4107 H       1  UNL1        0.1743
     28 H           1.1447   -7.5122   -0.8056 H       1  UNL1        0.1716
     29 H           4.1813   -8.2537    1.0378 H       1  UNL1        0.0652
     30 H           5.3996  -10.4028    0.8126 H       1  UNL1        0.0619
     31 H           4.6164  -12.0794   -0.8648 H       1  UNL1        0.0633
     32 H           2.6153  -11.5067   -2.2375 H       1  UNL1        0.0830
     33 H           2.4541    1.9032    0.1951 H       1  UNL1        0.1490
     34 H           4.7559    1.1387    1.1451 H       1  UNL1        0.0498
     35 H           4.6181   -0.0669   -1.6688 H       1  UNL1        0.0283
     36 H           5.2134   -0.8776   -0.1773 H       1  UNL1        0.0283
     37 H           6.8961    0.1080   -1.9297 H       1  UNL1        0.0266
     38 H           7.2016    0.2253   -0.1892 H       1  UNL1        0.0266
     39 H           6.6022    2.4197   -2.0637 H       1  UNL1        0.0266
     40 H           7.1629    2.5056   -0.3882 H       1  UNL1        0.0266
     41 H           4.3802    2.6506   -1.4838 H       1  UNL1        0.0283
     42 H           4.9738    3.2942    0.0463 H       1  UNL1        0.0283
@<TRIPOS>BOND
     1     1     2    2
     2     2     3    1
     3     3     4    1
     4     4     5    1
     5     5     6   am
     6     6     7    2
     7     6     8   am
     8     8     9    1
     9     9    10    1
    10    10    11   ar
    11    11    12   ar
    12    12    13   ar
    13    13    14   ar
    14    14    15   ar
    15    10    15   ar
    16     2    16   am
    17    16    17    1
    18    17    18    1
    19    18    19    1
    20    19    20    1
    21    20    21    1
    22    17    21    1
    23     3    22    1
    24     3    23    1
    25     4    24    1
    26     4    25    1
    27     5    26    1
    28     8    27    1
    29     9    28    1
    30    11    29    1
    31    12    30    1
    32    13    31    1
    33    14    32    1
    34    16    33    1
    35    17    34    1
    36    18    35    1
    37    18    36    1
    38    19    37    1
    39    19    38    1
    40    20    39    1
    41    20    40    1
    42    21    41    1
    43    21    42    1
