@<TRIPOS>MOLECULE
*****
 58 61 0 0 0
SMALL
GASTEIGER

@<TRIPOS>ATOM
      1 C           1.0381   -0.0011    0.0455 C.3     1  UNL1       -0.0238
      2 C           2.5307   -0.1148   -0.0348 C.2     1  UNL1        0.0379
      3 C           3.2793   -1.2401   -0.0590 C.2     1  UNL1        0.0504
      4 N           2.8021   -2.5559   -0.1213 N.am    1  UNL1       -0.2853
      5 C           3.5851   -3.6924    0.0462 C.2     1  UNL1        0.2273
      6 O           4.7263   -3.6138    0.5222 O.2     1  UNL1       -0.2746
      7 C           2.9650   -5.0697   -0.2969 C.3     1  UNL1        0.0779
      8 S           4.3260   -6.2633   -0.5250 S.3     1  UNL1       -0.0785
      9 C           3.7313   -7.8768   -0.5383 C.ar    1  UNL1        0.1672
     10 N           4.5196   -8.9138   -0.3975 N.ar    1  UNL1       -0.2270
     11 C           3.7413  -10.0225   -0.6047 C.ar    1  UNL1        0.0605
     12 C           4.3663  -11.3675   -0.5195 C.3     1  UNL1       -0.0206
     13 C           2.4254   -9.6504   -0.8594 C.ar    1  UNL1        0.0435
     14 C           1.1701  -10.4377   -1.1336 C.3     1  UNL1        0.0145
     15 C           1.3355  -11.9423   -1.0325 C.ar    1  UNL1       -0.0416
     16 C           1.2160  -12.7832   -2.1465 C.ar    1  UNL1       -0.0582
     17 C           1.4510  -14.1571   -2.0185 C.ar    1  UNL1       -0.0615
     18 C           1.9329  -14.6808   -0.8190 C.ar    1  UNL1       -0.0617
     19 C           2.0730  -13.8529    0.2876 C.ar    1  UNL1       -0.0615
     20 C           1.6983  -12.5121    0.1994 C.ar    1  UNL1       -0.0582
     21 N           2.4508   -8.2637   -0.8075 N.ar    1  UNL1       -0.3362
     22 C           4.7824   -0.8395   -0.0378 C.3     1  UNL1        0.0789
     23 C           5.6061   -1.4947   -1.1333 C.3     1  UNL1       -0.0394
     24 N           4.7113    0.6836   -0.1229 N.pl3   1  UNL1       -0.2450
     25 C           5.6780    1.4643   -0.8030 C.ar    1  UNL1        0.0482
     26 C           6.2630    2.5766   -0.1732 C.ar    1  UNL1       -0.0391
     27 C           7.2258    3.3824   -0.8208 C.ar    1  UNL1       -0.0600
     28 C           7.6878    3.0557   -2.0920 C.ar    1  UNL1       -0.0616
     29 C           7.1387    1.9616   -2.7376 C.ar    1  UNL1       -0.0600
     30 C           6.1242    1.2157   -2.1145 C.ar    1  UNL1       -0.0391
     31 N           3.3537    1.0149   -0.1415 N.pl3   1  UNL1       -0.2663
     32 H           0.5556   -0.9829   -0.0090 H       1  UNL1        0.0291
     33 H           0.6443    0.5923   -0.7851 H       1  UNL1        0.0291
     34 H           0.7066    0.4570    0.9852 H       1  UNL1        0.0291
     35 H           1.7999   -2.6748   -0.2094 H       1  UNL1        0.1546
     36 H           2.3776   -5.0301   -1.2200 H       1  UNL1        0.0475
     37 H           2.3286   -5.3611    0.5419 H       1  UNL1        0.0475
     38 H           5.4523  -11.3227   -0.4322 H       1  UNL1        0.0293
     39 H           4.1208  -11.9689   -1.4009 H       1  UNL1        0.0293
     40 H           4.0352  -11.8797    0.3854 H       1  UNL1        0.0293
     41 H           0.7826  -10.1687   -2.1248 H       1  UNL1        0.0376
     42 H           0.3959  -10.1480   -0.4112 H       1  UNL1        0.0376
     43 H           0.9675  -12.3808   -3.1260 H       1  UNL1        0.0620
     44 H           1.2848  -14.8202   -2.8634 H       1  UNL1        0.0618
     45 H           2.2135  -15.7284   -0.7503 H       1  UNL1        0.0618
     46 H           2.5145  -14.2299    1.2070 H       1  UNL1        0.0618
     47 H           1.8462  -11.8665    1.0647 H       1  UNL1        0.0620
     48 H           1.6747   -7.6422   -0.9691 H       1  UNL1        0.1676
     49 H           5.1895   -1.0746    0.9536 H       1  UNL1        0.0578
     50 H           5.1344   -1.3604   -2.1094 H       1  UNL1        0.0252
     51 H           5.7260   -2.5691   -1.0396 H       1  UNL1        0.0252
     52 H           6.6301   -1.1137   -1.1190 H       1  UNL1        0.0252
     53 H           5.9980    2.8184    0.8523 H       1  UNL1        0.0637
     54 H           7.6234    4.2661   -0.3275 H       1  UNL1        0.0618
     55 H           8.4609    3.6467   -2.5778 H       1  UNL1        0.0618
     56 H           7.4804    1.6850   -3.7327 H       1  UNL1        0.0618
     57 H           5.7045    0.4159   -2.7082 H       1  UNL1        0.0637
     58 H           3.0660    1.8450    0.3807 H       1  UNL1        0.1698
@<TRIPOS>BOND
     1     1     2    1
     2     2     3    2
     3     3     4    1
     4     4     5   am
     5     5     6    2
     6     5     7    1
     7     7     8    1
     8     8     9    1
     9     9    10   ar
    10    10    11   ar
    11    11    12    1
    12    11    13   ar
    13    13    14    1
    14    14    15    1
    15    15    16   ar
    16    16    17   ar
    17    17    18   ar
    18    18    19   ar
    19    19    20   ar
    20    15    20   ar
    21    13    21   ar
    22     9    21   ar
    23     3    22    1
    24    22    24    1
    25    24    25    1
    26    25    26   ar
    27    26    27   ar
    28    27    28   ar
    29    28    29   ar
    30    29    30   ar
    31    25    30   ar
    32    24    31    1
    33     2    31    1
    34    22    23    1
    35     1    32    1
    36     1    33    1
    37     1    34    1
    38     4    35    1
    39     7    36    1
    40     7    37    1
    41    12    38    1
    42    12    39    1
    43    12    40    1
    44    14    41    1
    45    14    42    1
    46    16    43    1
    47    17    44    1
    48    18    45    1
    49    19    46    1
    50    20    47    1
    51    21    48    1
    52    22    49    1
    53    23    50    1
    54    23    51    1
    55    23    52    1
    56    26    53    1
    57    27    54    1
    58    28    55    1
    59    29    56    1
    60    30    57    1
    61    31    58    1
