REMARK  11 active torsions:
REMARK  status: ('A' for Active; 'I' for Inactive)
REMARK    1  A    between atoms: C_2  and  N_5 
REMARK       I    between atoms: N_5  and  C_6 
REMARK    2  A    between atoms: C_8  and  C_6 
REMARK    3  A    between atoms: C_8  and  N_18 
REMARK    4  A    between atoms: C_8  and  C_9 
REMARK    5  A    between atoms: C_10  and  O_11 
REMARK    6  A    between atoms: C_13  and  O_14 
REMARK    7  A    between atoms: C_16  and  O_17 
REMARK    8  A    between atoms: N_18  and  C_19 
REMARK       I    between atoms: N_18  and  C_25 
REMARK    9  A    between atoms: C_19  and  C_20 
REMARK   10  A    between atoms: C_25  and  C_27 
REMARK   11  A    between atoms: C_29  and  N_30 
ROOT
ATOM      1  C   UNL d   1       4.926  -1.411   2.638  0.00  0.00     0.218 C 
ENDROOT
BRANCH   1   2
ATOM      2  N   UNL d   1       6.423  -1.532   2.500  0.00  0.00    -0.324 N 
ATOM      3  C   UNL d   1       7.116  -1.922   3.719  0.00  0.00     0.259 C 
ATOM      4  O   UNL d   1       6.515  -2.430   4.655  0.00  0.00    -0.267 OA
BRANCH   2   5
ATOM      5  C   UNL d   1       7.243  -0.803   1.519  0.00  0.00     0.192 C 
BRANCH   5   6
ATOM      6  C   UNL d   1       6.687  -0.416   0.220  0.00  0.00     0.070 A 
ATOM      7  C   UNL d   1       6.139  -1.143  -0.801  0.00  0.00     0.036 A 
ATOM      8  C   UNL d   1       5.696  -0.206  -1.758  0.00  0.00     0.027 A 
ATOM      9  C   UNL d   1       6.053   1.035  -1.281  0.00  0.00     0.142 A 
ATOM     10  O   UNL d   1       6.692   0.914  -0.092  0.00  0.00    -0.325 OA
ENDBRANCH   5   6
ENDBRANCH   2   5
BRANCH   3  11
ATOM     11  C   UNL d   1       8.648  -1.869   3.821  0.00  0.00     0.084 C 
ATOM     12  C   UNL d   1       9.294  -3.087   4.148  0.00  0.00     0.057 C 
ATOM     13  C   UNL d   1      10.695  -3.152   4.184  0.00  0.00     0.104 C 
ATOM     14  C   UNL d   1      11.462  -2.033   3.874  0.00  0.00     0.040 C 
ATOM     15  C   UNL d   1      10.814  -0.833   3.605  0.00  0.00     0.058 C 
ATOM     16  C   UNL d   1       9.414  -0.669   3.669  0.00  0.00     0.187 C 
ATOM     17  O   UNL d   1       8.942   0.515   3.642  0.00  0.00    -0.287 OA
BRANCH  13  18
ATOM     18  N   UNL d   1      11.403  -4.394   4.520  0.00  0.00    -0.116 N 
ATOM     19  O   UNL d   1      10.714  -5.405   4.780  0.00  0.00    -0.532 OA
ATOM     20  O   UNL d   1      12.636  -4.390   4.514  0.00  0.00    -0.532 OA
ENDBRANCH  13  18
ENDBRANCH   3  11
ENDBRANCH   1   2
BRANCH   1  21
ATOM     21  C   UNL d   1       4.115  -0.631   1.563  0.00  0.00     0.040 C 
ATOM     22  C   UNL d   1       4.091   0.775   1.517  0.00  0.00     0.080 C 
ATOM     23  C   UNL d   1       3.585   1.466   0.392  0.00  0.00     0.073 C 
ATOM     24  C   UNL d   1       3.023   0.767  -0.678  0.00  0.00     0.071 C 
ATOM     25  C   UNL d   1       2.905  -0.605  -0.615  0.00  0.00     0.073 C 
ATOM     26  C   UNL d   1       3.501  -1.276   0.459  0.00  0.00     0.080 C 
BRANCH  22  27
ATOM     27  O   UNL d   1       4.733   1.568   2.433  0.00  0.00    -0.360 OA
ATOM     28  H   UNL d   1       5.326   1.044   3.005  0.00  0.00     0.217 HD
ENDBRANCH  22  27
BRANCH  24  29
ATOM     29  O   UNL d   1       2.867   1.322  -1.925  0.00  0.00    -0.361 OA
ATOM     30  H   UNL d   1       3.517   2.041  -2.021  0.00  0.00     0.217 HD
ENDBRANCH  24  29
BRANCH  26  31
ATOM     31  O   UNL d   1       3.784  -2.595   0.204  0.00  0.00    -0.360 OA
ATOM     32  H   UNL d   1       3.257  -2.909  -0.547  0.00  0.00     0.217 HD
ENDBRANCH  26  31
ENDBRANCH   1  21
BRANCH   1  33
ATOM     33  C   UNL d   1       4.148  -2.732   3.009  0.00  0.00     0.246 C 
ATOM     34  N   UNL d   1       4.244  -3.884   2.211  0.00  0.00    -0.351 N 
ATOM     35  H   UNL d   1       4.894  -3.826   1.431  0.00  0.00     0.163 HD
ATOM     36  O   UNL d   1       3.266  -2.643   3.875  0.00  0.00    -0.271 OA
BRANCH  34  37
ATOM     37  C   UNL d   1       3.027  -4.735   2.056  0.00  0.00     0.022 C 
ATOM     38  C   UNL d   1       3.191  -5.838   0.981  0.00  0.00     0.037 C 
ATOM     39  C   UNL d   1       1.761  -3.924   1.641  0.00  0.00     0.037 C 
ATOM     40  C   UNL d   1       2.757  -5.424   3.395  0.00  0.00     0.037 C 
ENDBRANCH  34  37
ENDBRANCH   1  33
TORSDOF 11
