@<TRIPOS>MOLECULE
*****
 76 77 0 0 0
SMALL
GASTEIGER

@<TRIPOS>ATOM
      1 C           0.7868    0.1095   -0.0428 C.3     1  UNL1       -0.0639
      2 C           2.2785    0.0794   -0.0922 C.3     1  UNL1       -0.0400
      3 C           3.0473    1.1493    0.6288 C.3     1  UNL1        0.0156
      4 N           4.5258    1.0481    0.5610 N.am    1  UNL1       -0.2844
      5 C           5.1890    0.3849   -0.5208 C.2     1  UNL1        0.2336
      6 O           6.2316    0.7731   -1.0489 O.2     1  UNL1       -0.2739
      7 C           4.6457   -0.9853   -0.9407 C.3     1  UNL1        0.0886
      8 N           5.5687   -1.9496   -1.4536 N.am    1  UNL1       -0.3027
      9 C           5.0174   -2.9990   -2.1635 C.2     1  UNL1        0.2445
     10 O           3.8204   -3.1682   -2.3096 O.2     1  UNL1       -0.2702
     11 C           5.9700   -3.9265   -2.7862 C.ar    1  UNL1        0.0367
     12 C           5.6969   -4.3731   -4.0818 C.ar    1  UNL1       -0.0496
     13 C           6.5077   -5.3488   -4.6514 C.ar    1  UNL1       -0.0610
     14 C           7.6163   -5.8245   -3.9498 C.ar    1  UNL1       -0.0617
     15 C           7.8918   -5.3616   -2.6606 C.ar    1  UNL1       -0.0610
     16 C           7.0615   -4.4144   -2.0684 C.ar    1  UNL1       -0.0496
     17 C           5.2611    2.1372    1.3090 C.3     1  UNL1        0.1342
     18 C           4.9117    2.2155    2.8299 C.2     1  UNL1        0.2387
     19 O           5.8087    2.0579    3.6665 O.2     1  UNL1       -0.2734
     20 N           3.6042    2.4642    3.2423 N.am    1  UNL1       -0.3085
     21 C           3.2924    2.4151    4.6877 C.3     1  UNL1        0.0295
     22 C           3.7054    1.0118    5.1838 C.3     1  UNL1       -0.0440
     23 C           4.1146    3.5353    5.3472 C.3     1  UNL1       -0.0440
     24 C           1.7474    2.6361    4.9502 C.3     1  UNL1       -0.0272
     25 C           1.2202    2.6269    6.4408 C.3     1  UNL1       -0.0358
     26 C           1.4301    1.2784    7.1477 C.3     1  UNL1       -0.0600
     27 C           1.8251    3.7499    7.2971 C.3     1  UNL1       -0.0600
     28 C          -0.3012    2.8682    6.4666 C.3     1  UNL1       -0.0600
     29 C           6.7789    1.9643    1.2955 C.ar    1  UNL1        0.0648
     30 C           7.3922    0.7051    1.4885 C.ar    1  UNL1        0.1292
     31 O           6.7052   -0.4647    1.7018 O.3     1  UNL1       -0.5062
     32 C           8.7654    0.5592    1.4180 C.ar    1  UNL1        0.0219
     33 C           9.5512    1.6888    1.2514 C.ar    1  UNL1        0.1238
     34 O          10.9042    1.5721    1.1257 O.3     1  UNL1       -0.5065
     35 C           8.9910    2.9625    1.2071 C.ar    1  UNL1        0.0219
     36 C           7.6049    3.0958    1.2169 C.ar    1  UNL1        0.1292
     37 O           7.0281    4.3381    1.1712 O.3     1  UNL1       -0.5062
     38 H           0.4405   -0.7584   -0.6171 H       1  UNL1        0.0230
     39 H           0.4116    1.0182   -0.5112 H       1  UNL1        0.0230
     40 H           0.4328    0.0167    0.9837 H       1  UNL1        0.0230
     41 H           2.5226    0.1519   -1.1480 H       1  UNL1        0.0278
     42 H           2.5461   -0.8741    0.3633 H       1  UNL1        0.0278
     43 H           2.7507    1.0531    1.6712 H       1  UNL1        0.0465
     44 H           2.7573    2.1451    0.2668 H       1  UNL1        0.0465
     45 H           3.9571   -0.8069   -1.7659 H       1  UNL1        0.0558
     46 H           4.2048   -1.5061   -0.0912 H       1  UNL1        0.0558
     47 H           6.5596   -1.7638   -1.3868 H       1  UNL1        0.1495
     48 H           4.8529   -3.9666   -4.6352 H       1  UNL1        0.0625
     49 H           6.2660   -5.7477   -5.6325 H       1  UNL1        0.0618
     50 H           8.2651   -6.5657   -4.4084 H       1  UNL1        0.0618
     51 H           8.7388   -5.7587   -2.1087 H       1  UNL1        0.0618
     52 H           7.2463   -4.0892   -1.0481 H       1  UNL1        0.0625
     53 H           4.9614    3.0939    0.8616 H       1  UNL1        0.0650
     54 H           2.9055    2.8101    2.5994 H       1  UNL1        0.1493
     55 H           4.7017    0.6928    4.8849 H       1  UNL1        0.0250
     56 H           3.0196    0.2436    4.8060 H       1  UNL1        0.0250
     57 H           3.7863    0.9637    6.2598 H       1  UNL1        0.0250
     58 H           5.1647    3.5542    5.0636 H       1  UNL1        0.0250
     59 H           4.1866    3.4180    6.4184 H       1  UNL1        0.0250
     60 H           3.7122    4.5197    5.0814 H       1  UNL1        0.0250
     61 H           1.1831    1.8787    4.3801 H       1  UNL1        0.0291
     62 H           1.4472    3.5891    4.4841 H       1  UNL1        0.0291
     63 H           2.4626    1.1077    7.4326 H       1  UNL1        0.0235
     64 H           1.0775    0.4465    6.5273 H       1  UNL1        0.0235
     65 H           0.9094    1.2403    8.1080 H       1  UNL1        0.0235
     66 H           2.8533    3.5548    7.5815 H       1  UNL1        0.0235
     67 H           1.3235    3.8364    8.2641 H       1  UNL1        0.0235
     68 H           1.7622    4.7162    6.7837 H       1  UNL1        0.0235
     69 H          -0.8445    2.0827    5.9339 H       1  UNL1        0.0235
     70 H          -0.5635    3.8398    6.0388 H       1  UNL1        0.0235
     71 H          -0.6560    2.8629    7.5069 H       1  UNL1        0.0235
     72 H           5.7541   -0.2836    1.6385 H       1  UNL1        0.2922
     73 H           9.1835   -0.4377    1.4862 H       1  UNL1        0.0691
     74 H          11.1078    0.6236    1.0545 H       1  UNL1        0.2921
     75 H           9.6455    3.8248    1.1575 H       1  UNL1        0.0691
     76 H           7.7339    5.0078    1.1545 H       1  UNL1        0.2922
@<TRIPOS>BOND
     1     1     2    1
     2     2     3    1
     3     3     4    1
     4     4     5   am
     5     5     6    2
     6     5     7    1
     7     7     8    1
     8     8     9   am
     9     9    10    2
    10     9    11    1
    11    11    12   ar
    12    12    13   ar
    13    13    14   ar
    14    14    15   ar
    15    15    16   ar
    16    11    16   ar
    17     4    17    1
    18    17    18    1
    19    18    19    2
    20    18    20   am
    21    20    21    1
    22    21    22    1
    23    21    23    1
    24    21    24    1
    25    24    25    1
    26    25    26    1
    27    25    27    1
    28    25    28    1
    29    17    29    1
    30    29    30   ar
    31    30    31    1
    32    30    32   ar
    33    32    33   ar
    34    33    34    1
    35    33    35   ar
    36    35    36   ar
    37    29    36   ar
    38    36    37    1
    39     1    38    1
    40     1    39    1
    41     1    40    1
    42     2    41    1
    43     2    42    1
    44     3    43    1
    45     3    44    1
    46     7    45    1
    47     7    46    1
    48     8    47    1
    49    12    48    1
    50    13    49    1
    51    14    50    1
    52    15    51    1
    53    16    52    1
    54    17    53    1
    55    20    54    1
    56    22    55    1
    57    22    56    1
    58    22    57    1
    59    23    58    1
    60    23    59    1
    61    23    60    1
    62    24    61    1
    63    24    62    1
    64    26    63    1
    65    26    64    1
    66    26    65    1
    67    27    66    1
    68    27    67    1
    69    27    68    1
    70    28    69    1
    71    28    70    1
    72    28    71    1
    73    31    72    1
    74    32    73    1
    75    34    74    1
    76    35    75    1
    77    37    76    1
