REMARK  7 active torsions:
REMARK  status: ('A' for Active; 'I' for Inactive)
REMARK    1  A    between atoms: O_2  and  C_3 
REMARK    2  A    between atoms: C_6  and  C_7 
REMARK       I    between atoms: C_7  and  N_9 
REMARK       I    between atoms: C_10  and  N_11 
REMARK       I    between atoms: C_10  and  N_23 
REMARK    3  A    between atoms: N_11  and  C_12 
REMARK    4  A    between atoms: C_12  and  C_13 
REMARK    5  A    between atoms: C_13  and  C_14 
REMARK    6  A    between atoms: N_23  and  C_24 
REMARK    7  A    between atoms: C_33  and  O_34 
ROOT
ATOM      1  C   UNL d   1       5.449   2.709   3.898  0.00  0.00     0.294 C 
ATOM      2  O   UNL d   1       6.537   3.195   3.551  0.00  0.00    -0.265 OA
ATOM      3  N   UNL d   1       4.893   2.849   5.148  0.00  0.00    -0.023 NA
ATOM      4  C   UNL d   1       5.443   3.640   6.027  0.00  0.00     0.704 C 
ATOM      5  N   UNL d   1       4.775   3.889   7.200  0.00  0.00    -0.224 N 
ATOM      6  N   UNL d   1       6.607   4.358   5.880  0.00  0.00    -0.190 N 
ATOM      7  H   UNL d   1       5.214   4.565   7.817  0.00  0.00     0.177 HD
ATOM      8  H   UNL d   1       7.076   4.173   4.986  0.00  0.00     0.184 HD
ENDROOT
BRANCH   5   9
ATOM      9  C   UNL d   1       3.705   3.060   7.710  0.00  0.00     0.142 C 
BRANCH   9  10
ATOM     10  C   UNL d   1       3.451   3.281   9.199  0.00  0.00     0.057 C 
BRANCH  10  11
ATOM     11  C   UNL d   1       2.185   2.685   9.735  0.00  0.00    -0.048 A 
ATOM     12  C   UNL d   1       1.844   2.818  11.017  0.00  0.00    -0.006 A 
ATOM     13  C   UNL d   1       2.502   3.461  12.098  0.00  0.00     0.014 A 
ATOM     14  C   UNL d   1       0.578   2.097  11.187  0.00  0.00     0.038 A 
ATOM     15  C   UNL d   1       1.996   3.309  13.325  0.00  0.00     0.001 A 
ATOM     16  C   UNL d   1       0.728   2.626  13.539  0.00  0.00     0.002 A 
ATOM     17  C   UNL d   1       0.017   2.038  12.554  0.00  0.00     0.030 A 
ATOM     18  N   UNL d   1       0.158   1.618  10.077  0.00  0.00    -0.385 N 
ATOM     19  C   UNL d   1       1.153   1.882   8.993  0.00  0.00     0.155 A 
ATOM     20  H   UNL d   1      -0.739   1.141   9.991  0.00  0.00     0.160 HD
ENDBRANCH  10  11
ENDBRANCH   9  10
ENDBRANCH   5   9
BRANCH   6  21
ATOM     21  C   UNL d   1       7.529   4.841   6.843  0.00  0.00     0.055 A 
ATOM     22  C   UNL d   1       8.276   5.991   6.505  0.00  0.00     0.031 A 
ATOM     23  C   UNL d   1       9.223   6.535   7.381  0.00  0.00     0.009 A 
ATOM     24  C   UNL d   1       9.382   5.997   8.655  0.00  0.00    -0.061 A 
ATOM     25  C   UNL d   1      10.271   6.638   9.677  0.00  0.00     0.048 C 
ATOM     26  C   UNL d   1       8.665   4.849   8.995  0.00  0.00     0.015 A 
ATOM     27  C   UNL d   1       7.771   4.241   8.096  0.00  0.00    -0.034 A 
ATOM     28  C   UNL d   1       7.169   2.939   8.537  0.00  0.00     0.050 C 
ENDBRANCH   6  21
BRANCH   1  29
ATOM     29  C   UNL d   1       4.625   1.982   2.879  0.00  0.00     0.037 A 
ATOM     30  C   UNL d   1       5.038   1.902   1.550  0.00  0.00     0.020 A 
ATOM     31  C   UNL d   1       4.206   1.310   0.579  0.00  0.00     0.040 A 
ATOM     32  C   UNL d   1       2.970   0.704   0.911  0.00  0.00     0.101 A 
ATOM     33  C   UNL d   1       2.571   0.767   2.266  0.00  0.00     0.102 A 
ATOM     34  C   UNL d   1       3.400   1.407   3.217  0.00  0.00     0.056 A 
BRANCH  32  35
ATOM     35  O   UNL d   1       2.488  -0.100  -0.101  0.00  0.00    -0.353 OA
ATOM     36  C   UNL d   1       1.159  -0.021  -0.617  0.00  0.00     0.210 C 
ENDBRANCH  32  35
BRANCH  33  37
ATOM     37  O   UNL d   1       1.477   0.256   2.929  0.00  0.00    -0.353 OA
ATOM     38  C   UNL d   1       0.503  -0.314   2.106  0.00  0.00     0.210 C 
ENDBRANCH  33  37
ENDBRANCH   1  29
TORSDOF 7
