REMARK  9 active torsions:
REMARK  status: ('A' for Active; 'I' for Inactive)
REMARK    1  A    between atoms: C_2  and  C_3 
REMARK    2  A    between atoms: C_3  and  C_4 
REMARK    3  A    between atoms: CA_5  and  C_4 
REMARK    4  A    between atoms: CA_5  and  N_8 
REMARK    5  A    between atoms: CA_5  and  C_6 
REMARK    6  A    between atoms: C_6  and  O_7 
REMARK       I    between atoms: N_8  and  C_9 
REMARK    7  A    between atoms: C_9  and  C_11 
REMARK    8  A    between atoms: C_15  and  N_16 
REMARK       I    between atoms: N_16  and  C_17 
REMARK    9  A    between atoms: C_17  and  C_19 
ROOT
ATOM      1  C   UNL d   1       8.786  -1.691  -3.807  0.00  0.00     0.034 A 
ATOM      2  C   UNL d   1       9.500  -1.370  -4.956  0.00  0.00     0.017 A 
ATOM      3  C   UNL d   1      10.894  -1.531  -4.950  0.00  0.00     0.003 A 
ATOM      4  C   UNL d   1      11.565  -1.966  -3.788  0.00  0.00     0.029 A 
ATOM      5  C   UNL d   1      10.837  -2.261  -2.630  0.00  0.00     0.035 A 
ATOM      6  C   UNL d   1       9.459  -2.092  -2.673  0.00  0.00     0.046 A 
ENDROOT
BRANCH   1   7
ATOM      7  C   UNL d   1       7.326  -1.905  -3.743  0.00  0.00     0.252 C 
ATOM      8  N   UNL d   1       6.635  -1.295  -2.698  0.00  0.00    -0.350 N 
ATOM      9  H   UNL d   1       7.160  -0.772  -2.006  0.00  0.00     0.163 HD
ATOM     10  O   UNL d   1       6.811  -2.618  -4.605  0.00  0.00    -0.268 OA
BRANCH   8  11
ATOM     11  CA  UNL d   1       5.163  -1.179  -2.696  0.00  0.00     0.108 C 
BRANCH  11  12
ATOM     12  C   UNL d   1       4.631  -0.596  -1.360  0.00  0.00     0.189 C 
BRANCH  12  13
ATOM     13  O   UNL d   1       4.485  -1.589  -0.352  0.00  0.00    -0.399 OA
ATOM     14  H   UNL d   1       5.334  -2.054  -0.266  0.00  0.00     0.209 HD
ENDBRANCH  12  13
ENDBRANCH  11  12
BRANCH  11  15
ATOM     15  C   UNL d   1       4.615  -0.309  -3.862  0.00  0.00     0.027 C 
BRANCH  15  16
ATOM     16  C   UNL d   1       5.658   0.126  -4.876  0.00  0.00     0.002 C 
BRANCH  16  17
ATOM     17  C   UNL d   1       5.129   0.931  -6.034  0.00  0.00    -0.004 C 
ATOM     18  C   UNL d   1       6.298   1.202  -6.972  0.00  0.00     0.005 C 
ENDBRANCH  16  17
ENDBRANCH  15  16
ENDBRANCH  11  15
ENDBRANCH   8  11
ENDBRANCH   1   7
BRANCH   5  19
ATOM     19  N   UNL d   1      11.453  -2.783  -1.459  0.00  0.00    -0.327 N 
ATOM     20  C   UNL d   1      10.737  -3.151  -0.323  0.00  0.00     0.221 C 
ATOM     21  O   UNL d   1       9.518  -3.050  -0.180  0.00  0.00    -0.273 OA
ATOM     22  H   UNL d   1      12.454  -2.933  -1.486  0.00  0.00     0.169 HD
BRANCH  20  23
ATOM     23  C   UNL d   1      11.528  -3.706   0.833  0.00  0.00     0.098 C 
ATOM     24  C   UNL d   1      10.540  -4.019   1.964  0.00  0.00     0.014 C 
ENDBRANCH  20  23
ENDBRANCH   5  19
TORSDOF 9
