@<TRIPOS>MOLECULE
*****
 53 56 0 0 0
SMALL
GASTEIGER

@<TRIPOS>ATOM
      1 C           1.0595    0.1674   -0.0129 C.3     1  UNL1       -0.0307
      2 C           2.5713    0.2165    0.0810 C.3     1  UNL1        0.0869
      3 O           3.0727    1.0360   -0.9681 O.3     1  UNL1       -0.4904
      4 C           4.4240    1.0267   -1.2097 C.ar    1  UNL1        0.1422
      5 C           4.9581    2.2857   -1.5188 C.ar    1  UNL1       -0.0181
      6 C           6.2962    2.4237   -1.8959 C.ar    1  UNL1       -0.0582
      7 C           7.1370    1.3151   -1.8933 C.ar    1  UNL1       -0.0598
      8 C           6.6255    0.0578   -1.5712 C.ar    1  UNL1       -0.0362
      9 C           5.2637   -0.1056   -1.2598 C.ar    1  UNL1        0.0870
     10 N           4.7659   -1.4376   -1.0848 N.am    1  UNL1       -0.1881
     11 C           5.2485   -2.1437    0.0405 C.2     1  UNL1        0.3394
     12 O           6.0727   -1.6954    0.7950 O.2     1  UNL1       -0.2495
     13 N           4.6720   -3.3793    0.2938 N.am    1  UNL1       -0.1306
     14 C           3.6733   -3.7814   -0.3812 C.2     1  UNL1        0.1980
     15 O           3.1647   -4.9891   -0.0787 O.2     1  UNL1       -0.4962
     16 C           2.9609   -3.0975   -1.5119 C.3     1  UNL1        0.1442
     17 C           1.4217   -2.8735   -1.2314 C.2     1  UNL1        0.0203
     18 N           0.4683   -2.9435   -2.1257 N.2     1  UNL1       -0.2943
     19 C          -1.0580   -2.7123   -1.7789 C.3     1  UNL1        0.0434
     20 C          -2.0978   -3.0821   -3.1942 C.3     1  UNL1       -0.0061
     21 C          -3.8960   -2.9594   -3.4145 C.ar    1  UNL1       -0.0206
     22 C          -3.9567   -1.6105   -3.7157 C.ar    1  UNL1        0.0060
     23 N          -5.0392   -1.3660   -2.9119 N.ar    1  UNL1       -0.3604
     24 C          -6.0530   -1.7864   -3.7158 C.ar    1  UNL1        0.0467
     25 C          -7.2085   -1.0287   -3.9906 C.ar    1  UNL1       -0.0378
     26 C          -8.0687   -1.3509   -5.0025 C.ar    1  UNL1       -0.0598
     27 C          -7.6939   -2.4577   -5.7417 C.ar    1  UNL1       -0.0611
     28 C          -6.4422   -3.2971   -5.4104 C.ar    1  UNL1       -0.0523
     29 C          -5.4800   -2.9629   -4.2629 C.ar    1  UNL1        0.0029
     30 C           3.6952   -1.8340   -1.8915 C.2     1  UNL1        0.2447
     31 O           3.3163   -1.1909   -2.8750 O.2     1  UNL1       -0.2736
     32 H           0.6589   -0.5333    0.7271 H       1  UNL1        0.0262
     33 H           0.7465   -0.1669   -1.0093 H       1  UNL1        0.0262
     34 H           0.6227    1.1526    0.1460 H       1  UNL1        0.0262
     35 H           2.8787   -0.8167    0.0140 H       1  UNL1        0.0694
     36 H           2.9173    0.5777    1.0499 H       1  UNL1        0.0694
     37 H           4.3247    3.1692   -1.4712 H       1  UNL1        0.0655
     38 H           6.6788    3.3939   -2.2040 H       1  UNL1        0.0619
     39 H           8.1858    1.4245   -2.1588 H       1  UNL1        0.0618
     40 H           7.2858   -0.8048   -1.6266 H       1  UNL1        0.0637
     41 H           3.6758   -5.3902    0.6487 H       1  UNL1        0.2932
     42 H           3.0795   -3.7546   -2.3813 H       1  UNL1        0.0547
     43 H           1.2161   -2.6133   -0.1728 H       1  UNL1        0.0790
     44 H          -1.1278   -1.6580   -1.4424 H       1  UNL1        0.0511
     45 H          -1.2721   -3.3533   -0.9159 H       1  UNL1        0.0511
     46 H          -1.7017   -3.9911   -3.6197 H       1  UNL1        0.0332
     47 H          -1.7496   -2.2159   -3.7996 H       1  UNL1        0.0332
     48 H          -3.8633   -1.3312   -4.7749 H       1  UNL1        0.0810
     49 H          -5.1112   -1.6618   -1.9524 H       1  UNL1        0.1653
     50 H          -7.3173   -0.0858   -3.4698 H       1  UNL1        0.0638
     51 H          -8.9351   -0.7057   -5.1916 H       1  UNL1        0.0618
     52 H          -8.3640   -2.6466   -6.6018 H       1  UNL1        0.0618
     53 H          -6.3773   -4.1352   -6.1139 H       1  UNL1        0.0624
@<TRIPOS>BOND
     1     1     2    1
     2     2     3    1
     3     3     4    1
     4     4     5   ar
     5     5     6   ar
     6     6     7   ar
     7     7     8   ar
     8     8     9   ar
     9     4     9   ar
    10     9    10    1
    11    10    11   am
    12    11    12    2
    13    11    13    1
    14    13    14    2
    15    14    15    1
    16    14    16    1
    17    17    18    2
    18    18    19    1
    19    19    20    1
    20    20    21    1
    21    21    22   ar
    22    22    23   ar
    23    23    24   ar
    24    24    25   ar
    25    25    26   ar
    26    26    27   ar
    27    27    28   ar
    28    28    29   ar
    29    21    29   ar
    30    24    29   ar
    31    16    30    1
    32    10    30   am
    33    30    31    2
    34    16    17    1
    35     1    32    1
    36     1    33    1
    37     1    34    1
    38     2    35    1
    39     2    36    1
    40     5    37    1
    41     6    38    1
    42     7    39    1
    43     8    40    1
    44    15    41    1
    45    16    42    1
    46    17    43    1
    47    19    44    1
    48    19    45    1
    49    20    46    1
    50    20    47    1
    51    22    48    1
    52    23    49    1
    53    25    50    1
    54    26    51    1
    55    27    52    1
    56    28    53    1
