@<TRIPOS>MOLECULE
*****
 52 55 0 0 0
SMALL
GASTEIGER

@<TRIPOS>ATOM
      1 C           0.9372   -0.0556   -0.0187 C.3     1  UNL1        0.0790
      2 O           2.3683    0.0109   -0.0703 O.3     1  UNL1       -0.4908
      3 C           2.9697   -0.9399   -0.8483 C.ar    1  UNL1        0.1741
      4 C           2.5708   -1.1657   -2.1523 C.ar    1  UNL1        0.2080
      5 C           3.2751   -1.9905   -2.9919 C.ar    1  UNL1        0.1702
      6 C           4.4103   -2.6417   -2.5824 C.ar    1  UNL1       -0.0121
      7 C           4.8581   -2.4333   -1.2681 C.ar    1  UNL1       -0.0266
      8 C           4.1322   -1.5988   -0.3703 C.ar    1  UNL1        0.0507
      9 C           4.6313   -1.3914    1.0611 C.3     1  UNL1        0.0285
     10 C           3.4605   -1.4899    2.0864 C.3     1  UNL1        0.0865
     11 N           3.9528   -1.2050    3.4231 N.2     1  UNL1       -0.2886
     12 C           3.0655   -1.1507    4.3459 C.2     1  UNL1        0.0207
     13 C           3.4907   -0.8145    5.7429 C.3     1  UNL1        0.1487
     14 C           3.7164    0.6510    5.8887 C.2     1  UNL1        0.2554
     15 O           4.5509    1.2056    5.1667 O.2     1  UNL1       -0.2724
     16 N           2.9900    1.3598    6.7970 N.am    1  UNL1       -0.1581
     17 C           2.1479    0.7706    7.5715 C.2     1  UNL1        0.1519
     18 S           1.2775    1.7862    8.6999 S.3     1  UNL1       -0.1099
     19 N           1.8862   -0.5813    7.5684 N.am    1  UNL1       -0.2550
     20 C           0.9179   -1.2497    8.4312 C.3     1  UNL1        0.0099
     21 C           2.5370   -1.4239    6.6964 C.2     1  UNL1        0.2381
     22 O           2.3185   -2.6374    6.6336 O.2     1  UNL1       -0.2740
     23 N           5.7299   -2.4332    1.4718 N.4     1  UNL1        0.2401
     24 C           6.4530   -2.1142    2.7576 C.3     1  UNL1       -0.0424
     25 C           6.7540   -2.5904    0.3868 C.3     1  UNL1       -0.0274
     26 C           6.1164   -3.1487   -0.8651 C.3     1  UNL1        0.0134
     27 O           2.7566   -2.0190   -4.2483 O.3     1  UNL1       -0.4525
     28 C           1.8098   -0.9380   -4.1546 C.3     1  UNL1        0.2334
     29 O           1.5214   -0.5843   -2.7945 O.3     1  UNL1       -0.4489
     30 H           0.6006    0.6961    0.7019 H       1  UNL1        0.0660
     31 H           0.6048   -1.0370    0.3389 H       1  UNL1        0.0660
     32 H           0.4628    0.1947   -0.9674 H       1  UNL1        0.0660
     33 H           4.9598   -3.2697   -3.2782 H       1  UNL1        0.0658
     34 H           5.1309   -0.4157    1.1223 H       1  UNL1        0.0924
     35 H           2.6802   -0.7604    1.8909 H       1  UNL1        0.0568
     36 H           3.0082   -2.4874    2.0400 H       1  UNL1        0.0568
     37 H           1.9890   -1.3115    4.1503 H       1  UNL1        0.0791
     38 H           4.4633   -1.2905    5.9376 H       1  UNL1        0.0549
     39 H           1.8325    2.9653    8.3862 H       1  UNL1        0.1096
     40 H           0.4022   -0.5877    9.1214 H       1  UNL1        0.0433
     41 H           1.4431   -2.0202    9.0049 H       1  UNL1        0.0433
     42 H           0.1727   -1.7431    7.7967 H       1  UNL1        0.0433
     43 H           5.2380   -3.3235    1.6099 H       1  UNL1        0.2038
     44 H           6.9183   -1.1312    2.6603 H       1  UNL1        0.0778
     45 H           7.1992   -2.8951    2.9251 H       1  UNL1        0.0778
     46 H           5.7893   -2.1782    3.6113 H       1  UNL1        0.0778
     47 H           7.5232   -3.2851    0.7442 H       1  UNL1        0.0818
     48 H           7.2079   -1.6071    0.2192 H       1  UNL1        0.0818
     49 H           5.8780   -4.2090   -0.7223 H       1  UNL1        0.0365
     50 H           6.8528   -3.0736   -1.6747 H       1  UNL1        0.0365
     51 H           0.8796   -1.2145   -4.6589 H       1  UNL1        0.1166
     52 H           2.2362   -0.0534   -4.6435 H       1  UNL1        0.1166
@<TRIPOS>UNITY_ATOM_ATTR
23 1
charge 1
@<TRIPOS>BOND
     1     1     2    1
     2     2     3    1
     3     3     4   ar
     4     4     5   ar
     5     5     6   ar
     6     6     7   ar
     7     7     8   ar
     8     3     8   ar
     9     8     9    1
    10    10    11    1
    11    11    12    2
    12    12    13    1
    13    13    14    1
    14    14    15    2
    15    14    16    1
    16    16    17    2
    17    17    18    1
    18    17    19    1
    19    19    20    1
    20    19    21   am
    21    13    21    1
    22    21    22    2
    23     9    23    1
    24    23    24    1
    25    23    25    1
    26    25    26    1
    27     7    26    1
    28     5    27    1
    29    27    28    1
    30    28    29    1
    31     4    29    1
    32     9    10    1
    33     1    30    1
    34     1    31    1
    35     1    32    1
    36     6    33    1
    37     9    34    1
    38    10    35    1
    39    10    36    1
    40    12    37    1
    41    13    38    1
    42    18    39    1
    43    20    40    1
    44    20    41    1
    45    20    42    1
    46    23    43    1
    47    24    44    1
    48    24    45    1
    49    24    46    1
    50    25    47    1
    51    25    48    1
    52    26    49    1
    53    26    50    1
    54    28    51    1
    55    28    52    1
