@<TRIPOS>MOLECULE
*****
 63 65 0 0 0
SMALL
GASTEIGER

@<TRIPOS>ATOM
      1 C           0.9882    0.0740    0.0429 C.3     1  UNL1       -0.0613
      2 C           2.5132    0.0364    0.0424 C.3     1  UNL1       -0.0305
      3 C           2.9767   -0.8911    1.1376 C.ar    1  UNL1       -0.0475
      4 C           2.9053   -2.2836    1.0067 C.ar    1  UNL1       -0.0568
      5 C           3.0710   -3.1208    2.1322 C.ar    1  UNL1       -0.0402
      6 C           3.4132   -2.5812    3.3847 C.ar    1  UNL1        0.0338
      7 N           3.6746   -3.4235    4.5085 N.am    1  UNL1       -0.2777
      8 C           4.1120   -2.9876    5.7702 C.2     1  UNL1        0.3048
      9 O           4.2955   -1.8296    6.1441 O.2     1  UNL1       -0.2648
     10 C           4.4178   -4.0792    6.8171 C.2     1  UNL1        0.3184
     11 O           4.2961   -5.2639    6.4966 O.2     1  UNL1       -0.2634
     12 N           4.8200   -3.5744    8.0624 N.am    1  UNL1       -0.1992
     13 N           5.1406   -4.4309    9.0913 N.2     1  UNL1       -0.1873
     14 C           5.4326   -3.9285   10.2526 C.2     1  UNL1        0.0529
     15 C           5.8471   -4.8075   11.3832 C.ar    1  UNL1       -0.0020
     16 C           5.5971   -4.4665   12.7172 C.ar    1  UNL1       -0.0529
     17 C           6.1794   -5.2203   13.7452 C.ar    1  UNL1       -0.0577
     18 C           6.9620   -6.3383   13.4374 C.ar    1  UNL1       -0.0199
     19 C           7.1846   -6.6968   12.1030 C.ar    1  UNL1        0.1218
     20 O           7.9997   -7.7732   11.8991 O.3     1  UNL1       -0.4827
     21 C           8.3292   -8.1118   10.5443 C.3     1  UNL1        0.1655
     22 C           9.3024   -9.2924   10.5630 C.2     1  UNL1        0.2548
     23 O           9.6903   -9.7775   11.6266 O.2     1  UNL1       -0.2717
     24 N           9.7383   -9.7352    9.3132 N.am    1  UNL1       -0.2827
     25 C          10.5788  -10.8688    9.1787 C.ar    1  UNL1        0.0340
     26 C          11.5695  -10.9230    8.1929 C.ar    1  UNL1       -0.0375
     27 C          12.3291  -12.0962    8.0205 C.ar    1  UNL1       -0.0484
     28 C          13.2613  -12.2757    6.8588 C.3     1  UNL1       -0.0396
     29 C          12.1414  -13.1811    8.8864 C.ar    1  UNL1       -0.0558
     30 C          11.1391  -13.1444    9.8516 C.ar    1  UNL1       -0.0484
     31 C          10.8185  -14.3436   10.6868 C.3     1  UNL1       -0.0396
     32 C          10.3686  -11.9874    9.9897 C.ar    1  UNL1       -0.0375
     33 C           6.6131   -5.9372   11.0843 C.ar    1  UNL1       -0.0113
     34 C           3.5139   -1.1915    3.4764 C.ar    1  UNL1       -0.0402
     35 C           3.3110   -0.3573    2.3774 C.ar    1  UNL1       -0.0568
     36 H           0.6131    0.7536   -0.7262 H       1  UNL1        0.0233
     37 H           0.6027    0.4109    1.0132 H       1  UNL1        0.0233
     38 H           0.5707   -0.9214   -0.1458 H       1  UNL1        0.0233
     39 H           2.8995    1.0506    0.2114 H       1  UNL1        0.0311
     40 H           2.8947   -0.2871   -0.9317 H       1  UNL1        0.0311
     41 H           2.6792   -2.7157    0.0318 H       1  UNL1        0.0621
     42 H           2.8959   -4.1858    1.9954 H       1  UNL1        0.0636
     43 H           3.6095   -4.4310    4.3734 H       1  UNL1        0.1553
     44 H           4.8895   -2.5624    8.1818 H       1  UNL1        0.1777
     45 H           5.4338   -2.8428   10.4621 H       1  UNL1        0.0851
     46 H           4.9500   -3.6326   12.9748 H       1  UNL1        0.0624
     47 H           6.0464   -4.9295   14.7866 H       1  UNL1        0.0619
     48 H           7.4043   -6.9257   14.2424 H       1  UNL1        0.0654
     49 H           8.8234   -7.2668   10.0499 H       1  UNL1        0.0795
     50 H           7.4225   -8.4131   10.0081 H       1  UNL1        0.0795
     51 H           9.5580   -9.1856    8.4818 H       1  UNL1        0.1549
     52 H          11.7916  -10.0518    7.5824 H       1  UNL1        0.0639
     53 H          13.3107  -11.3784    6.2369 H       1  UNL1        0.0278
     54 H          12.8819  -13.0925    6.2320 H       1  UNL1        0.0278
     55 H          14.2703  -12.5319    7.1955 H       1  UNL1        0.0278
     56 H          12.7538  -14.0744    8.7771 H       1  UNL1        0.0623
     57 H          11.4915  -15.1769   10.4647 H       1  UNL1        0.0278
     58 H           9.7959  -14.6728   10.4724 H       1  UNL1        0.0278
     59 H          10.9069  -14.0998   11.7491 H       1  UNL1        0.0278
     60 H           9.5618  -11.9860   10.7190 H       1  UNL1        0.0639
     61 H           6.7789   -6.1803   10.0419 H       1  UNL1        0.0660
     62 H           3.7209   -0.6921    4.4126 H       1  UNL1        0.0636
     63 H           3.3815    0.7182    2.5208 H       1  UNL1        0.0621
@<TRIPOS>BOND
     1     1     2    1
     2     2     3    1
     3     3     4   ar
     4     4     5   ar
     5     5     6   ar
     6     6     7    1
     7     7     8   am
     8     8     9    2
     9     8    10    1
    10    10    11    2
    11    10    12   am
    12    12    13    1
    13    13    14    2
    14    14    15    1
    15    15    16   ar
    16    16    17   ar
    17    17    18   ar
    18    18    19   ar
    19    19    20    1
    20    20    21    1
    21    21    22    1
    22    22    23    2
    23    22    24   am
    24    24    25    1
    25    25    26   ar
    26    26    27   ar
    27    27    28    1
    28    27    29   ar
    29    29    30   ar
    30    30    31    1
    31    30    32   ar
    32    25    32   ar
    33    19    33   ar
    34    15    33   ar
    35     6    34   ar
    36    34    35   ar
    37     3    35   ar
    38     1    36    1
    39     1    37    1
    40     1    38    1
    41     2    39    1
    42     2    40    1
    43     4    41    1
    44     5    42    1
    45     7    43    1
    46    12    44    1
    47    14    45    1
    48    16    46    1
    49    17    47    1
    50    18    48    1
    51    21    49    1
    52    21    50    1
    53    24    51    1
    54    26    52    1
    55    28    53    1
    56    28    54    1
    57    28    55    1
    58    29    56    1
    59    31    57    1
    60    31    58    1
    61    31    59    1
    62    32    60    1
    63    33    61    1
    64    34    62    1
    65    35    63    1
