REMARK  4 active torsions:
REMARK  status: ('A' for Active; 'I' for Inactive)
REMARK    1  A    between atoms: C_2  and  C_3 
REMARK       I    between atoms: C_2  and  N_14 
REMARK    2  A    between atoms: C_3  and  S_4 
REMARK    3  A    between atoms: S_4  and  C_5 
REMARK       I    between atoms: N_14  and  C_15 
REMARK       I    between atoms: C_15  and  N_17 
REMARK    4  A    between atoms: N_17  and  C_18 
ROOT
ATOM      1  O   UNL d   1       1.162   0.317  -0.034  0.00  0.00    -0.272 OA
ATOM      2  C   UNL d   1       2.377   0.127  -0.045  0.00  0.00     0.235 C 
ATOM      3  N   UNL d   1       3.230   1.238   0.018  0.00  0.00    -0.278 N 
ATOM      4  C   UNL d   1       4.611   1.229  -0.011  0.00  0.00     0.327 C 
ATOM      5  O   UNL d   1       5.238   0.168  -0.072  0.00  0.00    -0.247 OA
ATOM      6  N   UNL d   1       5.240   2.467   0.065  0.00  0.00    -0.309 N 
ATOM      7  H   UNL d   1       2.729   2.114   0.057  0.00  0.00     0.173 HD
ATOM      8  H   UNL d   1       4.733   3.266   0.423  0.00  0.00     0.170 HD
ENDROOT
BRANCH   2   9
ATOM      9  C   UNL d   1       3.030  -1.257  -0.151  0.00  0.00     0.185 C 
BRANCH   9  10
ATOM     10  S   UNL d   1       1.897  -2.653  -0.250  0.00  0.00    -0.081 SA
BRANCH  10  11
ATOM     11  C   UNL d   1       2.842  -4.126  -0.329  0.00  0.00     0.196 A 
ATOM     12  N   UNL d   1       2.266  -5.313  -0.249  0.00  0.00    -0.122 NA
ATOM     13  N   UNL d   1       3.228  -6.288  -0.385  0.00  0.00    -0.129 NA
ATOM     14  C   UNL d   1       4.383  -5.685  -0.552  0.00  0.00     0.158 A 
ATOM     15  C   UNL d   1       5.702  -6.191  -0.751  0.00  0.00     0.053 A 
ATOM     16  N   UNL d   1       4.205  -4.298  -0.520  0.00  0.00    -0.283 N 
ATOM     17  C   UNL d   1       6.731  -5.335  -0.903  0.00  0.00     0.005 A 
ATOM     18  C   UNL d   1       6.524  -3.903  -0.858  0.00  0.00     0.018 A 
ATOM     19  C   UNL d   1       5.285  -3.428  -0.668  0.00  0.00     0.101 A 
ENDBRANCH  10  11
ENDBRANCH   9  10
ENDBRANCH   2   9
BRANCH   6  20
ATOM     20  C   UNL d   1       6.671   2.547   0.063  0.00  0.00     0.039 A 
ATOM     21  C   UNL d   1       7.360   3.388   0.948  0.00  0.00     0.032 A 
ATOM     22  C   UNL d   1       8.771   3.388   0.975  0.00  0.00     0.042 A 
ATOM     23  C   UNL d   1       9.499   2.597   0.084  0.00  0.00     0.102 A 
ATOM     24  C   UNL d   1       8.817   1.780  -0.814  0.00  0.00     0.104 A 
ATOM     25  O   UNL d   1      10.868   2.664   0.145  0.00  0.00    -0.346 OA
ATOM     26  C   UNL d   1       7.421   1.762  -0.824  0.00  0.00     0.069 A 
ATOM     27  O   UNL d   1       9.444   0.973  -1.728  0.00  0.00    -0.346 OA
ATOM     28  C   UNL d   1      10.827   0.788  -1.414  0.00  0.00     0.202 C 
ATOM     29  C   UNL d   1      11.481   2.103  -1.025  0.00  0.00     0.202 C 
ENDBRANCH   6  20
TORSDOF 4
