REMARK  5 active torsions:
REMARK  status: ('A' for Active; 'I' for Inactive)
REMARK    1  A    between atoms: C_2  and  C_3 
REMARK    2  A    between atoms: C_3  and  C_4 
REMARK    3  A    between atoms: C_5  and  C_6 
REMARK       I    between atoms: C_6  and  N_8 
REMARK    4  A    between atoms: N_8  and  N_9 
REMARK       I    between atoms: N_9  and  C_10 
REMARK    5  A    between atoms: C_10  and  C_12 
ROOT
ATOM      1  N   UNL d   1       8.924   1.172   3.850  0.00  0.00    -0.261 N 
ATOM      2  C   UNL d   1       9.607   1.474   5.033  0.00  0.00     0.294 C 
ATOM      3  O   UNL d   1       8.979   1.718   6.071  0.00  0.00    -0.264 OA
ATOM      4  H   UNL d   1       9.399   0.857   3.007  0.00  0.00     0.190 HD
ENDROOT
BRANCH   2   5
ATOM      5  C   UNL d   1      11.072   1.514   4.938  0.00  0.00     0.152 A 
ATOM      6  O   UNL d   1      11.851   1.031   5.974  0.00  0.00    -0.304 OA
ATOM      7  C   UNL d   1      13.169   1.223   5.643  0.00  0.00     0.087 A 
ATOM      8  C   UNL d   1      14.293   0.876   6.405  0.00  0.00     0.038 A 
ATOM      9  C   UNL d   1      13.257   1.847   4.405  0.00  0.00     0.007 A 
ATOM     10  C   UNL d   1      15.555   1.187   5.870  0.00  0.00     0.003 A 
ATOM     11  C   UNL d   1      15.677   1.815   4.630  0.00  0.00     0.001 A 
ATOM     12  C   UNL d   1      14.536   2.152   3.891  0.00  0.00     0.015 A 
ATOM     13  C   UNL d   1      11.912   2.050   3.964  0.00  0.00    -0.009 A 
ATOM     14  C   UNL d   1      11.492   2.771   2.742  0.00  0.00     0.052 C 
ENDBRANCH   2   5
BRANCH   1  15
ATOM     15  N   UNL d   1       7.492   1.146   3.797  0.00  0.00    -0.264 N 
ATOM     16  C   UNL d   1       6.872   0.790   2.608  0.00  0.00     0.259 C 
ATOM     17  O   UNL d   1       7.506   0.489   1.598  0.00  0.00    -0.267 OA
ATOM     18  H   UNL d   1       7.003   1.405   4.651  0.00  0.00     0.190 HD
BRANCH  16  19
ATOM     19  C   UNL d   1       5.368   0.797   2.630  0.00  0.00     0.072 C 
ATOM     20  C   UNL d   1       4.641   0.464   1.541  0.00  0.00    -0.021 C 
BRANCH  20  21
ATOM     21  C   UNL d   1       3.127   0.448   1.488  0.00  0.00     0.027 C 
BRANCH  21  22
ATOM     22  C   UNL d   1       2.571   0.028   0.116  0.00  0.00    -0.001 C 
ATOM     23  C   UNL d   1       1.046   0.023   0.100  0.00  0.00     0.005 C 
ENDBRANCH  21  22
ENDBRANCH  20  21
ENDBRANCH  16  19
ENDBRANCH   1  15
TORSDOF 5
