REMARK  10 active torsions:
REMARK  status: ('A' for Active; 'I' for Inactive)
REMARK    1  A    between atoms: C_2  and  C_3 
REMARK       I    between atoms: C_2  and  N_22 
REMARK    2  A    between atoms: C_3  and  S_4 
REMARK    3  A    between atoms: S_4  and  C_5 
REMARK    4  A    between atoms: C_8  and  S_9 
REMARK    5  A    between atoms: S_9  and  C_10 
REMARK    6  A    between atoms: C_10  and  C_11 
REMARK    7  A    between atoms: N_22  and  N_23 
REMARK    8  A    between atoms: C_24  and  C_25 
REMARK    9  A    between atoms: C_26  and  C_27 
REMARK   10  A    between atoms: C_32  and  N_33 
ROOT
ATOM      1  C   UNL d   1       3.064  -1.300  -0.402  0.00  0.00     0.186 C 
ENDROOT
BRANCH   1   2
ATOM      2  C   UNL d   1       2.339  -0.024   0.056  0.00  0.00     0.247 C 
ATOM      3  O   UNL d   1       1.112   0.097   0.108  0.00  0.00    -0.271 OA
ATOM      4  N   UNL d   1       3.104   1.055   0.438  0.00  0.00    -0.247 N 
ATOM      5  H   UNL d   1       2.583   1.876   0.729  0.00  0.00     0.192 HD
BRANCH   4   6
ATOM      6  N   UNL d   1       4.452   1.003   0.567  0.00  0.00    -0.185 NA
ATOM      7  C   UNL d   1       5.031   2.095   0.966  0.00  0.00     0.139 C 
BRANCH   7   8
ATOM      8  C   UNL d   1       6.503   2.113   1.137  0.00  0.00     0.022 C 
ATOM      9  C   UNL d   1       7.229   3.219   1.362  0.00  0.00     0.015 C 
BRANCH   9  10
ATOM     10  C   UNL d   1       8.707   3.230   1.214  0.00  0.00    -0.003 A 
ATOM     11  C   UNL d   1       9.444   3.845   2.254  0.00  0.00     0.014 A 
ATOM     12  C   UNL d   1      10.836   4.009   2.174  0.00  0.00     0.001 A 
ATOM     13  C   UNL d   1      11.538   3.503   1.089  0.00  0.00     0.002 A 
ATOM     14  C   UNL d   1      10.845   2.882   0.054  0.00  0.00     0.037 A 
ATOM     15  C   UNL d   1       9.437   2.758   0.094  0.00  0.00     0.113 A 
BRANCH  15  16
ATOM     16  N   UNL d   1       8.826   2.144  -1.108  0.00  0.00    -0.115 N 
ATOM     17  O   UNL d   1       9.574   1.553  -1.890  0.00  0.00    -0.532 OA
ATOM     18  O   UNL d   1       7.605   2.271  -1.304  0.00  0.00    -0.532 OA
ENDBRANCH  15  16
ENDBRANCH   9  10
ENDBRANCH   7   8
ENDBRANCH   4   6
ENDBRANCH   1   2
BRANCH   1  19
ATOM     19  S   UNL d   1       1.801  -2.522  -0.879  0.00  0.00    -0.092 SA
BRANCH  19  20
ATOM     20  C   UNL d   1       2.679  -3.952  -1.301  0.00  0.00     0.159 A 
ATOM     21  N   UNL d   1       3.812  -3.974  -1.965  0.00  0.00    -0.134 NA
ATOM     22  N   UNL d   1       4.201  -5.275  -2.235  0.00  0.00    -0.134 NA
ATOM     23  C   UNL d   1       3.367  -6.162  -1.725  0.00  0.00     0.159 A 
ATOM     24  S   UNL d   1       2.006  -5.497  -0.967  0.00  0.00    -0.033 SA
BRANCH  23  25
ATOM     25  S   UNL d   1       3.831  -7.812  -1.677  0.00  0.00    -0.097 SA
BRANCH  25  26
ATOM     26  C   UNL d   1       2.445  -8.924  -1.393  0.00  0.00     0.121 C 
BRANCH  26  27
ATOM     27  C   UNL d   1       2.701 -10.423  -1.682  0.00  0.00    -0.037 A 
ATOM     28  C   UNL d   1       1.787 -11.324  -1.080  0.00  0.00     0.009 A 
ATOM     29  C   UNL d   1       1.923 -12.705  -1.228  0.00  0.00     0.001 A 
ATOM     30  C   UNL d   1       2.970 -13.222  -1.985  0.00  0.00     0.012 A 
ATOM     31  C   UNL d   1       3.878 -12.376  -2.639  0.00  0.00    -0.025 A 
ATOM     32  C   UNL d   1       4.907 -12.932  -3.435  0.00  0.00     0.012 A 
ATOM     33  C   UNL d   1       3.753 -10.968  -2.513  0.00  0.00    -0.019 A 
ATOM     34  C   UNL d   1       5.839 -12.139  -4.104  0.00  0.00     0.001 A 
ATOM     35  C   UNL d   1       5.746 -10.775  -4.002  0.00  0.00     0.001 A 
ATOM     36  C   UNL d   1       4.713 -10.229  -3.255  0.00  0.00     0.013 A 
ENDBRANCH  26  27
ENDBRANCH  25  26
ENDBRANCH  23  25
ENDBRANCH  19  20
ENDBRANCH   1  19
TORSDOF 10
