@<TRIPOS>MOLECULE
*****
 27 27 0 0 0
SMALL
GASTEIGER

@<TRIPOS>ATOM
      1 C           1.1769   -0.0351   -0.0485 C.3     1  UNL1        0.0016
      2 N           2.6267    0.0259   -0.1049 N.am    1  UNL1       -0.3013
      3 C           3.2809    1.1923   -0.4388 C.2     1  UNL1        0.3157
      4 O           2.6827    2.2426   -0.6853 O.2     1  UNL1       -0.2513
      5 N           4.6695    1.0682   -0.5248 N.am    1  UNL1       -0.2203
      6 N           5.3979    2.2917   -0.4496 N.pl3   1  UNL1       -0.2633
      7 C           6.7934    2.2730   -0.6871 C.ar    1  UNL1        0.0447
      8 C           7.5584    3.3712   -0.2551 C.ar    1  UNL1       -0.0359
      9 C           8.9555    3.4172   -0.4235 C.ar    1  UNL1       -0.0178
     10 C           9.6372    2.3392   -0.9887 C.ar    1  UNL1        0.1301
     11 O          11.0016    2.4437   -1.0152 O.3     1  UNL1       -0.4057
     12 C          11.7333    1.3143   -1.4762 C.3     1  UNL1        0.5752
     13 F          11.4386    0.2060   -0.7605 F       1  UNL1       -0.1328
     14 F          11.4832    1.0827   -2.7832 F       1  UNL1       -0.1328
     15 F          13.0576    1.5528   -1.3410 F       1  UNL1       -0.1328
     16 C           8.8861    1.2609   -1.4554 C.ar    1  UNL1       -0.0178
     17 C           7.4837    1.2302   -1.3085 C.ar    1  UNL1       -0.0359
     18 H           0.8601   -1.0393    0.2512 H       1  UNL1        0.0426
     19 H           0.7674    0.1908   -1.0377 H       1  UNL1        0.0426
     20 H           0.7916    0.6952    0.6703 H       1  UNL1        0.0426
     21 H           3.1498   -0.7905    0.1723 H       1  UNL1        0.1499
     22 H           5.1185    0.3016   -0.0390 H       1  UNL1        0.1743
     23 H           4.9103    3.0597   -0.9281 H       1  UNL1        0.1700
     24 H           7.0718    4.1934    0.2670 H       1  UNL1        0.0638
     25 H           9.5048    4.2975   -0.0922 H       1  UNL1        0.0655
     26 H           9.3551    0.4128   -1.9459 H       1  UNL1        0.0655
     27 H           6.9509    0.3716   -1.7047 H       1  UNL1        0.0638
@<TRIPOS>BOND
     1     1     2    1
     2     2     3   am
     3     3     4    2
     4     3     5   am
     5     5     6    1
     6     6     7    1
     7     7     8   ar
     8     8     9   ar
     9     9    10   ar
    10    10    11    1
    11    11    12    1
    12    12    13    1
    13    12    14    1
    14    12    15    1
    15    10    16   ar
    16    16    17   ar
    17     7    17   ar
    18     1    18    1
    19     1    19    1
    20     1    20    1
    21     2    21    1
    22     5    22    1
    23     6    23    1
    24     8    24    1
    25     9    25    1
    26    16    26    1
    27    17    27    1
