REMARK  12 active torsions:
REMARK  status: ('A' for Active; 'I' for Inactive)
REMARK    1  A    between atoms: O_2  and  C_3 
REMARK    2  A    between atoms: C_3  and  C_5 
REMARK    3  A    between atoms: C_10  and  N_11 
REMARK    4  A    between atoms: N_11  and  C_12 
REMARK    5  A    between atoms: C_12  and  N_14 
REMARK    6  A    between atoms: N_14  and  C_15 
REMARK    7  A    between atoms: N_14  and  C_19 
REMARK    8  A    between atoms: C_15  and  C_16 
REMARK    9  A    between atoms: C_16  and  C_17 
REMARK   10  A    between atoms: C_17  and  O_18 
REMARK   11  A    between atoms: C_19  and  C_20 
REMARK   12  A    between atoms: C_24  and  O_25 
ROOT
ATOM      1  N   UNL d   1       2.508   2.648  -0.686  0.00  0.00    -0.354 N 
ENDROOT
BRANCH   1   2
ATOM      2  C   UNL d   1       3.094   1.942   0.414  0.00  0.00     0.174 C 
ATOM      3  S   UNL d   1       2.458   1.976   1.971  0.00  0.00    -0.041 SA
BRANCH   2   4
ATOM      4  N   UNL d   1       4.365   1.414   0.109  0.00  0.00    -0.332 N 
ATOM      5  H   UNL d   1       5.048   2.074  -0.174  0.00  0.00     0.168 HD
BRANCH   4   6
ATOM      6  C   UNL d   1       5.096   0.342   0.638  0.00  0.00     0.050 A 
ATOM      7  C   UNL d   1       6.511   0.516   0.732  0.00  0.00     0.030 A 
ATOM      8  C   UNL d   1       7.318  -0.484   1.267  0.00  0.00     0.002 A 
ATOM      9  C   UNL d   1       6.713  -1.656   1.701  0.00  0.00     0.001 A 
ATOM     10  C   UNL d   1       5.332  -1.854   1.531  0.00  0.00     0.020 A 
ATOM     11  C   UNL d   1       4.509  -0.863   0.986  0.00  0.00     0.066 A 
BRANCH  11  12
ATOM     12  C   UNL d   1       3.040  -1.095   0.935  0.00  0.00     0.295 C 
ATOM     13  O   UNL d   1       2.445  -1.548   1.891  0.00  0.00    -0.259 OA
BRANCH  12  14
ATOM     14  O   UNL d   1       2.469  -0.698  -0.241  0.00  0.00    -0.322 OA
ATOM     15  C   UNL d   1       1.040  -0.548  -0.190  0.00  0.00     0.213 C 
ENDBRANCH  12  14
ENDBRANCH  11  12
ENDBRANCH   4   6
ENDBRANCH   2   4
ENDBRANCH   1   2
BRANCH   1  16
ATOM     16  C   UNL d   1       3.235   3.805  -1.139  0.00  0.00     0.127 C 
BRANCH  16  17
ATOM     17  C   UNL d   1       4.715   3.879  -0.958  0.00  0.00     0.046 C 
BRANCH  17  18
ATOM     18  C   UNL d   1       5.377   5.132  -1.413  0.00  0.00     0.165 C 
BRANCH  18  19
ATOM     19  O   UNL d   1       6.765   4.943  -1.143  0.00  0.00    -0.401 OA
ATOM     20  H   UNL d   1       6.854   4.747  -0.192  0.00  0.00     0.209 HD
ENDBRANCH  18  19
ENDBRANCH  17  18
ENDBRANCH  16  17
ENDBRANCH   1  16
BRANCH   1  21
ATOM     21  C   UNL d   1       1.015   2.730  -0.921  0.00  0.00     0.169 C 
BRANCH  21  22
ATOM     22  C   UNL d   1       0.342   3.916  -1.626  0.00  0.00     0.023 C 
ATOM     23  C   UNL d   1      -1.005   4.059  -1.592  0.00  0.00     0.027 C 
ATOM     24  C   UNL d   1      -1.638   5.221  -2.235  0.00  0.00    -0.011 A 
ATOM     25  C   UNL d   1      -2.786   5.826  -1.740  0.00  0.00     0.050 A 
ATOM     26  C   UNL d   1      -1.009   5.750  -3.370  0.00  0.00     0.025 A 
ATOM     27  C   UNL d   1      -3.324   6.933  -2.403  0.00  0.00     0.069 A 
ATOM     28  C   UNL d   1      -2.652   7.486  -3.502  0.00  0.00     0.038 A 
ATOM     29  C   UNL d   1      -1.498   6.883  -4.009  0.00  0.00     0.027 A 
ATOM     30  N   UNL d   1       0.243   5.189  -3.693  0.00  0.00    -0.224 NA
ATOM     31  C   UNL d   1       0.981   4.939  -2.545  0.00  0.00     0.233 C 
ATOM     32  H   UNL d   1       0.767   5.652  -4.423  0.00  0.00     0.137 HD
ATOM     33  O   UNL d   1       1.946   5.630  -2.310  0.00  0.00    -0.274 OA
BRANCH  27  34
ATOM     34  O   UNL d   1      -4.515   7.381  -1.901  0.00  0.00    -0.356 OA
ATOM     35  C   UNL d   1      -5.186   8.367  -2.679  0.00  0.00     0.210 C 
ENDBRANCH  27  34
ENDBRANCH  21  22
ENDBRANCH   1  21
TORSDOF 12
