@<TRIPOS>MOLECULE
*****
 57 58 0 0 0
SMALL
GASTEIGER

@<TRIPOS>ATOM
      1 C           2.3451   -3.2817    1.6747 C.3     1  UNL1       -0.0369
      2 C           2.4476   -2.2714    0.5322 C.3     1  UNL1        0.0796
      3 O           3.0146   -2.8816   -0.6329 O.3     1  UNL1       -0.3899
      4 C           3.2044   -0.9807    0.9484 C.3     1  UNL1        0.1508
      5 N           2.8223    0.1682    0.0135 N.3     1  UNL1       -0.1736
      6 S           3.6755    1.6187    0.3225 S.O2    1  UNL1        0.0593
      7 O           3.2468    2.1035    1.6089 O.2     1  UNL1       -0.1530
      8 O           5.0828    1.4315    0.0427 O.2     1  UNL1       -0.1530
      9 C           3.1362    2.7647   -0.9096 C.ar    1  UNL1        0.1067
     10 C           1.7974    2.8576   -1.2700 C.ar    1  UNL1       -0.0339
     11 C           1.4250    3.8224   -2.2102 C.ar    1  UNL1       -0.0401
     12 C           2.3831    4.6716   -2.7883 C.ar    1  UNL1        0.0594
     13 CL          1.8322    5.8757   -3.8959 Cl      1  UNL1       -0.0820
     14 C           3.7325    4.5370   -2.4516 C.ar    1  UNL1        0.0611
     15 CL          4.9778    5.5094   -3.1501 Cl      1  UNL1       -0.0820
     16 C           4.1073    3.5823   -1.5114 C.ar    1  UNL1       -0.0156
     17 C           4.7107   -1.2383    0.8569 C.2     1  UNL1        0.3289
     18 O           5.3707   -1.0242   -0.1546 O.2     1  UNL1       -0.2489
     19 O           5.2405   -1.7870    1.9757 O.3     1  UNL1       -0.4540
     20 C           6.6709   -1.9050    1.8999 C.3     1  UNL1        0.1681
     21 C           7.1692   -2.9817    2.8537 C.2     1  UNL1        0.2508
     22 O           6.4026   -3.7128    3.4778 O.2     1  UNL1       -0.2721
     23 N           8.5457   -3.0898    2.9585 N.am    1  UNL1       -0.3122
     24 C           9.1036   -4.0806    3.8575 C.3     1  UNL1        0.0154
     25 C          10.6341   -4.1109    3.8838 C.3     1  UNL1       -0.0161
     26 C          11.1126   -5.1933    4.8223 C.2     1  UNL1       -0.0720
     27 C          10.9903   -6.4872    4.4732 C.2     1  UNL1       -0.0847
     28 C          11.2613   -7.6285    5.4029 C.3     1  UNL1       -0.0345
     29 C          11.3647   -7.1832    6.8609 C.3     1  UNL1       -0.0493
     30 C          12.2278   -5.9329    6.9881 C.3     1  UNL1       -0.0491
     31 C          11.6365   -4.7733    6.1769 C.3     1  UNL1       -0.0317
     32 H           1.9721   -4.2493    1.3220 H       1  UNL1        0.0255
     33 H           1.6666   -2.9064    2.4479 H       1  UNL1        0.0255
     34 H           3.3146   -3.4725    2.1438 H       1  UNL1        0.0255
     35 H           1.4251   -2.0086    0.2384 H       1  UNL1        0.0612
     36 H           3.7090   -3.5128   -0.3653 H       1  UNL1        0.2099
     37 H           2.8911   -0.6835    1.9577 H       1  UNL1        0.0619
     38 H           2.8623   -0.1354   -0.9639 H       1  UNL1        0.1490
     39 H           1.0513    2.2068   -0.8209 H       1  UNL1        0.0637
     40 H           0.3776    3.9192   -2.4856 H       1  UNL1        0.0633
     41 H           5.1584    3.4817   -1.2413 H       1  UNL1        0.0652
     42 H           7.0955   -0.9375    2.1852 H       1  UNL1        0.0796
     43 H           7.0154   -2.1820    0.8942 H       1  UNL1        0.0796
     44 H           9.1630   -2.5111    2.4012 H       1  UNL1        0.1488
     45 H           8.7048   -5.0561    3.5497 H       1  UNL1        0.0465
     46 H           8.7097   -3.8773    4.8609 H       1  UNL1        0.0465
     47 H          11.0314   -3.1339    4.1828 H       1  UNL1        0.0325
     48 H          11.0231   -4.3013    2.8752 H       1  UNL1        0.0325
     49 H          10.6089   -6.7493    3.4883 H       1  UNL1        0.0572
     50 H          12.1852   -8.1251    5.0873 H       1  UNL1        0.0307
     51 H          10.4493   -8.3594    5.3130 H       1  UNL1        0.0307
     52 H          11.7762   -7.9965    7.4675 H       1  UNL1        0.0268
     53 H          10.3613   -6.9672    7.2514 H       1  UNL1        0.0268
     54 H          13.2438   -6.1532    6.6357 H       1  UNL1        0.0268
     55 H          12.3131   -5.6419    8.0413 H       1  UNL1        0.0268
     56 H          12.4070   -4.0015    6.0621 H       1  UNL1        0.0310
     57 H          10.8121   -4.3256    6.7457 H       1  UNL1        0.0310
@<TRIPOS>BOND
     1     1     2    1
     2     2     3    1
     3     5     6    1
     4     6     7    2
     5     6     8    2
     6     6     9    1
     7     9    10   ar
     8    10    11   ar
     9    11    12   ar
    10    12    13    1
    11    12    14   ar
    12    14    15    1
    13    14    16   ar
    14     9    16   ar
    15     4    17    1
    16    17    18    2
    17    17    19    1
    18    19    20    1
    19    20    21    1
    20    21    22    2
    21    21    23   am
    22    23    24    1
    23    24    25    1
    24    25    26    1
    25    26    27    2
    26    27    28    1
    27    28    29    1
    28    29    30    1
    29    30    31    1
    30    26    31    1
    31     4     5    1
    32     4     2    1
    33     1    32    1
    34     1    33    1
    35     1    34    1
    36     2    35    1
    37     3    36    1
    38     4    37    1
    39     5    38    1
    40    10    39    1
    41    11    40    1
    42    16    41    1
    43    20    42    1
    44    20    43    1
    45    23    44    1
    46    24    45    1
    47    24    46    1
    48    25    47    1
    49    25    48    1
    50    27    49    1
    51    28    50    1
    52    28    51    1
    53    29    52    1
    54    29    53    1
    55    30    54    1
    56    30    55    1
    57    31    56    1
    58    31    57    1
