@<TRIPOS>MOLECULE
*****
 55 56 0 0 0
SMALL
GASTEIGER

@<TRIPOS>ATOM
      1 C           1.1714   -0.0190   -0.4783 C.3     1  UNL1       -0.0494
      2 C           2.6485    0.0066   -0.1217 C.3     1  UNL1        0.0093
      3 N           3.0464    0.0627    1.3039 N.pl3   1  UNL1       -0.3303
      4 C           2.1600    0.0711    2.4923 C.3     1  UNL1        0.0093
      5 C           0.6541    0.0793    2.2944 C.3     1  UNL1       -0.0494
      6 C           4.4422    0.0473    1.5704 C.ar    1  UNL1        0.0332
      7 C           5.3561    0.8381    0.8470 C.ar    1  UNL1       -0.0398
      8 C           6.7518    0.8369    1.1155 C.ar    1  UNL1       -0.0479
      9 C           7.2893    0.0264    2.1227 C.ar    1  UNL1        0.0361
     10 C           8.7709    0.0139    2.3844 C.2     1  UNL1        0.0563
     11 N           9.2724   -0.7462    3.3130 N.2     1  UNL1       -0.1876
     12 N          10.6351   -0.7569    3.5392 N.am    1  UNL1       -0.2070
     13 C          11.1153   -1.6015    4.5494 C.2     1  UNL1        0.2322
     14 O          10.3817   -2.3134    5.2251 O.2     1  UNL1       -0.2741
     15 C          12.6343   -1.5864    4.7733 C.3     1  UNL1        0.0270
     16 C          13.0365   -2.5584    5.9061 C.3     1  UNL1       -0.0292
     17 C          14.5443   -2.5760    6.1667 C.3     1  UNL1        0.0096
     18 N          14.8975   -3.5948    7.1433 N.pl3   1  UNL1       -0.3438
     19 C          16.1720   -3.6958    7.6825 C.ar    1  UNL1        0.0271
     20 C          16.6648   -4.9617    8.0272 C.ar    1  UNL1       -0.0409
     21 C          17.9341   -5.1195    8.5957 C.ar    1  UNL1       -0.0600
     22 C          18.7562   -4.0124    8.7808 C.ar    1  UNL1       -0.0616
     23 C          18.2939   -2.7493    8.4268 C.ar    1  UNL1       -0.0600
     24 C          17.0141   -2.5969    7.8812 C.ar    1  UNL1       -0.0409
     25 C           6.3966   -0.7622    2.8538 C.ar    1  UNL1        0.1272
     26 O           6.7990   -1.5929    3.8688 O.3     1  UNL1       -0.5061
     27 C           5.0100   -0.7493    2.5821 C.ar    1  UNL1        0.0015
     28 H           1.0037   -0.0564   -1.5582 H       1  UNL1        0.0245
     29 H           0.6720    0.8943   -0.1485 H       1  UNL1        0.0245
     30 H           0.6824   -0.9122   -0.0852 H       1  UNL1        0.0245
     31 H           3.0610    0.8724   -0.6502 H       1  UNL1        0.0461
     32 H           3.0946   -0.8906   -0.5696 H       1  UNL1        0.0461
     33 H           2.4005    0.9655    3.0811 H       1  UNL1        0.0461
     34 H           2.3669   -0.7986    3.1240 H       1  UNL1        0.0461
     35 H           0.3284    0.9676    1.7507 H       1  UNL1        0.0245
     36 H           0.1101    0.1103    3.2425 H       1  UNL1        0.0245
     37 H           0.3182   -0.8394    1.8091 H       1  UNL1        0.0245
     38 H           4.9911    1.5133    0.0764 H       1  UNL1        0.0636
     39 H           7.3903    1.4879    0.5232 H       1  UNL1        0.0626
     40 H           9.4036    0.6669    1.7576 H       1  UNL1        0.0852
     41 H          11.2496   -0.1745    2.9821 H       1  UNL1        0.1772
     42 H          12.9516   -0.5700    5.0331 H       1  UNL1        0.0359
     43 H          13.1400   -1.8796    3.8463 H       1  UNL1        0.0359
     44 H          12.6968   -3.5725    5.6590 H       1  UNL1        0.0285
     45 H          12.5166   -2.2793    6.8326 H       1  UNL1        0.0285
     46 H          14.8559   -1.5775    6.4869 H       1  UNL1        0.0461
     47 H          15.0707   -2.8182    5.2371 H       1  UNL1        0.0461
     48 H          14.1560   -4.0485    7.6708 H       1  UNL1        0.1461
     49 H          16.0690   -5.8476    7.8196 H       1  UNL1        0.0636
     50 H          18.2779   -6.1068    8.8920 H       1  UNL1        0.0618
     51 H          19.7526   -4.1332    9.1968 H       1  UNL1        0.0618
     52 H          18.9197   -1.8755    8.5870 H       1  UNL1        0.0618
     53 H          16.6774   -1.5922    7.6499 H       1  UNL1        0.0636
     54 H           7.7765   -1.5213    3.9716 H       1  UNL1        0.2922
     55 H           4.3894   -1.4207    3.1681 H       1  UNL1        0.0673
@<TRIPOS>BOND
     1     1     2    1
     2     2     3    1
     3     3     4    1
     4     4     5    1
     5     3     6    1
     6     6     7   ar
     7     7     8   ar
     8     8     9   ar
     9     9    10    1
    10    10    11    2
    11    11    12    1
    12    12    13   am
    13    13    14    2
    14    13    15    1
    15    15    16    1
    16    16    17    1
    17    17    18    1
    18    18    19    1
    19    19    20   ar
    20    20    21   ar
    21    21    22   ar
    22    22    23   ar
    23    23    24   ar
    24    19    24   ar
    25     9    25   ar
    26    25    26    1
    27    25    27   ar
    28     6    27   ar
    29     1    28    1
    30     1    29    1
    31     1    30    1
    32     2    31    1
    33     2    32    1
    34     4    33    1
    35     4    34    1
    36     5    35    1
    37     5    36    1
    38     5    37    1
    39     7    38    1
    40     8    39    1
    41    10    40    1
    42    12    41    1
    43    15    42    1
    44    15    43    1
    45    16    44    1
    46    16    45    1
    47    17    46    1
    48    17    47    1
    49    18    48    1
    50    20    49    1
    51    21    50    1
    52    22    51    1
    53    23    52    1
    54    24    53    1
    55    26    54    1
    56    27    55    1
