REMARK  5 active torsions:
REMARK  status: ('A' for Active; 'I' for Inactive)
REMARK    1  A    between atoms: O_2  and  C_3 
REMARK    2  A    between atoms: C_7  and  C_6 
REMARK    3  A    between atoms: C_7  and  N_9 
REMARK       I    between atoms: N_9  and  C_10 
REMARK       I    between atoms: C_10  and  N_12 
REMARK    4  A    between atoms: N_12  and  C_13 
REMARK    5  A    between atoms: C_18  and  O_19 
ROOT
ATOM      1  N   UNL d   1       4.705   2.117  -5.559  0.00  0.00    -0.335 N 
ATOM      2  C   UNL d   1       5.422   2.771  -6.551  0.00  0.00     0.321 C 
ATOM      3  O   UNL d   1       6.627   2.567  -6.727  0.00  0.00    -0.247 OA
ATOM      4  N   UNL d   1       4.621   3.490  -7.435  0.00  0.00    -0.306 N 
ATOM      5  H   UNL d   1       3.794   2.464  -5.302  0.00  0.00     0.165 HD
ATOM      6  H   UNL d   1       3.849   4.025  -7.064  0.00  0.00     0.171 HD
ENDROOT
BRANCH   1   7
ATOM      7  C   UNL d   1       5.266   0.970  -4.803  0.00  0.00     0.115 C 
ATOM      8  C   UNL d   1       4.536   0.759  -3.473  0.00  0.00     0.037 C 
BRANCH   7   9
ATOM      9  C   UNL d   1       5.189  -0.381  -5.527  0.00  0.00    -0.036 A 
ATOM     10  C   UNL d   1       4.022  -0.790  -6.192  0.00  0.00     0.012 A 
ATOM     11  C   UNL d   1       3.950  -2.029  -6.843  0.00  0.00     0.037 A 
ATOM     12  C   UNL d   1       5.027  -2.908  -6.806  0.00  0.00     0.068 A 
ATOM     13  C   UNL d   1       6.178  -2.544  -6.111  0.00  0.00     0.037 A 
ATOM     14  C   UNL d   1       6.260  -1.291  -5.479  0.00  0.00     0.012 A 
BRANCH  12  15
ATOM     15  O   UNL d   1       4.906  -4.041  -7.563  0.00  0.00    -0.356 OA
ATOM     16  C   UNL d   1       5.415  -5.224  -6.956  0.00  0.00     0.210 C 
ENDBRANCH  12  15
ENDBRANCH   7   9
ENDBRANCH   1   7
BRANCH   4  17
ATOM     17  C   UNL d   1       5.037   3.786  -8.775  0.00  0.00     0.069 A 
ATOM     18  C   UNL d   1       5.087   5.130  -9.189  0.00  0.00     0.032 A 
ATOM     19  C   UNL d   1       5.479   5.477 -10.498  0.00  0.00     0.002 A 
ATOM     20  C   UNL d   1       5.845   4.494 -11.408  0.00  0.00     0.003 A 
ATOM     21  C   UNL d   1       5.755   3.165 -11.029  0.00  0.00     0.039 A 
ATOM     22  C   UNL d   1       5.335   2.798  -9.739  0.00  0.00     0.095 A 
BRANCH  22  23
ATOM     23  O   UNL d   1       5.203   1.441  -9.693  0.00  0.00    -0.354 OA
ATOM     24  C   UNL d   1       4.617   0.867  -8.562  0.00  0.00     0.210 C 
ENDBRANCH  22  23
ENDBRANCH   4  17
TORSDOF 5
