REMARK  14 active torsions:
REMARK  status: ('A' for Active; 'I' for Inactive)
REMARK    1  A    between atoms: C_2  and  C_3 
REMARK    2  A    between atoms: C_3  and  N_4 
REMARK       I    between atoms: N_4  and  C_5 
REMARK    3  A    between atoms: C_17  and  N_4 
REMARK    4  A    between atoms: C_5  and  C_7 
REMARK    5  A    between atoms: C_7  and  N_8 
REMARK       I    between atoms: N_8  and  C_9 
REMARK    6  A    between atoms: C_9  and  C_11 
REMARK    7  A    between atoms: C_17  and  C_29 
REMARK    8  A    between atoms: C_17  and  C_18 
REMARK       I    between atoms: C_18  and  N_20 
REMARK    9  A    between atoms: N_20  and  C_21 
REMARK   10  A    between atoms: C_21  and  C_24 
REMARK   11  A    between atoms: C_24  and  C_25 
REMARK   12  A    between atoms: C_30  and  O_31 
REMARK   13  A    between atoms: C_33  and  O_34 
REMARK   14  A    between atoms: C_36  and  O_37 
ROOT
ATOM      1  C   UNL d   1       5.308  -2.401  -1.209  0.00  0.00     0.218 C 
ENDROOT
BRANCH   1   2
ATOM      2  C   UNL d   1       6.798  -2.205  -0.986  0.00  0.00     0.040 A 
ATOM      3  C   UNL d   1       7.693  -3.278  -0.794  0.00  0.00     0.080 A 
ATOM      4  C   UNL d   1       9.041  -3.054  -0.495  0.00  0.00     0.073 A 
ATOM      5  C   UNL d   1       9.526  -1.757  -0.438  0.00  0.00     0.071 A 
ATOM      6  C   UNL d   1       8.684  -0.682  -0.622  0.00  0.00     0.073 A 
ATOM      7  C   UNL d   1       7.350  -0.913  -0.913  0.00  0.00     0.080 A 
BRANCH   3   8
ATOM      8  O   UNL d   1       7.381  -4.608  -0.891  0.00  0.00    -0.360 OA
ATOM      9  H   UNL d   1       6.451  -4.750  -1.107  0.00  0.00     0.217 HD
ENDBRANCH   3   8
BRANCH   5  10
ATOM     10  O   UNL d   1      10.844  -1.481  -0.246  0.00  0.00    -0.361 OA
ATOM     11  H   UNL d   1      11.341  -2.313  -0.298  0.00  0.00     0.217 HD
ENDBRANCH   5  10
BRANCH   7  12
ATOM     12  O   UNL d   1       6.591   0.183  -1.180  0.00  0.00    -0.360 OA
ATOM     13  H   UNL d   1       7.034   1.007  -0.931  0.00  0.00     0.217 HD
ENDBRANCH   7  12
ENDBRANCH   1   2
BRANCH   1  14
ATOM     14  C   UNL d   1       4.374  -1.465  -0.413  0.00  0.00     0.246 C 
ATOM     15  O   UNL d   1       3.754  -1.910   0.558  0.00  0.00    -0.271 OA
ATOM     16  N   UNL d   1       4.214  -0.178  -0.900  0.00  0.00    -0.351 N 
ATOM     17  H   UNL d   1       4.857   0.101  -1.648  0.00  0.00     0.163 HD
BRANCH  16  18
ATOM     18  C   UNL d   1       3.090   0.680  -0.597  0.00  0.00     0.026 C 
ATOM     19  C   UNL d   1       1.881  -0.174  -0.992  0.00  0.00     0.038 C 
ATOM     20  C   UNL d   1       3.239   0.963   0.895  0.00  0.00     0.038 C 
BRANCH  18  21
ATOM     21  C   UNL d   1       3.093   2.038  -1.437  0.00  0.00     0.038 C 
BRANCH  21  22
ATOM     22  C   UNL d   1       1.899   3.043  -1.185  0.00  0.00    -0.049 C 
ATOM     23  C   UNL d   1       0.533   2.445  -1.555  0.00  0.00     0.014 C 
ATOM     24  C   UNL d   1       1.860   3.549   0.263  0.00  0.00     0.014 C 
ATOM     25  C   UNL d   1       2.035   4.307  -2.054  0.00  0.00     0.014 C 
ENDBRANCH  21  22
ENDBRANCH  18  21
ENDBRANCH  16  18
ENDBRANCH   1  14
BRANCH   1  26
ATOM     26  N   UNL d   1       4.883  -2.619  -2.625  0.00  0.00    -0.333 N 
ATOM     27  C   UNL d   1       4.737  -1.502  -3.466  0.00  0.00     0.238 C 
ATOM     28  O   UNL d   1       4.979  -0.337  -3.136  0.00  0.00    -0.272 OA
BRANCH  26  29
ATOM     29  C   UNL d   1       4.890  -4.044  -3.050  0.00  0.00     0.127 C 
BRANCH  29  30
ATOM     30  C   UNL d   1       4.563  -4.303  -4.493  0.00  0.00     0.015 C 
ATOM     31  C   UNL d   1       4.599  -5.698  -5.022  0.00  0.00     0.006 C 
ENDBRANCH  29  30
ENDBRANCH  26  29
BRANCH  27  32
ATOM     32  C   UNL d   1       4.252  -1.642  -4.888  0.00  0.00     0.225 C 
BRANCH  32  33
ATOM     33  N   UNL d   1       3.947  -0.393  -5.514  0.00  0.00    -0.348 N 
ATOM     34  C   UNL d   1       3.598  -0.437  -6.845  0.00  0.00     0.252 C 
ATOM     35  O   UNL d   1       3.488  -1.462  -7.483  0.00  0.00    -0.268 OA
ATOM     36  H   UNL d   1       4.017   0.448  -4.957  0.00  0.00     0.163 HD
BRANCH  34  37
ATOM     37  C   UNL d   1       3.385   0.872  -7.477  0.00  0.00     0.032 A 
ATOM     38  C   UNL d   1       2.373   1.000  -8.429  0.00  0.00     0.017 A 
ATOM     39  C   UNL d   1       2.277   2.181  -9.159  0.00  0.00     0.001 A 
ATOM     40  C   UNL d   1       3.144   3.241  -8.884  0.00  0.00     0.000 A 
ATOM     41  C   UNL d   1       4.135   3.114  -7.910  0.00  0.00     0.001 A 
ATOM     42  C   UNL d   1       4.264   1.923  -7.208  0.00  0.00     0.017 A 
ENDBRANCH  34  37
ENDBRANCH  32  33
ENDBRANCH  27  32
ENDBRANCH   1  26
TORSDOF 14
