REMARK  7 active torsions:
REMARK  status: ('A' for Active; 'I' for Inactive)
REMARK    1  A    between atoms: C_2  and  C_3 
REMARK       I    between atoms: C_2  and  N_18 
REMARK    2  A    between atoms: C_3  and  C_4 
REMARK    3  A    between atoms: C_4  and  N_5 
REMARK    4  A    between atoms: N_18  and  N_19 
REMARK    5  A    between atoms: C_20  and  C_21 
REMARK    6  A    between atoms: C_24  and  O_25 
REMARK    7  A    between atoms: C_27  and  O_28 
ROOT
ATOM      1  O   UNL d   1       1.173   0.066   0.110  0.00  0.00    -0.272 OA
ATOM      2  C   UNL d   1       2.406   0.067   0.030  0.00  0.00     0.239 C 
ATOM      3  N   UNL d   1       3.179   0.330   1.143  0.00  0.00    -0.247 N 
ATOM      4  H   UNL d   1       2.685   0.494   2.015  0.00  0.00     0.192 HD
ENDROOT
BRANCH   2   5
ATOM      5  C   UNL d   1       3.137  -0.222  -1.264  0.00  0.00     0.125 C 
BRANCH   5   6
ATOM      6  C   UNL d   1       2.163  -0.462  -2.416  0.00  0.00     0.139 C 
BRANCH   6   7
ATOM      7  N   UNL d   1       2.851  -0.760  -3.668  0.00  0.00    -0.345 N 
ATOM      8  C   UNL d   1       3.014  -2.025  -4.197  0.00  0.00     0.046 A 
ATOM      9  C   UNL d   1       2.602  -3.280  -3.723  0.00  0.00     0.030 A 
ATOM     10  C   UNL d   1       3.722  -1.882  -5.394  0.00  0.00     0.003 A 
ATOM     11  C   UNL d   1       2.912  -4.410  -4.483  0.00  0.00     0.002 A 
ATOM     12  C   UNL d   1       3.615  -4.295  -5.677  0.00  0.00     0.001 A 
ATOM     13  C   UNL d   1       4.027  -3.041  -6.142  0.00  0.00     0.014 A 
ATOM     14  C   UNL d   1       3.984  -0.486  -5.576  0.00  0.00     0.003 A 
ATOM     15  C   UNL d   1       4.648   0.264  -6.572  0.00  0.00     0.014 A 
ATOM     16  C   UNL d   1       3.426   0.191  -4.489  0.00  0.00     0.046 A 
ATOM     17  C   UNL d   1       4.735   1.655  -6.450  0.00  0.00     0.001 A 
ATOM     18  C   UNL d   1       4.171   2.305  -5.357  0.00  0.00     0.002 A 
ATOM     19  C   UNL d   1       3.507   1.587  -4.361  0.00  0.00     0.030 A 
ENDBRANCH   6   7
ENDBRANCH   5   6
ENDBRANCH   2   5
BRANCH   3  20
ATOM     20  N   UNL d   1       4.542   0.386   1.095  0.00  0.00    -0.184 NA
ATOM     21  C   UNL d   1       5.161   0.560   2.226  0.00  0.00     0.152 C 
BRANCH  21  22
ATOM     22  C   UNL d   1       6.645   0.583   2.272  0.00  0.00     0.016 A 
ATOM     23  C   UNL d   1       7.355   1.158   1.210  0.00  0.00     0.018 A 
ATOM     24  C   UNL d   1       8.742   1.004   1.125  0.00  0.00     0.037 A 
ATOM     25  C   UNL d   1       9.423   0.356   2.151  0.00  0.00     0.068 A 
ATOM     26  C   UNL d   1       8.743  -0.106   3.276  0.00  0.00     0.074 A 
ATOM     27  C   UNL d   1       7.347  -0.029   3.316  0.00  0.00     0.080 A 
BRANCH  25  28
ATOM     28  O   UNL d   1      10.769   0.142   2.084  0.00  0.00    -0.361 OA
ATOM     29  H   UNL d   1      11.086   0.379   1.195  0.00  0.00     0.217 HD
ENDBRANCH  25  28
BRANCH  27  30
ATOM     30  O   UNL d   1       6.661  -0.594   4.356  0.00  0.00    -0.360 OA
ATOM     31  H   UNL d   1       7.286  -1.094   4.912  0.00  0.00     0.217 HD
ENDBRANCH  27  30
ENDBRANCH  21  22
ENDBRANCH   3  20
TORSDOF 7
