@<TRIPOS>MOLECULE
*****
 30 31 0 0 0
SMALL
GASTEIGER

@<TRIPOS>ATOM
      1 N          -2.0247   -0.0989    0.0100 N.pl3   1  UNL1       -0.3278
      2 C          -0.6998    0.0920    0.0031 C.ar    1  UNL1        0.2092
      3 N          -0.0316    1.2229    0.0018 N.ar    1  UNL1       -0.1880
      4 C           1.2775    0.8158   -0.0057 C.ar    1  UNL1        0.2105
      5 S           2.6784    1.8531   -0.0196 S.3     1  UNL1       -0.0750
      6 C           2.0590    3.5698   -0.0212 C.3     1  UNL1        0.0791
      7 C           3.2492    4.5639   -0.0446 C.2     1  UNL1        0.2393
      8 O           4.4402    4.2203   -0.0500 O.2     1  UNL1       -0.2734
      9 N           2.9133    5.9195   -0.0845 N.am    1  UNL1       -0.2357
     10 N           3.9741    6.8517   -0.0216 N.pl3   1  UNL1       -0.2617
     11 C           3.7356    8.2439   -0.0235 C.ar    1  UNL1        0.0811
     12 C           2.7641    8.8577    0.7950 C.ar    1  UNL1        0.0660
     13 CL          1.7986    7.9498    1.9122 Cl      1  UNL1       -0.0815
     14 C           2.5785   10.2493    0.8084 C.ar    1  UNL1       -0.0231
     15 C           3.3332   11.0642   -0.0255 C.ar    1  UNL1        0.0439
     16 CL          3.0932   12.7683   -0.0001 Cl      1  UNL1       -0.0834
     17 C           4.2782   10.5043   -0.8734 C.ar    1  UNL1       -0.0231
     18 C           4.4804    9.1125   -0.8640 C.ar    1  UNL1        0.0660
     19 CL          5.6874    8.4970   -1.9443 Cl      1  UNL1       -0.0815
     20 N           1.4486   -0.5141   -0.0072 N.ar    1  UNL1       -0.1443
     21 N           0.1821   -0.9518   -0.0006 N.ar    1  UNL1       -0.2461
     22 H          -2.6395    0.7080   -0.0101 H       1  UNL1        0.1451
     23 H          -2.4874   -0.9995   -0.0445 H       1  UNL1        0.1451
     24 H           1.4618    3.7492    0.8785 H       1  UNL1        0.0476
     25 H           1.4411    3.7388   -0.9088 H       1  UNL1        0.0476
     26 H           1.9650    6.2699    0.0123 H       1  UNL1        0.1727
     27 H           4.9056    6.4922   -0.2524 H       1  UNL1        0.1701
     28 H           1.8512   10.6953    1.4829 H       1  UNL1        0.0647
     29 H           4.8567   11.1473   -1.5351 H       1  UNL1        0.0647
     30 H          -0.0097   -1.9466    0.0023 H       1  UNL1        0.1918
@<TRIPOS>BOND
     1     1     2    1
     2     2     3   ar
     3     3     4   ar
     4     4     5    1
     5     5     6    1
     6     6     7    1
     7     7     8    2
     8     7     9   am
     9     9    10    1
    10    10    11    1
    11    11    12   ar
    12    12    13    1
    13    12    14   ar
    14    14    15   ar
    15    15    16    1
    16    15    17   ar
    17    17    18   ar
    18    11    18   ar
    19    18    19    1
    20     4    20   ar
    21    20    21   ar
    22     2    21   ar
    23     1    22    1
    24     1    23    1
    25     6    24    1
    26     6    25    1
    27     9    26    1
    28    10    27    1
    29    14    28    1
    30    17    29    1
    31    21    30    1
