REMARK  8 active torsions:
REMARK  status: ('A' for Active; 'I' for Inactive)
REMARK    1  A    between atoms: C_2  and  C_3 
REMARK    2  A    between atoms: C_3  and  C_4 
REMARK    3  A    between atoms: C_4  and  C_5 
REMARK    4  A    between atoms: C_5  and  C_6 
REMARK       I    between atoms: C_6  and  N_8 
REMARK    5  A    between atoms: N_8  and  N_9 
REMARK       I    between atoms: N_9  and  C_10 
REMARK    6  A    between atoms: C_10  and  C_12 
REMARK    7  A    between atoms: C_15  and  N_16 
REMARK       I    between atoms: N_16  and  C_17 
REMARK    8  A    between atoms: C_17  and  C_19 
ROOT
ATOM      1  C   UNL d   1      10.852   5.167  -1.154  0.00  0.00     0.033 A 
ATOM      2  C   UNL d   1      11.621   6.219  -0.625  0.00  0.00     0.019 A 
ATOM      3  C   UNL d   1      13.028   6.252  -0.795  0.00  0.00     0.030 A 
ATOM      4  C   UNL d   1      13.688   5.203  -1.451  0.00  0.00     0.034 A 
ATOM      5  C   UNL d   1      12.898   4.185  -1.989  0.00  0.00     0.030 A 
ATOM      6  C   UNL d   1      11.508   4.154  -1.842  0.00  0.00     0.019 A 
ENDROOT
BRANCH   1   7
ATOM      7  C   UNL d   1       9.356   5.189  -1.123  0.00  0.00     0.270 C 
ATOM      8  N   UNL d   1       8.704   3.980  -0.935  0.00  0.00    -0.263 N 
ATOM      9  H   UNL d   1       9.180   3.102  -0.723  0.00  0.00     0.190 HD
ATOM     10  O   UNL d   1       8.758   6.255  -1.291  0.00  0.00    -0.266 OA
BRANCH   8  11
ATOM     11  N   UNL d   1       7.284   3.931  -0.918  0.00  0.00    -0.267 N 
ATOM     12  C   UNL d   1       6.666   2.719  -0.655  0.00  0.00     0.236 C 
ATOM     13  O   UNL d   1       7.320   1.699  -0.432  0.00  0.00    -0.272 OA
ATOM     14  H   UNL d   1       6.793   4.802  -1.113  0.00  0.00     0.190 HD
BRANCH  12  15
ATOM     15  C   UNL d   1       5.135   2.739  -0.660  0.00  0.00     0.104 C 
BRANCH  15  16
ATOM     16  C   UNL d   1       4.554   1.348  -0.354  0.00  0.00     0.009 C 
BRANCH  16  17
ATOM     17  C   UNL d   1       3.023   1.327  -0.349  0.00  0.00     0.000 C 
BRANCH  17  18
ATOM     18  C   UNL d   1       2.490  -0.076  -0.041  0.00  0.00    -0.005 C 
ATOM     19  C   UNL d   1       0.970  -0.095  -0.037  0.00  0.00     0.005 C 
ENDBRANCH  17  18
ENDBRANCH  16  17
ENDBRANCH  15  16
ENDBRANCH  12  15
ENDBRANCH   8  11
ENDBRANCH   1   7
BRANCH   4  20
ATOM     20  N   UNL d   1      15.112   5.175  -1.527  0.00  0.00    -0.327 N 
ATOM     21  C   UNL d   1      15.865   4.130  -2.058  0.00  0.00     0.226 C 
ATOM     22  O   UNL d   1      15.396   3.131  -2.607  0.00  0.00    -0.273 OA
ATOM     23  H   UNL d   1      15.592   5.944  -1.077  0.00  0.00     0.169 HD
BRANCH  21  24
ATOM     24  C   UNL d   1      17.393   4.205  -1.968  0.00  0.00     0.078 C 
ATOM     25  C   UNL d   1      17.959   5.439  -1.274  0.00  0.00     0.014 C 
ATOM     26  C   UNL d   1      19.479   5.390  -1.163  0.00  0.00     0.001 C 
ATOM     27  C   UNL d   1      19.948   4.117  -0.469  0.00  0.00     0.000 C 
ATOM     28  C   UNL d   1      19.431   2.882  -1.194  0.00  0.00     0.001 C 
ATOM     29  C   UNL d   1      17.910   2.908  -1.309  0.00  0.00     0.014 C 
ENDBRANCH  21  24
ENDBRANCH   4  20
TORSDOF 8
