@<TRIPOS>MOLECULE
*****
 33 34 0 0 0
SMALL
GASTEIGER

@<TRIPOS>ATOM
      1 C           2.4447   -0.3587    0.4649 C.3     1  UNL1       -0.0380
      2 C           0.9899   -0.1132    0.1868 C.ar    1  UNL1       -0.0292
      3 C           0.2250   -1.2774    0.0801 C.ar    1  UNL1       -0.0564
      4 C          -1.1558   -1.2323   -0.0054 C.ar    1  UNL1       -0.0493
      5 C          -1.8212   -0.0093   -0.0077 C.ar    1  UNL1        0.0383
      6 C          -3.3205    0.0402   -0.0456 C.2     1  UNL1        0.2416
      7 N          -4.0060   -1.1561   -0.0607 N.am    1  UNL1       -0.3253
      8 O          -3.9257    1.0933   -0.0592 O.2     1  UNL1       -0.2704
      9 C          -1.0599    1.1830    0.0055 C.ar    1  UNL1       -0.0281
     10 C           0.3580    1.1425    0.0429 C.ar    1  UNL1        0.0373
     11 N           1.0625    2.3788   -0.0788 N.am    1  UNL1       -0.2813
     12 C           2.4320    2.5812   -0.2022 C.2     1  UNL1        0.2483
     13 O           3.0120    3.3661    0.5447 O.2     1  UNL1       -0.2699
     14 C           3.2124    1.8587   -1.2790 C.ar    1  UNL1        0.0385
     15 C           4.6071    1.7164   -1.1231 C.ar    1  UNL1       -0.0482
     16 C           5.3174    0.7864   -1.9026 C.ar    1  UNL1       -0.0413
     17 C           4.6445   -0.0335   -2.8163 C.ar    1  UNL1        0.0593
     18 CL          5.5612   -1.2045   -3.6954 Cl      1  UNL1       -0.0820
     19 C           3.2594    0.0899   -2.9639 C.ar    1  UNL1        0.0600
     20 CL          2.3178   -1.0960   -3.8072 Cl      1  UNL1       -0.0820
     21 C           2.5596    1.0820   -2.2585 C.ar    1  UNL1       -0.0298
     22 H           2.6785   -1.4086    0.6489 H       1  UNL1        0.0278
     23 H           2.8267    0.2649    1.2745 H       1  UNL1        0.0278
     24 H           3.0333   -0.2120   -0.4150 H       1  UNL1        0.0278
     25 H           0.7181   -2.2467    0.0791 H       1  UNL1        0.0621
     26 H          -1.6683   -2.1838   -0.0433 H       1  UNL1        0.0625
     27 H          -3.5955   -2.0745   -0.0495 H       1  UNL1        0.1453
     28 H          -5.0167   -1.1147   -0.0815 H       1  UNL1        0.1453
     29 H          -1.5912    2.1355   -0.0350 H       1  UNL1        0.0644
     30 H           0.5535    3.2149    0.1955 H       1  UNL1        0.1551
     31 H           5.1318    2.2389   -0.3219 H       1  UNL1        0.0625
     32 H           6.3863    0.6537   -1.7422 H       1  UNL1        0.0633
     33 H           1.4743    1.0699   -2.3103 H       1  UNL1        0.0640
@<TRIPOS>BOND
     1     1     2    1
     2     2     3   ar
     3     3     4   ar
     4     4     5   ar
     5     5     6    1
     6     6     7   am
     7     6     8    2
     8     5     9   ar
     9     9    10   ar
    10     2    10   ar
    11    10    11    1
    12    11    12   am
    13    12    13    2
    14    12    14    1
    15    14    15   ar
    16    15    16   ar
    17    16    17   ar
    18    17    18    1
    19    17    19   ar
    20    19    20    1
    21    19    21   ar
    22    14    21   ar
    23     1    22    1
    24     1    23    1
    25     1    24    1
    26     3    25    1
    27     4    26    1
    28     7    27    1
    29     7    28    1
    30     9    29    1
    31    11    30    1
    32    15    31    1
    33    16    32    1
    34    21    33    1
