REMARK  5 active torsions:
REMARK  status: ('A' for Active; 'I' for Inactive)
REMARK    1  A    between atoms: C_3  and  C_2 
REMARK    2  A    between atoms: C_3  and  C_5 
REMARK       I    between atoms: C_5  and  N_7 
REMARK    3  A    between atoms: N_7  and  N_8 
REMARK       I    between atoms: N_8  and  C_9 
REMARK    4  A    between atoms: C_9  and  C_11 
REMARK    5  A    between atoms: C_17  and  O_18 
ROOT
ATOM      1  N   UNL d   1       6.733  -1.772   1.921  0.00  0.00    -0.263 N 
ATOM      2  C   UNL d   1       7.384  -2.656   2.777  0.00  0.00     0.272 C 
ATOM      3  O   UNL d   1       6.751  -3.380   3.558  0.00  0.00    -0.266 OA
ATOM      4  H   UNL d   1       7.207  -1.208   1.218  0.00  0.00     0.190 HD
ENDROOT
BRANCH   2   5
ATOM      5  C   UNL d   1       8.890  -2.678   2.752  0.00  0.00     0.066 A 
ATOM      6  C   UNL d   1       9.620  -1.477   2.736  0.00  0.00     0.020 A 
ATOM      7  C   UNL d   1      11.030  -1.484   2.781  0.00  0.00     0.008 A 
ATOM      8  C   UNL d   1      11.740  -2.688   2.857  0.00  0.00    -0.059 A 
ATOM      9  C   UNL d   1      13.243  -2.734   2.914  0.00  0.00     0.048 C 
ATOM     10  C   UNL d   1      11.018  -3.886   2.880  0.00  0.00     0.044 A 
ATOM     11  C   UNL d   1       9.613  -3.881   2.825  0.00  0.00     0.082 A 
BRANCH  11  12
ATOM     12  O   UNL d   1       8.966  -5.086   2.806  0.00  0.00    -0.360 OA
ATOM     13  H   UNL d   1       9.614  -5.804   2.889  0.00  0.00     0.217 HD
ENDBRANCH  11  12
ENDBRANCH   2   5
BRANCH   1  14
ATOM     14  N   UNL d   1       5.303  -1.729   1.907  0.00  0.00    -0.267 N 
ATOM     15  C   UNL d   1       4.643  -0.912   0.996  0.00  0.00     0.239 C 
ATOM     16  O   UNL d   1       5.277  -0.176   0.234  0.00  0.00    -0.271 OA
ATOM     17  H   UNL d   1       4.840  -2.386   2.534  0.00  0.00     0.190 HD
BRANCH  15  18
ATOM     18  C   UNL d   1       3.075  -0.991   0.982  0.00  0.00     0.075 C 
ATOM     19  C   UNL d   1       2.522   0.010  -0.048  0.00  0.00     0.020 C 
BRANCH  18  20
ATOM     20  C   UNL d   1       2.693  -2.453   0.665  0.00  0.00     0.009 C 
ATOM     21  C   UNL d   1       1.274  -3.014   0.634  0.00  0.00     0.006 C 
ENDBRANCH  18  20
ENDBRANCH  15  18
ENDBRANCH   1  14
TORSDOF 5
