REMARK  13 active torsions:
REMARK  status: ('A' for Active; 'I' for Inactive)
REMARK    1  A    between atoms: C_2  and  C_3 
REMARK    2  A    between atoms: C_3  and  C_4 
REMARK    3  A    between atoms: C_4  and  N_5 
REMARK       I    between atoms: N_5  and  C_6 
REMARK    4  A    between atoms: C_6  and  C_8 
REMARK    5  A    between atoms: C_8  and  C_9 
REMARK    6  A    between atoms: C_8  and  N_18 
REMARK    7  A    between atoms: C_10  and  O_11 
REMARK    8  A    between atoms: C_13  and  O_14 
REMARK    9  A    between atoms: C_16  and  O_17 
REMARK       I    between atoms: N_18  and  C_19 
REMARK   10  A    between atoms: N_18  and  C_25 
REMARK   11  A    between atoms: C_19  and  C_21 
REMARK   12  A    between atoms: C_21  and  C_22 
REMARK   13  A    between atoms: C_22  and  C_23 
ROOT
ATOM      1  C   UNL d   1       6.803   3.395  -2.740  0.00  0.00     0.212 C 
ENDROOT
BRANCH   1   2
ATOM      2  C   UNL d   1       6.055   2.189  -2.018  0.00  0.00     0.225 C 
ATOM      3  N   UNL d   1       4.720   1.917  -2.220  0.00  0.00    -0.261 NA
ATOM      4  H   UNL d   1       4.183   2.768  -2.334  0.00  0.00     0.130 HD
ATOM      5  O   UNL d   1       6.501   1.520  -1.129  0.00  0.00    -0.277 OA
BRANCH   3   6
ATOM      6  C   UNL d   1       4.263   1.055  -1.118  0.00  0.00     0.095 C 
BRANCH   6   7
ATOM      7  C   UNL d   1       2.787   1.071  -0.986  0.00  0.00     0.014 C 
BRANCH   7   8
ATOM      8  C   UNL d   1       2.360  -0.006  -0.009  0.00  0.00    -0.003 C 
ATOM      9  C   UNL d   1       0.852  -0.019   0.016  0.00  0.00     0.005 C 
ENDBRANCH   7   8
ENDBRANCH   6   7
ENDBRANCH   3   6
ENDBRANCH   1   2
BRANCH   1  10
ATOM     10  C   UNL d   1       6.139   4.735  -2.320  0.00  0.00     0.040 C 
ATOM     11  C   UNL d   1       6.369   5.871  -3.054  0.00  0.00     0.080 C 
ATOM     12  C   UNL d   1       6.314   7.172  -2.510  0.00  0.00     0.073 C 
ATOM     13  C   UNL d   1       5.448   7.387  -1.484  0.00  0.00     0.071 C 
ATOM     14  C   UNL d   1       4.764   6.296  -1.005  0.00  0.00     0.073 C 
ATOM     15  C   UNL d   1       5.154   4.992  -1.373  0.00  0.00     0.080 C 
BRANCH  11  16
ATOM     16  O   UNL d   1       6.690   5.731  -4.383  0.00  0.00    -0.360 OA
ATOM     17  H   UNL d   1       7.239   4.935  -4.451  0.00  0.00     0.217 HD
ENDBRANCH  11  16
BRANCH  13  18
ATOM     18  O   UNL d   1       5.138   8.630  -1.040  0.00  0.00    -0.361 OA
ATOM     19  H   UNL d   1       5.696   9.285  -1.497  0.00  0.00     0.217 HD
ENDBRANCH  13  18
BRANCH  15  20
ATOM     20  O   UNL d   1       4.385   3.984  -0.891  0.00  0.00    -0.360 OA
ATOM     21  H   UNL d   1       3.685   4.346  -0.325  0.00  0.00     0.217 HD
ENDBRANCH  15  20
ENDBRANCH   1  10
BRANCH   1  22
ATOM     22  N   UNL d   1       8.481   3.470  -2.736  0.00  0.00    -0.330 N 
ATOM     23  C   UNL d   1       9.312   2.507  -2.079  0.00  0.00     0.221 C 
ATOM     24  O   UNL d   1      10.540   2.444  -2.124  0.00  0.00    -0.273 OA
BRANCH  23  25
ATOM     25  C   UNL d   1       8.704   1.474  -1.235  0.00  0.00     0.103 C 
BRANCH  25  26
ATOM     26  C   UNL d   1       9.549   0.525  -0.449  0.00  0.00     0.009 C 
BRANCH  26  27
ATOM     27  C   UNL d   1       8.651  -0.422   0.354  0.00  0.00    -0.004 C 
ATOM     28  C   UNL d   1       9.560  -1.341   1.132  0.00  0.00     0.005 C 
ENDBRANCH  26  27
ENDBRANCH  25  26
ENDBRANCH  23  25
BRANCH  22  29
ATOM     29  C   UNL d   1       9.286   4.499  -3.606  0.00  0.00     0.088 C 
ATOM     30  C   UNL d   1       9.151   5.989  -3.197  0.00  0.00     0.025 C 
ATOM     31  C   UNL d   1       9.782   7.029  -4.096  0.00  0.00     0.002 C 
ATOM     32  C   UNL d   1      11.243   6.823  -3.991  0.00  0.00     0.000 C 
ATOM     33  C   UNL d   1      11.543   5.407  -4.456  0.00  0.00     0.002 C 
ATOM     34  C   UNL d   1      10.826   4.341  -3.630  0.00  0.00     0.025 C 
ENDBRANCH  22  29
ENDBRANCH   1  22
TORSDOF 13
