REMARK  8 active torsions:
REMARK  status: ('A' for Active; 'I' for Inactive)
REMARK    1  A    between atoms: C_2  and  C_4 
REMARK    2  A    between atoms: C_4  and  C_5 
REMARK    3  A    between atoms: C_5  and  N_6 
REMARK    4  A    between atoms: N_6  and  C_7 
REMARK    5  A    between atoms: C_7  and  N_9 
REMARK    6  A    between atoms: N_9  and  N_10 
REMARK       I    between atoms: N_10  and  C_11 
REMARK    7  A    between atoms: C_11  and  C_13 
REMARK    8  A    between atoms: C_16  and  N_17 
ROOT
ATOM      1  N   UNL d   1       8.293   2.232  -4.292  0.00  0.00    -0.264 N 
ATOM      2  C   UNL d   1       8.717   2.910  -5.422  0.00  0.00     0.270 C 
ATOM      3  O   UNL d   1       7.941   3.420  -6.234  0.00  0.00    -0.266 OA
ATOM      4  H   UNL d   1       8.932   1.899  -3.572  0.00  0.00     0.190 HD
ENDROOT
BRANCH   1   5
ATOM      5  N   UNL d   1       6.898   2.099  -3.977  0.00  0.00    -0.274 N 
ATOM      6  H   UNL d   1       6.248   2.467  -4.670  0.00  0.00     0.189 HD
BRANCH   5   7
ATOM      7  C   UNL d   1       6.510   1.480  -2.791  0.00  0.00     0.186 C 
ATOM      8  S   UNL d   1       7.643   0.886  -1.692  0.00  0.00    -0.040 SA
BRANCH   7   9
ATOM      9  N   UNL d   1       5.132   1.403  -2.595  0.00  0.00    -0.366 N 
ATOM     10  H   UNL d   1       4.505   1.743  -3.312  0.00  0.00     0.161 HD
BRANCH   9  11
ATOM     11  C   UNL d   1       4.529   0.757  -1.419  0.00  0.00     0.122 C 
BRANCH  11  12
ATOM     12  C   UNL d   1       2.997   0.719  -1.380  0.00  0.00     0.023 C 
BRANCH  12  13
ATOM     13  C   UNL d   1       2.463   0.020  -0.102  0.00  0.00    -0.021 C 
ATOM     14  C   UNL d   1       0.933   0.039  -0.076  0.00  0.00     0.009 C 
ATOM     15  C   UNL d   1       2.945  -1.430   0.007  0.00  0.00     0.009 C 
ENDBRANCH  12  13
ENDBRANCH  11  12
ENDBRANCH   9  11
ENDBRANCH   7   9
ENDBRANCH   5   7
ENDBRANCH   1   5
BRANCH   2  16
ATOM     16  C   UNL d   1      10.202   3.001  -5.660  0.00  0.00     0.033 A 
ATOM     17  C   UNL d   1      10.752   4.168  -6.225  0.00  0.00     0.019 A 
ATOM     18  C   UNL d   1      12.108   4.226  -6.599  0.00  0.00     0.037 A 
ATOM     19  C   UNL d   1      12.943   3.130  -6.348  0.00  0.00     0.102 A 
ATOM     20  C   UNL d   1      12.409   1.959  -5.791  0.00  0.00     0.037 A 
ATOM     21  C   UNL d   1      11.043   1.898  -5.451  0.00  0.00     0.019 A 
BRANCH  19  22
ATOM     22  N   UNL d   1      14.390   3.226  -6.618  0.00  0.00    -0.116 N 
ATOM     23  O   UNL d   1      14.822   4.290  -7.084  0.00  0.00    -0.532 OA
ATOM     24  O   UNL d   1      15.095   2.246  -6.335  0.00  0.00    -0.532 OA
ENDBRANCH  19  22
ENDBRANCH   2  16
TORSDOF 8
