@<TRIPOS>MOLECULE
*****
 32 32 0 0 0
SMALL
GASTEIGER

@<TRIPOS>ATOM
      1 C           1.1078   -0.0179    0.0343 C.3     1  UNL1       -0.0648
      2 C           2.6294   -0.0096    0.0437 C.3     1  UNL1       -0.0476
      3 C           3.2134    0.7978    1.2106 C.3     1  UNL1        0.0252
      4 C           4.7398    0.7770    1.1992 C.2     1  UNL1        0.2291
      5 O           5.3973    0.1863    0.3444 O.2     1  UNL1       -0.2743
      6 N           5.3391    1.4660    2.2443 N.am    1  UNL1       -0.2342
      7 N           6.7610    1.4075    2.3464 N.am    1  UNL1       -0.2304
      8 C           7.4676    2.1761    3.2638 C.2     1  UNL1        0.2601
      9 O           8.4670    2.8069    2.9205 O.2     1  UNL1       -0.2687
     10 C           7.0804    2.1240    4.7081 C.ar    1  UNL1        0.0382
     11 C           7.7382    2.9353    5.6477 C.ar    1  UNL1       -0.0493
     12 C           7.4362    2.8274    7.0136 C.ar    1  UNL1       -0.0581
     13 C           6.4760    1.9105    7.4568 C.ar    1  UNL1       -0.0504
     14 C           6.1413    1.7634    8.9115 C.3     1  UNL1       -0.0397
     15 C           5.8320    1.0976    6.5214 C.ar    1  UNL1       -0.0581
     16 C           6.1472    1.1898    5.1670 C.ar    1  UNL1       -0.0493
     17 H           0.7376   -0.6037   -0.8147 H       1  UNL1        0.0230
     18 H           0.7080    0.9965   -0.0586 H       1  UNL1        0.0230
     19 H           0.7094   -0.4662    0.9497 H       1  UNL1        0.0230
     20 H           2.9871    0.4017   -0.9080 H       1  UNL1        0.0267
     21 H           2.9875   -1.0453    0.0923 H       1  UNL1        0.0267
     22 H           2.8637    0.3740    2.1595 H       1  UNL1        0.0359
     23 H           2.8685    1.8363    1.1516 H       1  UNL1        0.0359
     24 H           4.8202    2.0359    2.9050 H       1  UNL1        0.1728
     25 H           7.2178    1.2908    1.4402 H       1  UNL1        0.1731
     26 H           8.5119    3.6355    5.3335 H       1  UNL1        0.0625
     27 H           7.9656    3.4533    7.7305 H       1  UNL1        0.0620
     28 H           6.7270    2.4483    9.5318 H       1  UNL1        0.0278
     29 H           6.3527    0.7416    9.2450 H       1  UNL1        0.0278
     30 H           5.0806    1.9800    9.0745 H       1  UNL1        0.0278
     31 H           5.0955    0.3642    6.8409 H       1  UNL1        0.0620
     32 H           5.6773    0.4869    4.4886 H       1  UNL1        0.0625
@<TRIPOS>BOND
     1     1     2    1
     2     2     3    1
     3     3     4    1
     4     4     5    2
     5     4     6   am
     6     6     7    1
     7     7     8   am
     8     8     9    2
     9     8    10    1
    10    10    11   ar
    11    11    12   ar
    12    12    13   ar
    13    13    14    1
    14    13    15   ar
    15    15    16   ar
    16    10    16   ar
    17     1    17    1
    18     1    18    1
    19     1    19    1
    20     2    20    1
    21     2    21    1
    22     3    22    1
    23     3    23    1
    24     6    24    1
    25     7    25    1
    26    11    26    1
    27    12    27    1
    28    14    28    1
    29    14    29    1
    30    14    30    1
    31    15    31    1
    32    16    32    1
