@<TRIPOS>MOLECULE
*****
 54 57 0 0 0
SMALL
GASTEIGER

@<TRIPOS>ATOM
      1 C           1.0234   -0.0447    0.0846 C.3     1  UNL1        0.0788
      2 O           2.4482    0.0584    0.0659 O.3     1  UNL1       -0.4951
      3 C           3.0748   -0.3483    1.2108 C.ar    1  UNL1        0.1205
      4 C           2.6705   -1.4688    1.9263 C.ar    1  UNL1       -0.0182
      5 C           3.3976   -1.9086    3.0275 C.ar    1  UNL1       -0.0365
      6 C           4.5194   -1.2151    3.4523 C.ar    1  UNL1        0.0412
      7 C           4.9225   -0.0827    2.7387 C.ar    1  UNL1       -0.0210
      8 C           4.2203    0.3494    1.6101 C.ar    1  UNL1       -0.0150
      9 C           6.1131    0.5665    3.3782 C.3     1  UNL1       -0.0095
     10 C           6.5288   -0.4961    4.4108 C.3     1  UNL1        0.0253
     11 N           5.4059   -1.4639    4.5278 N.am    1  UNL1       -0.2550
     12 C           5.3958   -2.4260    5.5238 C.2     1  UNL1        0.3068
     13 O           6.3054   -2.5440    6.3531 O.2     1  UNL1       -0.2523
     14 N           4.3192   -3.2663    5.5673 N.am    1  UNL1       -0.2946
     15 C           4.1293   -4.3064    6.5400 C.3     1  UNL1        0.0459
     16 C           2.8718   -5.1240    6.2931 C.ar    1  UNL1        0.0574
     17 C           1.6252   -4.4803    6.1261 C.ar    1  UNL1       -0.0438
     18 C           0.4578   -5.2178    5.9479 C.ar    1  UNL1        0.0025
     19 C           0.5475   -6.5973    5.9407 C.ar    1  UNL1        0.1711
     20 N           1.7403   -7.1877    6.0940 N.ar    1  UNL1       -0.1979
     21 C           2.9029   -6.5313    6.2818 C.ar    1  UNL1        0.2765
     22 N           3.9717   -7.3278    6.5800 N.pl3   1  UNL1       -0.2777
     23 C           4.6944   -8.0787    5.5439 C.3     1  UNL1        0.0173
     24 C           4.9876   -9.4660    6.1294 C.3     1  UNL1       -0.0370
     25 C           5.7417   -9.3709    7.4641 C.3     1  UNL1       -0.0502
     26 C           5.0626   -8.4018    8.4366 C.3     1  UNL1       -0.0370
     27 C           4.7940   -7.0606    7.7680 C.3     1  UNL1        0.0173
     28 H           0.6545    0.2433   -0.9036 H       1  UNL1        0.0660
     29 H           0.6084    0.6473    0.8240 H       1  UNL1        0.0660
     30 H           0.6571   -1.0607    0.2676 H       1  UNL1        0.0660
     31 H           1.8165   -2.0665    1.6303 H       1  UNL1        0.0655
     32 H           3.0238   -2.8257    3.4405 H       1  UNL1        0.0637
     33 H           4.5446    1.2187    1.0452 H       1  UNL1        0.0657
     34 H           5.8107    1.4927    3.8805 H       1  UNL1        0.0329
     35 H           6.9151    0.7916    2.6672 H       1  UNL1        0.0329
     36 H           6.7660   -0.0507    5.3844 H       1  UNL1        0.0472
     37 H           7.4231   -1.0373    4.0717 H       1  UNL1        0.0472
     38 H           3.5345   -3.0421    5.0100 H       1  UNL1        0.1506
     39 H           4.0900   -3.8694    7.5437 H       1  UNL1        0.0515
     40 H           5.0241   -4.9207    6.4608 H       1  UNL1        0.0515
     41 H           1.5517   -3.3919    6.1549 H       1  UNL1        0.0625
     42 H          -0.5064   -4.7236    5.8351 H       1  UNL1        0.0677
     43 H          -0.3198   -7.2440    5.8387 H       1  UNL1        0.1376
     44 H           1.7968   -8.2021    6.1411 H       1  UNL1        0.4542
     45 H           5.6392   -7.5744    5.2959 H       1  UNL1        0.0465
     46 H           4.1214   -8.1718    4.6144 H       1  UNL1        0.0465
     47 H           5.5644  -10.0691    5.4202 H       1  UNL1        0.0280
     48 H           4.0355   -9.9837    6.3010 H       1  UNL1        0.0280
     49 H           6.7697   -9.0360    7.2773 H       1  UNL1        0.0266
     50 H           5.8055  -10.3622    7.9257 H       1  UNL1        0.0266
     51 H           5.6863   -8.2555    9.3240 H       1  UNL1        0.0280
     52 H           4.1089   -8.8310    8.7666 H       1  UNL1        0.0280
     53 H           5.7502   -6.6002    7.4858 H       1  UNL1        0.0465
     54 H           4.2889   -6.3916    8.4729 H       1  UNL1        0.0465
@<TRIPOS>UNITY_ATOM_ATTR
20 1
charge 1
@<TRIPOS>BOND
     1     1     2    1
     2     2     3    1
     3     3     4   ar
     4     4     5   ar
     5     5     6   ar
     6     6     7   ar
     7     7     8   ar
     8     3     8   ar
     9     7     9    1
    10     9    10    1
    11    10    11    1
    12     6    11    1
    13    11    12   am
    14    12    13    2
    15    12    14   am
    16    14    15    1
    17    15    16    1
    18    16    17   ar
    19    17    18   ar
    20    18    19   ar
    21    19    20   ar
    22    20    21   ar
    23    16    21   ar
    24    21    22    1
    25    22    23    1
    26    23    24    1
    27    24    25    1
    28    25    26    1
    29    26    27    1
    30    22    27    1
    31     1    28    1
    32     1    29    1
    33     1    30    1
    34     4    31    1
    35     5    32    1
    36     8    33    1
    37     9    34    1
    38     9    35    1
    39    10    36    1
    40    10    37    1
    41    14    38    1
    42    15    39    1
    43    15    40    1
    44    17    41    1
    45    18    42    1
    46    19    43    1
    47    20    44    1
    48    23    45    1
    49    23    46    1
    50    24    47    1
    51    24    48    1
    52    25    49    1
    53    25    50    1
    54    26    51    1
    55    26    52    1
    56    27    53    1
    57    27    54    1
