@<TRIPOS>MOLECULE
*****
 32 33 0 0 0
SMALL
GASTEIGER

@<TRIPOS>ATOM
      1 C           0.9760   -0.1811   -0.1622 C.3     1  UNL1        0.0004
      2 N           2.3981   -0.3147   -0.4406 N.am    1  UNL1       -0.3144
      3 C           3.0881   -1.3932    0.1028 C.2     1  UNL1        0.2456
      4 O           2.5445   -2.4456    0.4264 O.2     1  UNL1       -0.2701
      5 C           4.5687   -1.2480    0.3059 C.ar    1  UNL1        0.0578
      6 C           5.3351   -2.3477   -0.1263 C.ar    1  UNL1       -0.0478
      7 C           6.7153   -2.3980    0.0806 C.ar    1  UNL1       -0.0609
      8 C           7.3631   -1.3200    0.6714 C.ar    1  UNL1       -0.0600
      9 C           6.6223   -0.2117    1.1007 C.ar    1  UNL1       -0.0397
     10 C           5.2193   -0.1638    0.9437 C.ar    1  UNL1        0.0459
     11 N           4.5677    1.0070    1.4267 N.am    1  UNL1       -0.2796
     12 C           3.2660    0.9904    1.9115 C.2     1  UNL1        0.2666
     13 O           2.7265   -0.0188    2.3352 O.2     1  UNL1       -0.2682
     14 C           2.5066    2.2782    1.9604 C.ar    1  UNL1        0.1270
     15 C           2.9816    3.4798    1.4721 C.ar    1  UNL1       -0.0128
     16 C           2.2633    4.6149    1.8327 C.ar    1  UNL1        0.0446
     17 CL          2.8703    6.1707    1.4171 Cl      1  UNL1       -0.0834
     18 C           1.0927    4.5222    2.5816 C.ar    1  UNL1       -0.0252
     19 C           0.6336    3.2673    2.9028 C.ar    1  UNL1        0.0298
     20 N           1.3121    2.1575    2.5956 N.ar    1  UNL1       -0.2503
     21 H           0.6701    0.8491   -0.3703 H       1  UNL1        0.0426
     22 H           0.7575   -0.4009    0.8886 H       1  UNL1        0.0426
     23 H           0.4100   -0.8752   -0.7846 H       1  UNL1        0.0426
     24 H           2.9221    0.5368   -0.5658 H       1  UNL1        0.1487
     25 H           4.8434   -3.1810   -0.6255 H       1  UNL1        0.0626
     26 H           7.2772   -3.2842   -0.2075 H       1  UNL1        0.0618
     27 H           8.4438   -1.3489    0.8034 H       1  UNL1        0.0618
     28 H           7.1625    0.5871    1.6051 H       1  UNL1        0.0636
     29 H           5.1569    1.7510    1.7795 H       1  UNL1        0.1552
     30 H           3.8847    3.5550    0.8786 H       1  UNL1        0.0655
     31 H           0.5540    5.3978    2.9211 H       1  UNL1        0.0647
     32 H          -0.2811    3.1017    3.4636 H       1  UNL1        0.0830
@<TRIPOS>BOND
     1     1     2    1
     2     2     3   am
     3     3     4    2
     4     3     5    1
     5     5     6   ar
     6     6     7   ar
     7     7     8   ar
     8     8     9   ar
     9     9    10   ar
    10     5    10   ar
    11    10    11    1
    12    11    12   am
    13    12    13    2
    14    12    14    1
    15    14    15   ar
    16    15    16   ar
    17    16    17    1
    18    16    18   ar
    19    18    19   ar
    20    19    20   ar
    21    14    20   ar
    22     1    21    1
    23     1    22    1
    24     1    23    1
    25     2    24    1
    26     6    25    1
    27     7    26    1
    28     8    27    1
    29     9    28    1
    30    11    29    1
    31    15    30    1
    32    18    31    1
    33    19    32    1
