REMARK  9 active torsions:
REMARK  status: ('A' for Active; 'I' for Inactive)
REMARK    1  A    between atoms: O_2  and  C_3 
REMARK    2  A    between atoms: C_7  and  C_8 
REMARK    3  A    between atoms: N_9  and  N_10 
REMARK       I    between atoms: N_10  and  C_11 
REMARK    4  A    between atoms: C_11  and  C_13 
REMARK    5  A    between atoms: C_15  and  C_16 
REMARK    6  A    between atoms: C_19  and  O_20 
REMARK    7  A    between atoms: O_20  and  C_21 
REMARK    8  A    between atoms: C_21  and  C_22 
REMARK    9  A    between atoms: C_33  and  O_34 
ROOT
ATOM      1  C   UNL d   1      -1.444   7.680   0.152  0.00  0.00     0.121 A 
ATOM      2  C   UNL d   1      -1.161   8.779  -0.636  0.00  0.00     0.071 A 
ATOM      3  C   UNL d   1      -2.086   9.793  -0.262  0.00  0.00     0.089 A 
ATOM      4  N   UNL d   1      -2.887   9.357   0.720  0.00  0.00    -0.174 NA
ATOM      5  N   UNL d   1      -2.527   8.070   0.899  0.00  0.00    -0.272 N 
ATOM      6  H   UNL d   1      -3.047   7.513   1.574  0.00  0.00     0.189 HD
ENDROOT
BRANCH   1   7
ATOM      7  C   UNL d   1      -0.878   6.353   0.194  0.00  0.00     0.289 C 
ATOM      8  N   UNL d   1       0.515   6.277   0.100  0.00  0.00    -0.242 N 
ATOM      9  H   UNL d   1       1.078   7.120   0.096  0.00  0.00     0.192 HD
ATOM     10  O   UNL d   1      -1.598   5.358   0.336  0.00  0.00    -0.264 OA
BRANCH   8  11
ATOM     11  N   UNL d   1       1.123   5.047   0.122  0.00  0.00    -0.183 NA
ATOM     12  C   UNL d   1       2.420   4.968   0.097  0.00  0.00     0.153 C 
BRANCH  12  13
ATOM     13  C   UNL d   1       3.092   3.630   0.098  0.00  0.00     0.019 A 
ATOM     14  C   UNL d   1       4.493   3.557   0.069  0.00  0.00     0.016 A 
ATOM     15  C   UNL d   1       5.133   2.311   0.071  0.00  0.00     0.004 A 
ATOM     16  C   UNL d   1       4.379   1.137   0.092  0.00  0.00     0.040 A 
ATOM     17  C   UNL d   1       2.979   1.188   0.110  0.00  0.00     0.102 A 
ATOM     18  C   UNL d   1       2.338   2.441   0.122  0.00  0.00     0.110 A 
BRANCH  17  19
ATOM     19  O   UNL d   1       2.392  -0.053   0.112  0.00  0.00    -0.353 OA
ATOM     20  C   UNL d   1       0.970  -0.093   0.097  0.00  0.00     0.210 C 
ENDBRANCH  17  19
BRANCH  18  21
ATOM     21  O   UNL d   1       0.968   2.494   0.160  0.00  0.00    -0.357 OA
ATOM     22  H   UNL d   1       0.666   3.429   0.171  0.00  0.00     0.217 HD
ENDBRANCH  18  21
ENDBRANCH  12  13
ENDBRANCH   8  11
ENDBRANCH   1   7
BRANCH   3  23
ATOM     23  C   UNL d   1      -2.185  11.136  -0.829  0.00  0.00    -0.005 A 
ATOM     24  C   UNL d   1      -2.406  11.305  -2.201  0.00  0.00     0.016 A 
ATOM     25  C   UNL d   1      -2.437  12.585  -2.769  0.00  0.00     0.037 A 
ATOM     26  C   UNL d   1      -2.245  13.714  -1.974  0.00  0.00     0.069 A 
ATOM     27  C   UNL d   1      -2.024  13.550  -0.603  0.00  0.00     0.037 A 
ATOM     28  C   UNL d   1      -2.001  12.270  -0.030  0.00  0.00     0.016 A 
BRANCH  26  29
ATOM     29  O   UNL d   1      -2.250  15.008  -2.419  0.00  0.00    -0.347 OA
BRANCH  29  30
ATOM     30  C   UNL d   1      -2.519  15.209  -3.810  0.00  0.00     0.216 C 
BRANCH  30  31
ATOM     31  C   UNL d   1      -2.576  16.695  -4.057  0.00  0.00    -0.012 A 
ATOM     32  C   UNL d   1      -1.371  17.416  -4.149  0.00  0.00     0.011 A 
ATOM     33  C   UNL d   1      -1.378  18.810  -4.225  0.00  0.00     0.001 A 
ATOM     34  C   UNL d   1      -2.587  19.497  -4.280  0.00  0.00     0.002 A 
ATOM     35  C   UNL d   1      -3.789  18.794  -4.229  0.00  0.00     0.024 A 
ATOM     36  C   UNL d   1      -3.787  17.402  -4.110  0.00  0.00     0.042 A 
ATOM     37 CL   UNL d   1      -5.323  16.612  -4.043  0.00  0.00    -0.084 Cl
ENDBRANCH  30  31
ENDBRANCH  29  30
ENDBRANCH  26  29
ENDBRANCH   3  23
TORSDOF 9
