@<TRIPOS>MOLECULE
*****
 41 41 0 0 0
SMALL
GASTEIGER

@<TRIPOS>ATOM
      1 C           2.4924   -0.0219   -0.0178 C.3     1  UNL1       -0.0397
      2 C           0.9935   -0.0224    0.0116 C.ar    1  UNL1       -0.0502
      3 C           0.2451   -1.2036    0.0047 C.ar    1  UNL1       -0.0554
      4 C          -1.1613   -1.1565    0.0048 C.ar    1  UNL1       -0.0197
      5 C          -1.8399    0.0691    0.0403 C.ar    1  UNL1        0.1216
      6 O          -3.2117    0.0240   -0.0494 O.3     1  UNL1       -0.4798
      7 C          -3.9799    1.2506   -0.0983 C.3     1  UNL1        0.1741
      8 C          -3.6614    2.0569   -1.3660 C.3     1  UNL1       -0.0190
      9 C          -5.5300    0.9419   -0.0883 C.2     1  UNL1        0.2696
     10 O          -5.9869   -0.2043   -0.0776 O.2     1  UNL1       -0.2702
     11 N          -6.3880    2.0451   -0.0837 N.am    1  UNL1       -0.2301
     12 N          -7.8143    1.8532   -0.1324 N.am    1  UNL1       -0.2181
     13 C          -8.6434    2.9630   -0.1185 C.2     1  UNL1        0.3162
     14 O          -8.1796    4.1052   -0.0581 O.2     1  UNL1       -0.2513
     15 N          -9.9977    2.6947   -0.2089 N.am    1  UNL1       -0.2959
     16 C         -11.0178    3.7641   -0.2310 C.3     1  UNL1        0.0190
     17 C         -10.8602    4.6614   -1.4615 C.3     1  UNL1       -0.0468
     18 C         -12.4580    3.2257   -0.2215 C.3     1  UNL1       -0.0468
     19 C          -1.0775    1.2324    0.1284 C.ar    1  UNL1       -0.0197
     20 C           0.3170    1.1950    0.0623 C.ar    1  UNL1       -0.0554
     21 H           2.8992   -1.0369   -0.0049 H       1  UNL1        0.0278
     22 H           2.8808    0.5090    0.8584 H       1  UNL1        0.0278
     23 H           2.8519    0.4801   -0.9226 H       1  UNL1        0.0278
     24 H           0.7495   -2.1681   -0.0103 H       1  UNL1        0.0621
     25 H          -1.7185   -2.0910   -0.0239 H       1  UNL1        0.0654
     26 H          -3.7668    1.8229    0.8145 H       1  UNL1        0.0829
     27 H          -3.9150    1.4780   -2.2580 H       1  UNL1        0.0270
     28 H          -2.6058    2.3086   -1.4871 H       1  UNL1        0.0270
     29 H          -4.1998    3.0071   -1.3804 H       1  UNL1        0.0270
     30 H          -6.0834    3.0178   -0.0915 H       1  UNL1        0.1729
     31 H          -8.1387    0.8906   -0.1428 H       1  UNL1        0.1744
     32 H         -10.3130    1.7352   -0.1889 H       1  UNL1        0.1505
     33 H         -10.8746    4.3712    0.6720 H       1  UNL1        0.0493
     34 H         -10.9951    4.0826   -2.3814 H       1  UNL1        0.0247
     35 H          -9.8716    5.1239   -1.5025 H       1  UNL1        0.0247
     36 H         -11.5972    5.4725   -1.4566 H       1  UNL1        0.0247
     37 H         -12.6627    2.6115   -1.1058 H       1  UNL1        0.0247
     38 H         -13.1829    4.0524   -0.2280 H       1  UNL1        0.0247
     39 H         -12.6636    2.6194    0.6656 H       1  UNL1        0.0247
     40 H          -1.5293    2.2106    0.2237 H       1  UNL1        0.0654
     41 H           0.8689    2.1322    0.0539 H       1  UNL1        0.0621
@<TRIPOS>BOND
     1     1     2    1
     2     2     3   ar
     3     3     4   ar
     4     4     5   ar
     5     5     6    1
     6     6     7    1
     7     7     8    1
     8     7     9    1
     9     9    10    2
    10     9    11   am
    11    11    12    1
    12    12    13   am
    13    13    14    2
    14    13    15   am
    15    15    16    1
    16    16    17    1
    17    16    18    1
    18     5    19   ar
    19    19    20   ar
    20     2    20   ar
    21     1    21    1
    22     1    22    1
    23     1    23    1
    24     3    24    1
    25     4    25    1
    26     7    26    1
    27     8    27    1
    28     8    28    1
    29     8    29    1
    30    11    30    1
    31    12    31    1
    32    15    32    1
    33    16    33    1
    34    17    34    1
    35    17    35    1
    36    17    36    1
    37    18    37    1
    38    18    38    1
    39    18    39    1
    40    19    40    1
    41    20    41    1
