REMARK  11 active torsions:
REMARK  status: ('A' for Active; 'I' for Inactive)
REMARK    1  A    between atoms: C_2  and  C_3 
REMARK    2  A    between atoms: C_3  and  N_4 
REMARK    3  A    between atoms: C_5  and  S_6 
REMARK    4  A    between atoms: S_6  and  C_7 
REMARK    5  A    between atoms: C_7  and  C_8 
REMARK       I    between atoms: C_8  and  N_10 
REMARK    6  A    between atoms: N_10  and  C_11 
REMARK    7  A    between atoms: C_12  and  C_11 
REMARK    8  A    between atoms: C_12  and  C_22 
REMARK    9  A    between atoms: C_12  and  C_13 
REMARK   10  A    between atoms: C_25  and  O_26 
REMARK   11  A    between atoms: C_32  and  O_33 
ROOT
ATOM      1  C   UNL d   1       7.777 -10.277  -0.068  0.00  0.00     0.068 C 
ENDROOT
BRANCH   1   2
ATOM      2  C   UNL d   1       7.502 -11.724  -0.518  0.00  0.00    -0.048 A 
ATOM      3  C   UNL d   1       8.082 -12.835   0.125  0.00  0.00     0.011 A 
ATOM      4  C   UNL d   1       7.689 -14.138  -0.143  0.00  0.00     0.037 A 
ATOM      5  C   UNL d   1       6.801 -14.382  -1.171  0.00  0.00     0.068 A 
ATOM      6  C   UNL d   1       6.219 -13.310  -1.849  0.00  0.00     0.037 A 
ATOM      7  C   UNL d   1       6.590 -11.995  -1.551  0.00  0.00     0.011 A 
BRANCH   5   8
ATOM      8  O   UNL d   1       6.631 -15.706  -1.442  0.00  0.00    -0.356 OA
ATOM      9  C   UNL d   1       5.955 -15.987  -2.656  0.00  0.00     0.210 C 
ENDBRANCH   5   8
ENDBRANCH   1   2
BRANCH   1  10
ATOM     10  C   UNL d   1       6.547  -9.381  -0.129  0.00  0.00    -0.040 C 
ATOM     11  C   UNL d   1       5.417  -9.646   0.535  0.00  0.00    -0.005 A 
ATOM     12  C   UNL d   1       4.969 -10.805   1.228  0.00  0.00     0.014 A 
ATOM     13  C   UNL d   1       4.724  -8.358   0.664  0.00  0.00     0.038 A 
ATOM     14  C   UNL d   1       3.905 -10.715   2.024  0.00  0.00     0.001 A 
ATOM     15  C   UNL d   1       3.197  -9.460   2.181  0.00  0.00     0.002 A 
ATOM     16  C   UNL d   1       3.546  -8.316   1.552  0.00  0.00     0.030 A 
ATOM     17  N   UNL d   1       5.326  -7.421   0.018  0.00  0.00    -0.385 N 
ATOM     18  C   UNL d   1       6.554  -7.958  -0.626  0.00  0.00     0.155 C 
ATOM     19  H   UNL d   1       5.011  -6.455   0.008  0.00  0.00     0.160 HD
ENDBRANCH   1  10
BRANCH   1  20
ATOM     20  C   UNL d   1       8.315 -10.105   1.421  0.00  0.00     0.136 C 
BRANCH  20  21
ATOM     21  N   UNL d   1       8.038 -11.228   2.336  0.00  0.00    -0.359 N 
ATOM     22  C   UNL d   1       8.664 -11.449   3.541  0.00  0.00     0.227 C 
ATOM     23  O   UNL d   1       9.315 -10.540   4.064  0.00  0.00    -0.273 OA
ATOM     24  H   UNL d   1       7.260 -11.832   2.112  0.00  0.00     0.162 HD
BRANCH  22  25
ATOM     25  C   UNL d   1       8.529 -12.897   4.128  0.00  0.00     0.185 C 
BRANCH  25  26
ATOM     26  S   UNL d   1       9.075 -12.881   5.879  0.00  0.00    -0.081 SA
BRANCH  26  27
ATOM     27  C   UNL d   1       9.021 -14.498   6.462  0.00  0.00     0.187 C 
ATOM     28  N   UNL d   1       9.564 -14.808   7.755  0.00  0.00    -0.315 N 
ATOM     29  C   UNL d   1       9.562 -16.246   7.880  0.00  0.00     0.347 C 
ATOM     30  N   UNL d   1       8.810 -16.583   6.706  0.00  0.00    -0.265 N 
ATOM     31  N   UNL d   1       8.543 -15.543   5.858  0.00  0.00    -0.150 NA
ATOM     32  H   UNL d   1       8.287 -17.455   6.684  0.00  0.00     0.187 HD
BRANCH  28  33
ATOM     33  C   UNL d   1       9.763 -13.872   8.864  0.00  0.00     0.129 C 
BRANCH  33  34
ATOM     34  C   UNL d   1      10.495 -14.500  10.055  0.00  0.00     0.015 C 
ATOM     35  C   UNL d   1      10.748 -13.501  11.176  0.00  0.00     0.006 C 
ENDBRANCH  33  34
ENDBRANCH  28  33
BRANCH  29  36
ATOM     36  O   UNL d   1      10.886 -16.663   7.728  0.00  0.00    -0.358 OA
ATOM     37  H   UNL d   1      11.103 -16.434   6.809  0.00  0.00     0.214 HD
ENDBRANCH  29  36
ENDBRANCH  26  27
ENDBRANCH  25  26
ENDBRANCH  22  25
ENDBRANCH  20  21
ENDBRANCH   1  20
TORSDOF 11
