@<TRIPOS>MOLECULE
*****
 54 56 0 0 0
SMALL
GASTEIGER

@<TRIPOS>ATOM
      1 C           1.1080    0.4820   -0.1397 C.3     1  UNL1       -0.0494
      2 C           2.5830    0.1492   -0.0345 C.3     1  UNL1        0.0093
      3 N           2.9796   -1.2394    0.2821 N.pl3   1  UNL1       -0.3304
      4 C           2.1065   -2.3680    0.6810 C.3     1  UNL1        0.0093
      5 C           0.6022   -2.1761    0.6431 C.3     1  UNL1       -0.0494
      6 C           4.3693   -1.4798    0.4261 C.ar    1  UNL1        0.0297
      7 C           4.9641   -2.6750   -0.0187 C.ar    1  UNL1       -0.0401
      8 C           6.3300   -2.9659    0.1856 C.ar    1  UNL1       -0.0528
      9 C           7.1776   -2.0284    0.7726 C.ar    1  UNL1       -0.0237
     10 C           8.6308   -2.3001    0.9068 C.2     1  UNL1       -0.0357
     11 C           9.2952   -2.3213    2.0737 C.2     1  UNL1        0.0787
     12 S           8.5279   -2.0999    3.5835 S.3     1  UNL1       -0.0595
     13 C          10.0002   -2.2795    4.5199 C.2     1  UNL1        0.1382
     14 S           9.7372   -2.1481    6.1579 S.2     1  UNL1       -0.0257
     15 N          11.0741   -2.5032    3.6524 N.am    1  UNL1       -0.1693
     16 N          12.4801   -2.7162    3.9897 N.am    1  UNL1       -0.2220
     17 C          12.9887   -2.7489    5.2689 C.2     1  UNL1        0.2608
     18 O          12.3836   -2.5429    6.3195 O.2     1  UNL1       -0.2686
     19 C          14.4124   -2.9887    5.5195 C.ar    1  UNL1        0.0419
     20 C          14.7609   -3.6948    6.6858 C.ar    1  UNL1       -0.0459
     21 C          16.0669   -3.6672    7.1634 C.ar    1  UNL1       -0.0158
     22 C          17.0367   -2.9872    6.4302 C.ar    1  UNL1        0.1585
     23 O          18.3418   -3.0265    6.8408 O.3     1  UNL1       -0.5033
     24 C          16.6931   -2.2594    5.2760 C.ar    1  UNL1        0.1620
     25 O          17.6911   -1.5432    4.6649 O.3     1  UNL1       -0.4914
     26 C          17.2896   -0.7511    3.5525 C.3     1  UNL1        0.0790
     27 C          15.3682   -2.2597    4.8285 C.ar    1  UNL1       -0.0042
     28 C          10.7621   -2.5533    2.2809 C.2     1  UNL1        0.2749
     29 O          11.5577   -2.7556    1.3680 O.2     1  UNL1       -0.2675
     30 C           6.6097   -0.8242    1.2045 C.ar    1  UNL1       -0.0528
     31 C           5.2359   -0.5621    1.0392 C.ar    1  UNL1       -0.0401
     32 H           0.9318    1.5189   -0.4354 H       1  UNL1        0.0245
     33 H           0.6211    0.3830    0.8327 H       1  UNL1        0.0245
     34 H           0.6214   -0.1222   -0.9061 H       1  UNL1        0.0245
     35 H           2.9897    0.8493    0.7017 H       1  UNL1        0.0461
     36 H           3.0297    0.4013   -1.0048 H       1  UNL1        0.0461
     37 H           2.3643   -2.6768    1.7025 H       1  UNL1        0.0461
     38 H           2.3066   -3.2220    0.0243 H       1  UNL1        0.0461
     39 H           0.2851   -1.4272    1.3707 H       1  UNL1        0.0245
     40 H           0.0533   -3.0815    0.9133 H       1  UNL1        0.0245
     41 H           0.2673   -1.9341   -0.3671 H       1  UNL1        0.0245
     42 H           4.3764   -3.3976   -0.5781 H       1  UNL1        0.0636
     43 H           6.7110   -3.9397   -0.1130 H       1  UNL1        0.0624
     44 H           9.1553   -2.4832   -0.0277 H       1  UNL1        0.0636
     45 H          13.0770   -2.9011    3.1791 H       1  UNL1        0.1738
     46 H          13.9877   -4.2057    7.2607 H       1  UNL1        0.0626
     47 H          16.2928   -4.1373    8.1167 H       1  UNL1        0.0655
     48 H          18.4307   -3.6679    7.5643 H       1  UNL1        0.2923
     49 H          18.1678   -0.2368    3.1590 H       1  UNL1        0.0660
     50 H          16.5608    0.0116    3.8538 H       1  UNL1        0.0660
     51 H          16.8844   -1.3831    2.7536 H       1  UNL1        0.0660
     52 H          15.0448   -1.6398    4.0030 H       1  UNL1        0.0663
     53 H           7.2168   -0.0762    1.7112 H       1  UNL1        0.0624
     54 H           4.8637    0.3741    1.4429 H       1  UNL1        0.0636
@<TRIPOS>BOND
     1     1     2    1
     2     2     3    1
     3     3     4    1
     4     4     5    1
     5     3     6    1
     6     6     7   ar
     7     7     8   ar
     8     8     9   ar
     9     9    10    1
    10    10    11    2
    11    11    12    1
    12    12    13    1
    13    13    14    2
    14    13    15    1
    15    15    16    1
    16    16    17   am
    17    17    18    2
    18    17    19    1
    19    19    20   ar
    20    20    21   ar
    21    21    22   ar
    22    22    23    1
    23    22    24   ar
    24    24    25    1
    25    25    26    1
    26    24    27   ar
    27    19    27   ar
    28    15    28   am
    29    11    28    1
    30    28    29    2
    31     9    30   ar
    32    30    31   ar
    33     6    31   ar
    34     1    32    1
    35     1    33    1
    36     1    34    1
    37     2    35    1
    38     2    36    1
    39     4    37    1
    40     4    38    1
    41     5    39    1
    42     5    40    1
    43     5    41    1
    44     7    42    1
    45     8    43    1
    46    10    44    1
    47    16    45    1
    48    20    46    1
    49    21    47    1
    50    23    48    1
    51    26    49    1
    52    26    50    1
    53    26    51    1
    54    27    52    1
    55    30    53    1
    56    31    54    1
