REMARK  5 active torsions:
REMARK  status: ('A' for Active; 'I' for Inactive)
REMARK    1  A    between atoms: C_13  and  C_14 
REMARK    2  A    between atoms: C_18  and  O_19 
REMARK    3  A    between atoms: O_19  and  C_20 
REMARK    4  A    between atoms: C_23  and  N_24 
REMARK    5  A    between atoms: C_28  and  N_29 
ROOT
ATOM      1  C   UNL d   1      10.045  -1.149  -0.366  0.00  0.00    -0.014 A 
ATOM      2  C   UNL d   1       9.643  -0.807   0.932  0.00  0.00     0.011 A 
ATOM      3  C   UNL d   1      10.562  -0.818   1.978  0.00  0.00     0.003 A 
ATOM      4  C   UNL d   1      11.869  -1.248   1.750  0.00  0.00     0.037 A 
ATOM      5  C   UNL d   1      12.257  -1.649   0.469  0.00  0.00     0.076 A 
ATOM      6  C   UNL d   1      11.327  -1.648  -0.568  0.00  0.00     0.048 A 
ENDROOT
BRANCH   1   7
ATOM      7  C   UNL d   1       9.180  -0.915  -1.573  0.00  0.00     0.219 C 
ATOM      8  N   UNL d   1       8.745   0.452  -1.627  0.00  0.00    -0.332 N 
ATOM      9  C   UNL d   1       7.511   0.878  -1.270  0.00  0.00     0.256 C 
ATOM     10  H   UNL d   1       9.456   1.173  -1.623  0.00  0.00     0.165 HD
ATOM     11  C   UNL d   1       6.521  -0.161  -1.091  0.00  0.00     0.073 A 
ATOM     12  O   UNL d   1       7.257   2.074  -1.120  0.00  0.00    -0.267 OA
ATOM     13  C   UNL d   1       6.864  -1.482  -1.234  0.00  0.00     0.088 A 
ATOM     14  C   UNL d   1       5.143  -0.005  -0.797  0.00  0.00    -0.023 A 
ATOM     15  S   UNL d   1       5.550  -2.531  -0.942  0.00  0.00    -0.074 SA
ATOM     16  N   UNL d   1       8.102  -1.873  -1.583  0.00  0.00    -0.358 N 
ATOM     17  C   UNL d   1       4.490  -1.218  -0.684  0.00  0.00     0.018 A 
ATOM     18  C   UNL d   1       3.023  -1.364  -0.428  0.00  0.00     0.281 C 
ATOM     19  N   UNL d   1       2.430  -0.023   0.028  0.00  0.00    -0.070 N 
ATOM     20  C   UNL d   1       0.936  -0.030   0.084  0.00  0.00     0.270 C 
ATOM     21  C   UNL d   1       2.937   1.127  -0.835  0.00  0.00     0.239 C 
ATOM     22  H   UNL d   1       2.781   0.133   0.983  0.00  0.00     0.279 HD
ATOM     23  C   UNL d   1       4.440   1.300  -0.644  0.00  0.00     0.068 C 
ATOM     24  H   UNL d   1       8.399  -2.840  -1.486  0.00  0.00     0.162 HD
ENDBRANCH   1   7
BRANCH   5  25
ATOM     25  O   UNL d   1      13.597  -1.900   0.268  0.00  0.00    -0.308 OA
BRANCH  25  26
ATOM     26  C   UNL d   1      14.081  -1.941  -1.025  0.00  0.00     0.109 A 
ATOM     27  C   UNL d   1      14.729  -3.147  -1.349  0.00  0.00     0.042 A 
ATOM     28  C   UNL d   1      15.307  -3.338  -2.608  0.00  0.00     0.039 A 
ATOM     29  C   UNL d   1      15.151  -2.358  -3.592  0.00  0.00     0.105 A 
ATOM     30  C   UNL d   1      14.510  -1.148  -3.293  0.00  0.00     0.075 A 
ATOM     31  C   UNL d   1      14.008  -0.917  -1.995  0.00  0.00     0.139 A 
BRANCH  29  32
ATOM     32  N   UNL d   1      15.610  -2.622  -4.965  0.00  0.00    -0.116 N 
ATOM     33  O   UNL d   1      16.165  -3.705  -5.186  0.00  0.00    -0.532 OA
ATOM     34  O   UNL d   1      15.379  -1.756  -5.820  0.00  0.00    -0.532 OA
ENDBRANCH  29  32
BRANCH  31  35
ATOM     35  N   UNL d   1      13.341   0.385  -1.769  0.00  0.00    -0.113 N 
ATOM     36  O   UNL d   1      13.033   1.039  -2.776  0.00  0.00    -0.532 OA
ATOM     37  O   UNL d   1      13.085   0.751  -0.619  0.00  0.00    -0.532 OA
ENDBRANCH  31  35
ENDBRANCH  25  26
ENDBRANCH   5  25
TORSDOF 5
