REMARK  10 active torsions:
REMARK  status: ('A' for Active; 'I' for Inactive)
REMARK    1  A    between atoms: C_2  and  N_3 
REMARK    2  A    between atoms: C_4  and  S_5 
REMARK    3  A    between atoms: S_5  and  C_6 
REMARK    4  A    between atoms: C_6  and  C_7 
REMARK       I    between atoms: C_7  and  N_9 
REMARK    5  A    between atoms: N_9  and  C_10 
REMARK    6  A    between atoms: CA_19  and  C_18 
REMARK    7  A    between atoms: CA_19  and  N_22 
REMARK    8  A    between atoms: CA_19  and  C_20 
REMARK    9  A    between atoms: C_20  and  O_21 
REMARK       I    between atoms: N_22  and  C_23 
REMARK   10  A    between atoms: C_23  and  C_25 
ROOT
ATOM      1  N   UNL d   1       0.640  -3.411   3.467  0.00  0.00    -0.310 N 
ATOM      2  C   UNL d   1       1.253  -4.269   4.325  0.00  0.00     0.192 A 
ATOM      3  N   UNL d   1       2.264  -4.794   3.663  0.00  0.00    -0.122 NA
ATOM      4  N   UNL d   1       2.292  -4.254   2.367  0.00  0.00    -0.132 NA
ATOM      5  C   UNL d   1       1.294  -3.387   2.219  0.00  0.00     0.155 A 
ENDROOT
BRANCH   5   6
ATOM      6  CA  UNL d   1       0.970  -2.537   0.816  0.00  0.00     0.180 C 
BRANCH   6   7
ATOM      7  N   UNL d   1       0.331  -1.071   0.824  0.00  0.00    -0.343 N 
ATOM      8  C   UNL d   1      -1.006  -0.744   1.243  0.00  0.00     0.254 C 
ATOM      9  O   UNL d   1      -1.858  -1.592   1.305  0.00  0.00    -0.268 OA
ATOM     10  H   UNL d   1       1.005  -0.322   0.901  0.00  0.00     0.163 HD
BRANCH   8  11
ATOM     11  C   UNL d   1      -1.274   0.696   1.895  0.00  0.00     0.053 C 
ATOM     12  C   UNL d   1      -1.741   0.951   3.270  0.00  0.00     0.019 C 
ATOM     13  C   UNL d   1      -1.905   2.212   3.840  0.00  0.00     0.001 C 
ATOM     14  C   UNL d   1      -1.802   3.283   2.995  0.00  0.00     0.002 C 
ATOM     15  C   UNL d   1      -1.399   3.085   1.662  0.00  0.00     0.025 C 
ATOM     16  C   UNL d   1      -1.086   1.821   1.124  0.00  0.00     0.049 C 
ATOM     17 CL   UNL d   1      -0.528   1.738  -0.501  0.00  0.00    -0.083 Cl
ENDBRANCH   8  11
ENDBRANCH   6   7
BRANCH   6  18
ATOM     18  C   UNL d   1       2.326  -2.492   0.010  0.00  0.00     0.197 C 
BRANCH  18  19
ATOM     19  O   UNL d   1       2.472  -1.334  -0.819  0.00  0.00    -0.398 OA
ATOM     20  H   UNL d   1       2.557  -0.561  -0.240  0.00  0.00     0.209 HD
ENDBRANCH  18  19
ENDBRANCH   6  18
ENDBRANCH   5   6
BRANCH   1  21
ATOM     21  C   UNL d   1      -0.310  -2.469   3.882  0.00  0.00     0.128 C 
ATOM     22  C   UNL d   1       0.281  -1.169   3.603  0.00  0.00     0.027 C 
ENDBRANCH   1  21
BRANCH   2  23
ATOM     23  S   UNL d   1       0.820  -4.612   6.005  0.00  0.00    -0.081 SA
BRANCH  23  24
ATOM     24  C   UNL d   1      -0.619  -3.611   6.642  0.00  0.00     0.185 C 
BRANCH  24  25
ATOM     25  C   UNL d   1      -0.994  -3.919   8.088  0.00  0.00     0.227 C 
ATOM     26  O   UNL d   1      -0.309  -4.681   8.782  0.00  0.00    -0.273 OA
ATOM     27  N   UNL d   1      -2.127  -3.270   8.598  0.00  0.00    -0.356 N 
ATOM     28  H   UNL d   1      -2.571  -2.522   8.074  0.00  0.00     0.162 HD
BRANCH  27  29
ATOM     29  C   UNL d   1      -2.582  -3.482   9.994  0.00  0.00     0.084 C 
ATOM     30  C   UNL d   1      -3.907  -2.747  10.313  0.00  0.00     0.025 C 
ATOM     31  C   UNL d   1      -4.449  -3.077  11.715  0.00  0.00     0.002 C 
ATOM     32  C   UNL d   1      -4.591  -4.580  11.932  0.00  0.00     0.000 C 
ATOM     33  C   UNL d   1      -3.269  -5.278  11.674  0.00  0.00     0.002 C 
ATOM     34  C   UNL d   1      -2.758  -4.984  10.275  0.00  0.00     0.025 C 
ENDBRANCH  27  29
ENDBRANCH  24  25
ENDBRANCH  23  24
ENDBRANCH   2  23
TORSDOF 10
