@<TRIPOS>MOLECULE
*****
 54 55 0 0 0
SMALL
GASTEIGER

@<TRIPOS>ATOM
      1 C           0.9620   -0.0514   -0.0683 C.3     1  UNL1       -0.0307
      2 C           2.4783   -0.0385   -0.0708 C.3     1  UNL1        0.0868
      3 O           2.9325   -0.5617   -1.3187 O.3     1  UNL1       -0.4922
      4 C           4.2869   -0.7409   -1.4252 C.ar    1  UNL1        0.1212
      5 C           4.8279   -0.5194   -2.6947 C.ar    1  UNL1       -0.0199
      6 C           6.1658   -0.8084   -2.9380 C.ar    1  UNL1       -0.0576
      7 C           6.9689   -1.2681   -1.8908 C.ar    1  UNL1       -0.0494
      8 C           6.4401   -1.4993   -0.5991 C.ar    1  UNL1        0.0405
      9 C           7.3579   -2.0689    0.4448 C.2     1  UNL1        0.2497
     10 O           8.5200   -2.2484    0.0672 O.2     1  UNL1       -0.2698
     11 N           6.9018   -2.3794    1.7478 N.am    1  UNL1       -0.2627
     12 C           7.6673   -2.9314    2.7980 C.2     1  UNL1        0.1533
     13 S           9.3048   -3.3325    2.7092 S.2     1  UNL1       -0.0170
     14 N           6.9669   -3.1458    3.9970 N.am    1  UNL1       -0.2454
     15 N           7.6623   -3.7326    5.1165 N.am    1  UNL1       -0.2323
     16 C           7.0096   -3.9843    6.3170 C.2     1  UNL1        0.2667
     17 O           5.8220   -3.7047    6.4740 O.2     1  UNL1       -0.2705
     18 C           7.9139   -4.5820    7.4234 C.3     1  UNL1        0.1666
     19 O           7.1971   -4.8496    8.6227 O.3     1  UNL1       -0.4816
     20 C           7.8538   -5.1908    9.7760 C.ar    1  UNL1        0.1351
     21 C           7.0823   -6.0132   10.6267 C.ar    1  UNL1       -0.0186
     22 C           7.5019   -6.3456   11.9251 C.ar    1  UNL1       -0.0548
     23 C           8.7548   -5.9378   12.3838 C.ar    1  UNL1       -0.0435
     24 C           9.3052   -6.4217   13.7191 C.3     1  UNL1       -0.0215
     25 C           9.3667   -7.9550   13.7380 C.3     1  UNL1       -0.0586
     26 C          10.7131   -5.8822   14.0184 C.3     1  UNL1       -0.0586
     27 C           9.5079   -5.1129   11.5406 C.ar    1  UNL1       -0.0408
     28 C           9.0868   -4.7436   10.2554 C.ar    1  UNL1        0.0597
     29 BR         10.3506   -3.6220    9.3827 Br      1  UNL1       -0.0465
     30 C           5.0887   -1.2321   -0.3834 C.ar    1  UNL1       -0.0078
     31 H           0.5776    0.3943    0.8535 H       1  UNL1        0.0262
     32 H           0.5874   -1.0786   -0.1410 H       1  UNL1        0.0262
     33 H           0.5658    0.4983   -0.9267 H       1  UNL1        0.0262
     34 H           2.8096   -0.6402    0.7801 H       1  UNL1        0.0694
     35 H           2.8460    0.9870    0.0395 H       1  UNL1        0.0694
     36 H           4.2065   -0.1264   -3.4972 H       1  UNL1        0.0654
     37 H           6.5796   -0.6971   -3.9390 H       1  UNL1        0.0619
     38 H           8.0222   -1.4610   -2.1007 H       1  UNL1        0.0625
     39 H           5.9297   -2.2098    1.9529 H       1  UNL1        0.1569
     40 H           5.9841   -2.9400    4.1718 H       1  UNL1        0.1718
     41 H           8.6587   -3.9056    4.9732 H       1  UNL1        0.1729
     42 H           8.6681   -3.8168    7.5626 H       1  UNL1        0.0795
     43 H           8.3775   -5.5115    7.0738 H       1  UNL1        0.0795
     44 H           6.1324   -6.4166   10.2762 H       1  UNL1        0.0654
     45 H           6.8456   -6.9332   12.5666 H       1  UNL1        0.0622
     46 H           8.6342   -6.0782   14.5177 H       1  UNL1        0.0343
     47 H          10.0071   -8.3297   12.9304 H       1  UNL1        0.0235
     48 H           8.3771   -8.4054   13.6089 H       1  UNL1        0.0235
     49 H           9.7710   -8.3192   14.6878 H       1  UNL1        0.0235
     50 H          11.4232   -6.1963   13.2415 H       1  UNL1        0.0235
     51 H          11.0947   -6.2466   14.9750 H       1  UNL1        0.0235
     52 H          10.7136   -4.7865   14.0570 H       1  UNL1        0.0235
     53 H          10.4662   -4.7270   11.8764 H       1  UNL1        0.0633
     54 H           4.6459   -1.4410    0.5757 H       1  UNL1        0.0662
@<TRIPOS>BOND
     1     1     2    1
     2     2     3    1
     3     3     4    1
     4     4     5   ar
     5     5     6   ar
     6     6     7   ar
     7     7     8   ar
     8     8     9    1
     9     9    10    2
    10     9    11   am
    11    11    12    1
    12    12    13    2
    13    12    14    1
    14    14    15    1
    15    15    16   am
    16    16    17    2
    17    16    18    1
    18    18    19    1
    19    19    20    1
    20    20    21   ar
    21    21    22   ar
    22    22    23   ar
    23    23    24    1
    24    24    25    1
    25    24    26    1
    26    23    27   ar
    27    27    28   ar
    28    20    28   ar
    29    28    29    1
    30     8    30   ar
    31     4    30   ar
    32     1    31    1
    33     1    32    1
    34     1    33    1
    35     2    34    1
    36     2    35    1
    37     5    36    1
    38     6    37    1
    39     7    38    1
    40    11    39    1
    41    14    40    1
    42    15    41    1
    43    18    42    1
    44    18    43    1
    45    21    44    1
    46    22    45    1
    47    24    46    1
    48    25    47    1
    49    25    48    1
    50    25    49    1
    51    26    50    1
    52    26    51    1
    53    26    52    1
    54    27    53    1
    55    30    54    1
