@<TRIPOS>MOLECULE
*****
 50 52 0 0 0
SMALL
GASTEIGER

@<TRIPOS>ATOM
      1 O           1.0703    0.1528    0.0024 O.2     1  UNL1       -0.2687
      2 C           2.3014    0.0883    0.0429 C.2     1  UNL1        0.2602
      3 N           3.0164    0.1016    1.2320 N.am    1  UNL1       -0.2311
      4 N           2.3708    0.2283    2.5385 N.am    1  UNL1       -0.2453
      5 C           3.1803    0.3059    3.6899 C.2     1  UNL1        0.1533
      6 S           4.8616    0.3017    3.5137 S.2     1  UNL1       -0.0170
      7 N           2.4931    0.3702    4.9295 N.am    1  UNL1       -0.2627
      8 C           3.0904    0.4803    6.2072 C.2     1  UNL1        0.2496
      9 O           4.3026    0.5232    6.4196 O.2     1  UNL1       -0.2698
     10 C           2.2614    0.6033    7.4431 C.ar    1  UNL1        0.0383
     11 C           1.1852   -0.2169    7.7591 C.ar    1  UNL1       -0.0461
     12 C           0.5535   -0.0855    9.0172 C.ar    1  UNL1       -0.0181
     13 C           0.9868    0.8469    9.9908 C.ar    1  UNL1        0.1344
     14 O           0.2208    0.8103   11.1382 O.3     1  UNL1       -0.4905
     15 C           0.5645    1.7401   12.1617 C.3     1  UNL1        0.0936
     16 C          -0.3481    1.6755   13.3758 C.3     1  UNL1        0.0066
     17 C           0.0206    2.7171   14.4134 C.ar    1  UNL1       -0.0442
     18 C           0.2749    2.3434   15.7376 C.ar    1  UNL1       -0.0585
     19 C           0.3561    3.3159   16.7364 C.ar    1  UNL1       -0.0615
     20 C           0.2936    4.6694   16.4079 C.ar    1  UNL1       -0.0617
     21 C           0.1385    5.0547   15.0802 C.ar    1  UNL1       -0.0615
     22 C          -0.0022    4.0843   14.0896 C.ar    1  UNL1       -0.0585
     23 C           2.1022    1.6424    9.6749 C.ar    1  UNL1        0.0602
     24 BR          2.9706    2.9684   10.7490 Br      1  UNL1       -0.0465
     25 C           2.7218    1.5000    8.4219 C.ar    1  UNL1       -0.0321
     26 C           3.0903    0.0105   -1.2416 C.ar    1  UNL1        0.0410
     27 C           2.6869    0.7658   -2.3516 C.ar    1  UNL1       -0.0314
     28 C           3.4092    0.6608   -3.5354 C.ar    1  UNL1        0.0283
     29 N           4.4704   -0.1563   -3.6922 N.ar    1  UNL1       -0.2632
     30 C           4.8247   -0.9014   -2.6242 C.ar    1  UNL1        0.0283
     31 C           4.1819   -0.8502   -1.3901 C.ar    1  UNL1       -0.0314
     32 H           4.0351    0.1691    1.2523 H       1  UNL1        0.1731
     33 H           1.3524    0.2416    2.5126 H       1  UNL1        0.1718
     34 H           1.4838    0.4078    4.9048 H       1  UNL1        0.1569
     35 H           0.8645   -1.0000    7.0793 H       1  UNL1        0.0626
     36 H          -0.2872   -0.7415    9.2502 H       1  UNL1        0.0655
     37 H           0.4757    2.7457   11.7422 H       1  UNL1        0.0700
     38 H           1.5725    1.5145   12.5214 H       1  UNL1        0.0700
     39 H          -0.3216    0.6665   13.8033 H       1  UNL1        0.0346
     40 H          -1.3886    1.8494   13.0768 H       1  UNL1        0.0346
     41 H           0.3765    1.2950   16.0086 H       1  UNL1        0.0620
     42 H           0.4348    3.0160   17.7781 H       1  UNL1        0.0618
     43 H           0.3611    5.4234   17.1871 H       1  UNL1        0.0618
     44 H           0.0826    6.1079   14.8175 H       1  UNL1        0.0618
     45 H          -0.1619    4.4121   13.0652 H       1  UNL1        0.0620
     46 H           3.6151    2.0920    8.2169 H       1  UNL1        0.0637
     47 H           1.8291    1.4281   -2.3075 H       1  UNL1        0.0640
     48 H           3.1486    1.2430   -4.4176 H       1  UNL1        0.0830
     49 H           5.6640   -1.5715   -2.8004 H       1  UNL1        0.0830
     50 H           4.5134   -1.5043   -0.5935 H       1  UNL1        0.0640
@<TRIPOS>BOND
     1     1     2    2
     2     2     3   am
     3     3     4    1
     4     4     5    1
     5     5     6    2
     6     5     7    1
     7     7     8   am
     8     8     9    2
     9     8    10    1
    10    10    11   ar
    11    11    12   ar
    12    12    13   ar
    13    13    14    1
    14    14    15    1
    15    15    16    1
    16    16    17    1
    17    17    18   ar
    18    18    19   ar
    19    19    20   ar
    20    20    21   ar
    21    21    22   ar
    22    17    22   ar
    23    13    23   ar
    24    23    24    1
    25    23    25   ar
    26    10    25   ar
    27     2    26    1
    28    26    27   ar
    29    27    28   ar
    30    28    29   ar
    31    29    30   ar
    32    30    31   ar
    33    26    31   ar
    34     3    32    1
    35     4    33    1
    36     7    34    1
    37    11    35    1
    38    12    36    1
    39    15    37    1
    40    15    38    1
    41    16    39    1
    42    16    40    1
    43    18    41    1
    44    19    42    1
    45    20    43    1
    46    21    44    1
    47    22    45    1
    48    25    46    1
    49    27    47    1
    50    28    48    1
    51    30    49    1
    52    31    50    1
