@<TRIPOS>MOLECULE
*****
 38 40 0 0 0
SMALL
GASTEIGER

@<TRIPOS>ATOM
      1 O           1.0894   -0.2496    0.1858 O.2     1  UNL1       -0.2686
      2 C           2.2978   -0.3720    0.2258 C.2     1  UNL1        0.2627
      3 N           2.9945   -1.5023   -0.2791 N.am    1  UNL1       -0.2324
      4 N           2.2297   -2.5201   -1.0433 N.pl3   1  UNL1       -0.2642
      5 C           2.9645   -3.3871   -1.9288 C.ar    1  UNL1        0.0446
      6 C           4.2114   -3.9066   -1.5754 C.ar    1  UNL1       -0.0367
      7 C           4.9753   -4.6763   -2.4779 C.ar    1  UNL1       -0.0247
      8 C           4.5392   -4.8889   -3.7788 C.ar    1  UNL1        0.1235
      9 F           5.3242   -5.5231   -4.6615 F       1  UNL1       -0.2055
     10 C           3.2982   -4.4271   -4.1651 C.ar    1  UNL1       -0.0247
     11 C           2.4755   -3.7810   -3.2092 C.ar    1  UNL1       -0.0367
     12 C           3.1016    0.7326    0.8870 C.ar    1  UNL1        0.0703
     13 C           2.6438    1.1341    2.1589 C.ar    1  UNL1       -0.0456
     14 C           3.3599    2.0516    2.9342 C.ar    1  UNL1       -0.0428
     15 C           4.5007    2.5991    2.3965 C.ar    1  UNL1        0.0289
     16 N           4.9108    2.3257    1.1441 N.ar    1  UNL1       -0.2477
     17 C           4.2111    1.4192    0.3850 C.ar    1  UNL1        0.1137
     18 S           4.9397    1.3235   -1.2270 S.3     1  UNL1       -0.0692
     19 C           3.7363    0.5939   -2.2853 C.ar    1  UNL1        0.0142
     20 C           4.1476   -0.5124   -3.0168 C.ar    1  UNL1       -0.0479
     21 C           3.2596   -1.1070   -3.8971 C.ar    1  UNL1       -0.0607
     22 C           1.8964   -0.8050   -3.8341 C.ar    1  UNL1       -0.0617
     23 C           1.4605    0.2427   -3.0450 C.ar    1  UNL1       -0.0607
     24 C           2.4000    1.0096   -2.3588 C.ar    1  UNL1       -0.0479
     25 H           3.9739   -1.4085   -0.5162 H       1  UNL1        0.1730
     26 H           1.4045   -2.0912   -1.4741 H       1  UNL1        0.1700
     27 H           4.6079   -3.7106   -0.5862 H       1  UNL1        0.0637
     28 H           5.9313   -5.0886   -2.1758 H       1  UNL1        0.0647
     29 H           3.0137   -4.4889   -5.2166 H       1  UNL1        0.0647
     30 H           1.5112   -3.4446   -3.5812 H       1  UNL1        0.0637
     31 H           1.7280    0.7105    2.5649 H       1  UNL1        0.0626
     32 H           3.0467    2.3109    3.9405 H       1  UNL1        0.0633
     33 H           5.1299    3.2833    2.9631 H       1  UNL1        0.0830
     34 H           5.1098   -0.9942   -2.8331 H       1  UNL1        0.0629
     35 H           3.6246   -1.9365   -4.4910 H       1  UNL1        0.0618
     36 H           1.1577   -1.4516   -4.3024 H       1  UNL1        0.0618
     37 H           0.3953    0.4231   -2.9221 H       1  UNL1        0.0618
     38 H           2.0422    1.8439   -1.7642 H       1  UNL1        0.0629
@<TRIPOS>BOND
     1     1     2    2
     2     2     3   am
     3     3     4    1
     4     4     5    1
     5     5     6   ar
     6     6     7   ar
     7     7     8   ar
     8     8     9    1
     9     8    10   ar
    10    10    11   ar
    11     5    11   ar
    12     2    12    1
    13    12    13   ar
    14    13    14   ar
    15    14    15   ar
    16    15    16   ar
    17    16    17   ar
    18    12    17   ar
    19    17    18    1
    20    18    19    1
    21    19    20   ar
    22    20    21   ar
    23    21    22   ar
    24    22    23   ar
    25    23    24   ar
    26    19    24   ar
    27     3    25    1
    28     4    26    1
    29     6    27    1
    30     7    28    1
    31    10    29    1
    32    11    30    1
    33    13    31    1
    34    14    32    1
    35    15    33    1
    36    20    34    1
    37    21    35    1
    38    22    36    1
    39    23    37    1
    40    24    38    1
