REMARK  7 active torsions:
REMARK  status: ('A' for Active; 'I' for Inactive)
REMARK    1  A    between atoms: O_2  and  C_3 
REMARK    2  A    between atoms: C_6  and  C_7 
REMARK    3  A    between atoms: C_7  and  N_9 
REMARK       I    between atoms: N_9  and  C_10 
REMARK       I    between atoms: C_10  and  N_12 
REMARK    4  A    between atoms: N_12  and  O_13 
REMARK    5  A    between atoms: O_13  and  C_14 
REMARK    6  A    between atoms: C_14  and  C_15 
REMARK    7  A    between atoms: C_22  and  O_23 
ROOT
ATOM      1  N   UNL d   1       4.928  -2.608   5.332  0.00  0.00    -0.333 N 
ATOM      2  C   UNL d   1       5.503  -3.111   6.474  0.00  0.00     0.340 C 
ATOM      3  O   UNL d   1       6.562  -2.673   6.935  0.00  0.00    -0.245 OA
ATOM      4  N   UNL d   1       4.771  -4.118   7.055  0.00  0.00    -0.216 N 
ATOM      5  H   UNL d   1       4.071  -3.038   5.040  0.00  0.00     0.165 HD
ATOM      6  H   UNL d   1       3.933  -4.523   6.663  0.00  0.00     0.199 HD
ENDROOT
BRANCH   1   7
ATOM      7  C   UNL d   1       5.494  -1.487   4.558  0.00  0.00     0.115 C 
ATOM      8  C   UNL d   1       5.566  -0.230   5.441  0.00  0.00     0.037 C 
BRANCH   7   9
ATOM      9  C   UNL d   1       4.704  -1.131   3.288  0.00  0.00    -0.033 A 
ATOM     10  C   UNL d   1       5.087  -0.067   2.459  0.00  0.00     0.012 A 
ATOM     11  C   UNL d   1       4.263   0.369   1.398  0.00  0.00     0.040 A 
ATOM     12  C   UNL d   1       3.068  -0.297   1.052  0.00  0.00     0.101 A 
ATOM     13  C   UNL d   1       2.719  -1.411   1.835  0.00  0.00     0.102 A 
ATOM     14  C   UNL d   1       3.533  -1.794   2.921  0.00  0.00     0.049 A 
BRANCH  12  15
ATOM     15  O   UNL d   1       2.567   0.093  -0.170  0.00  0.00    -0.353 OA
ATOM     16  C   UNL d   1       1.212   0.507  -0.346  0.00  0.00     0.210 C 
ENDBRANCH  12  15
BRANCH  13  17
ATOM     17  O   UNL d   1       1.696  -2.325   1.750  0.00  0.00    -0.353 OA
ATOM     18  C   UNL d   1       0.708  -2.023   0.815  0.00  0.00     0.210 C 
ENDBRANCH  13  17
ENDBRANCH   7   9
ENDBRANCH   1   7
BRANCH   4  19
ATOM     19  O   UNL d   1       5.323  -4.670   8.241  0.00  0.00    -0.272 OA
BRANCH  19  20
ATOM     20  C   UNL d   1       4.516  -5.743   8.726  0.00  0.00     0.240 C 
BRANCH  20  21
ATOM     21  C   UNL d   1       5.047  -6.286  10.034  0.00  0.00    -0.032 A 
ATOM     22  C   UNL d   1       5.011  -7.664  10.300  0.00  0.00     0.009 A 
ATOM     23  C   UNL d   1       5.282  -8.146  11.583  0.00  0.00     0.001 A 
ATOM     24  C   UNL d   1       5.675  -7.268  12.591  0.00  0.00     0.000 A 
ATOM     25  C   UNL d   1       5.765  -5.903  12.326  0.00  0.00     0.001 A 
ATOM     26  C   UNL d   1       5.444  -5.414  11.058  0.00  0.00     0.009 A 
ENDBRANCH  20  21
ENDBRANCH  19  20
ENDBRANCH   4  19
TORSDOF 7
