REMARK  7 active torsions:
REMARK  status: ('A' for Active; 'I' for Inactive)
REMARK       I    between atoms: N_1  and  C_2 
REMARK       I    between atoms: C_2  and  N_4 
REMARK    1  A    between atoms: N_4  and  C_5 
REMARK    2  A    between atoms: C_5  and  C_6 
REMARK    3  A    between atoms: C_9  and  C_10 
REMARK       I    between atoms: C_10  and  N_12 
REMARK    4  A    between atoms: N_12  and  C_13 
REMARK    5  A    between atoms: C_15  and  C_16 
REMARK    6  A    between atoms: C_19  and  N_20 
REMARK       I    between atoms: N_20  and  C_21 
REMARK    7  A    between atoms: C_21  and  C_23 
ROOT
ATOM      1  C   UNL d   1       7.372  -6.159  -6.393  0.00  0.00     0.173 A 
ATOM      2  N   UNL d   1       6.466  -7.008  -6.807  0.00  0.00    -0.223 NA
ATOM      3  C   UNL d   1       6.992  -7.835  -7.786  0.00  0.00     0.076 A 
ATOM      4  C   UNL d   1       8.324  -7.617  -8.081  0.00  0.00     0.085 A 
ATOM      5  S   UNL d   1       8.897  -6.271  -7.158  0.00  0.00    -0.061 SA
ENDROOT
BRANCH   1   6
ATOM      6  N   UNL d   1       7.219  -5.159  -5.453  0.00  0.00    -0.301 N 
ATOM      7  C   UNL d   1       6.329  -5.338  -4.405  0.00  0.00     0.257 C 
ATOM      8  O   UNL d   1       5.776  -6.406  -4.146  0.00  0.00    -0.267 OA
ATOM      9  H   UNL d   1       7.823  -4.359  -5.532  0.00  0.00     0.171 HD
BRANCH   7  10
ATOM     10  C   UNL d   1       6.037  -4.179  -3.485  0.00  0.00     0.032 A 
ATOM     11  C   UNL d   1       5.116  -4.399  -2.443  0.00  0.00     0.017 A 
ATOM     12  C   UNL d   1       4.646  -3.348  -1.646  0.00  0.00     0.010 A 
ATOM     13  C   UNL d   1       5.128  -2.047  -1.821  0.00  0.00    -0.040 A 
ATOM     14  C   UNL d   1       6.114  -1.838  -2.799  0.00  0.00     0.010 A 
ATOM     15  C   UNL d   1       6.558  -2.889  -3.631  0.00  0.00     0.017 A 
BRANCH  13  16
ATOM     16  C   UNL d   1       4.637  -0.930  -0.923  0.00  0.00     0.162 C 
BRANCH  16  17
ATOM     17  N   UNL d   1       3.188  -0.857  -0.864  0.00  0.00    -0.339 N 
ATOM     18  C   UNL d   1       2.555   0.054  -0.083  0.00  0.00     0.314 C 
ATOM     19  N   UNL d   1       1.206  -0.015  -0.132  0.00  0.00    -0.352 N 
ATOM     20  O   UNL d   1       3.121   0.886   0.623  0.00  0.00    -0.248 OA
ATOM     21  H   UNL d   1       0.691   0.648   0.432  0.00  0.00     0.160 HD
ATOM     22  H   UNL d   1       0.689  -0.681  -0.683  0.00  0.00     0.160 HD
ATOM     23  H   UNL d   1       2.639  -1.492  -1.422  0.00  0.00     0.164 HD
ENDBRANCH  16  17
ENDBRANCH  13  16
ENDBRANCH   7  10
ENDBRANCH   1   6
BRANCH   3  24
ATOM     24  C   UNL d   1       6.129  -8.720  -8.551  0.00  0.00    -0.007 A 
ATOM     25  C   UNL d   1       6.298 -10.106  -8.630  0.00  0.00     0.016 A 
ATOM     26  C   UNL d   1       5.432 -10.890  -9.430  0.00  0.00     0.030 A 
ATOM     27  C   UNL d   1       4.350 -10.302 -10.105  0.00  0.00     0.035 A 
ATOM     28  C   UNL d   1       4.218  -8.915 -10.025  0.00  0.00     0.030 A 
ATOM     29  C   UNL d   1       5.083  -8.136  -9.260  0.00  0.00     0.016 A 
BRANCH  27  30
ATOM     30  N   UNL d   1       3.404 -11.108 -10.804  0.00  0.00    -0.323 N 
ATOM     31  C   UNL d   1       2.272 -10.620 -11.455  0.00  0.00     0.256 C 
ATOM     32  O   UNL d   1       1.939  -9.444 -11.580  0.00  0.00    -0.267 OA
ATOM     33  H   UNL d   1       3.554 -12.110 -10.789  0.00  0.00     0.169 HD
BRANCH  31  34
ATOM     34  C   UNL d   1       1.339 -11.597 -12.061  0.00  0.00     0.032 A 
ATOM     35  C   UNL d   1       0.744 -11.275 -13.294  0.00  0.00     0.017 A 
ATOM     36  C   UNL d   1      -0.289 -12.062 -13.804  0.00  0.00     0.001 A 
ATOM     37  C   UNL d   1      -0.692 -13.202 -13.113  0.00  0.00     0.000 A 
ATOM     38  C   UNL d   1      -0.105 -13.522 -11.885  0.00  0.00     0.001 A 
ATOM     39  C   UNL d   1       0.901 -12.714 -11.349  0.00  0.00     0.017 A 
ENDBRANCH  31  34
ENDBRANCH  27  30
ENDBRANCH   3  24
TORSDOF 7
