@<TRIPOS>MOLECULE
*****
 49 51 0 0 0
SMALL
GASTEIGER

@<TRIPOS>ATOM
      1 C           2.4406   -0.3627    0.4764 C.3     1  UNL1       -0.0379
      2 C           0.9835   -0.1108    0.2158 C.ar    1  UNL1       -0.0288
      3 C           0.2027   -1.2738    0.1185 C.ar    1  UNL1       -0.0507
      4 C          -1.1773   -1.2107    0.0256 C.ar    1  UNL1        0.0160
      5 C          -1.8010    0.0375    0.0149 C.ar    1  UNL1        0.2749
      6 N          -3.2693    0.0738   -0.0448 N.pl3   1  UNL1        0.0797
      7 O          -3.8662   -1.0149   -0.1007 O.2     1  UNL1        0.0414
      8 O          -3.8250    1.1778   -0.0674 O.co2   1  UNL1       -0.5760
      9 C          -1.0406    1.2251    0.0257 C.ar    1  UNL1        0.0370
     10 C           0.3726    1.1597    0.0696 C.ar    1  UNL1        0.0430
     11 N           1.0876    2.3906   -0.0492 N.am    1  UNL1       -0.2811
     12 C           2.4644    2.6031   -0.1672 C.2     1  UNL1        0.2483
     13 O           3.0275    3.3893    0.5727 O.2     1  UNL1       -0.2699
     14 C           3.2484    1.8836   -1.2449 C.ar    1  UNL1        0.0388
     15 C           4.6308    1.7121   -1.1124 C.ar    1  UNL1       -0.0495
     16 C           5.2861    0.7619   -1.9141 C.ar    1  UNL1       -0.0593
     17 C           4.5618   -0.0608   -2.8055 C.ar    1  UNL1       -0.0404
     18 C           3.1731    0.0883   -2.9294 C.ar    1  UNL1        0.0341
     19 N           2.3869   -0.8733   -3.6478 N.am    1  UNL1       -0.2854
     20 C           0.9948   -0.9417   -3.5900 C.2     1  UNL1        0.2189
     21 O           0.2662   -0.2771   -2.8672 O.2     1  UNL1       -0.2754
     22 C           0.3175   -1.9222   -4.5138 C.3     1  UNL1        0.0424
     23 C          -1.2059   -1.7629   -4.3300 C.3     1  UNL1        0.0364
     24 N          -1.9479   -2.6517   -5.2321 N.ar    1  UNL1       -0.2953
     25 C          -2.8721   -2.2700   -6.1994 C.ar    1  UNL1        0.0732
     26 C          -3.2261   -3.4087   -6.8670 C.ar    1  UNL1        0.1870
     27 N          -2.5574   -4.4415   -6.2523 N.ar    1  UNL1       -0.2011
     28 C          -1.8334   -3.9876   -5.2293 C.ar    1  UNL1        0.2463
     29 C           2.5694    1.1406   -2.2251 C.ar    1  UNL1       -0.0284
     30 H           2.6715   -1.4130    0.6606 H       1  UNL1        0.0278
     31 H           2.8312    0.2595    1.2829 H       1  UNL1        0.0278
     32 H           3.0191   -0.2141   -0.4101 H       1  UNL1        0.0278
     33 H           0.6917   -2.2450    0.1175 H       1  UNL1        0.0623
     34 H          -1.7386   -2.1400   -0.0139 H       1  UNL1        0.0685
     35 H          -1.5512    2.1868   -0.0275 H       1  UNL1        0.0704
     36 H           0.5819    3.2336    0.2079 H       1  UNL1        0.1551
     37 H           5.1780    2.2271   -0.3226 H       1  UNL1        0.0625
     38 H           6.3575    0.6082   -1.7786 H       1  UNL1        0.0618
     39 H           5.1059   -0.8418   -3.3331 H       1  UNL1        0.0636
     40 H           2.9016   -1.5971   -4.1381 H       1  UNL1        0.1548
     41 H           0.6214   -2.9448   -4.2714 H       1  UNL1        0.0376
     42 H           0.5868   -1.6997   -5.5495 H       1  UNL1        0.0376
     43 H          -1.5251   -0.7295   -4.5239 H       1  UNL1        0.0498
     44 H          -1.5178   -2.0073   -3.3047 H       1  UNL1        0.0498
     45 H          -3.1423   -1.2320   -6.3095 H       1  UNL1        0.0871
     46 H          -3.8663   -3.6265   -7.7033 H       1  UNL1        0.1392
     47 H          -2.6095   -5.4210   -6.5205 H       1  UNL1        0.4538
     48 H          -1.2269   -4.5796   -4.5541 H       1  UNL1        0.1600
     49 H           1.4996    1.2628   -2.2522 H       1  UNL1        0.0644
@<TRIPOS>UNITY_ATOM_ATTR
6 1
charge 1
8 1
charge -1
27 1
charge 1
@<TRIPOS>BOND
     1     1     2    1
     2     2     3   ar
     3     3     4   ar
     4     4     5   ar
     5     5     6    1
     6     6     7    2
     7     6     8    1
     8     5     9   ar
     9     9    10   ar
    10     2    10   ar
    11    10    11    1
    12    11    12   am
    13    12    13    2
    14    12    14    1
    15    14    15   ar
    16    15    16   ar
    17    16    17   ar
    18    17    18   ar
    19    18    19    1
    20    19    20   am
    21    20    21    2
    22    20    22    1
    23    22    23    1
    24    23    24    1
    25    24    25   ar
    26    25    26   ar
    27    26    27   ar
    28    27    28   ar
    29    24    28   ar
    30    18    29   ar
    31    14    29   ar
    32     1    30    1
    33     1    31    1
    34     1    32    1
    35     3    33    1
    36     4    34    1
    37     9    35    1
    38    11    36    1
    39    15    37    1
    40    16    38    1
    41    17    39    1
    42    19    40    1
    43    22    41    1
    44    22    42    1
    45    23    43    1
    46    23    44    1
    47    25    45    1
    48    26    46    1
    49    27    47    1
    50    28    48    1
    51    29    49    1
