@<TRIPOS>MOLECULE
*****
 51 53 0 0 0
SMALL
GASTEIGER

@<TRIPOS>ATOM
      1 O           1.1553   -0.0304   -0.1020 O.2     1  UNL1       -0.2723
      2 C           2.3806    0.0645    0.0144 C.2     1  UNL1        0.2488
      3 C           3.0551    0.9486    1.0388 C.3     1  UNL1        0.1009
      4 N           2.1398    1.7136    1.8922 N.ar    1  UNL1       -0.3378
      5 C           1.1872    1.1454    2.7079 C.ar    1  UNL1        0.0062
      6 C           0.5499    2.1490    3.3976 C.ar    1  UNL1       -0.0364
      7 C           1.1533    3.3765    3.0267 C.ar    1  UNL1       -0.0001
      8 C           0.9271    4.7125    3.4153 C.ar    1  UNL1       -0.0526
      9 C           1.7057    5.7319    2.8655 C.ar    1  UNL1       -0.0611
     10 C           2.6950    5.4330    1.9346 C.ar    1  UNL1       -0.0598
     11 C           2.9368    4.1131    1.5284 C.ar    1  UNL1       -0.0376
     12 C           2.1525    3.0879    2.0868 C.ar    1  UNL1        0.0495
     13 N           3.1696   -0.6862   -0.8292 N.am    1  UNL1       -0.2337
     14 N           4.5992   -0.7679   -0.9263 N.am    1  UNL1       -0.2455
     15 C           5.1384   -1.6227   -1.9156 C.2     1  UNL1        0.1530
     16 S           4.0941   -2.4908   -2.9227 S.2     1  UNL1       -0.0170
     17 N           6.5547   -1.6683   -1.9684 N.am    1  UNL1       -0.2667
     18 C           7.3186   -2.4393   -2.8652 C.2     1  UNL1        0.2186
     19 O           6.8165   -3.1773   -3.7182 O.2     1  UNL1       -0.2754
     20 C           8.8528   -2.3750   -2.7921 C.3     1  UNL1        0.0274
     21 C           9.4637   -3.3113   -3.8781 C.3     1  UNL1       -0.0104
     22 C          10.9933   -3.3572   -3.9029 C.3     1  UNL1        0.0901
     23 O          11.4259   -4.2803   -4.9228 O.3     1  UNL1       -0.4905
     24 C          12.7902   -4.3689   -5.0790 C.ar    1  UNL1        0.1388
     25 C          13.6526   -4.4976   -3.9861 C.ar    1  UNL1       -0.0171
     26 C          15.0382   -4.4728   -4.1722 C.ar    1  UNL1       -0.0398
     27 C          15.5657   -4.4515   -5.4604 C.ar    1  UNL1        0.0426
     28 CL         17.2696   -4.3593   -5.6816 Cl      1  UNL1       -0.0835
     29 C          14.7205   -4.4817   -6.5649 C.ar    1  UNL1       -0.0215
     30 C          13.3360   -4.3941   -6.3735 C.ar    1  UNL1        0.0839
     31 CL         12.3369   -4.2497   -7.7751 Cl      1  UNL1       -0.0797
     32 H           3.7042    1.6502    0.5111 H       1  UNL1        0.0588
     33 H           3.6559    0.3258    1.7095 H       1  UNL1        0.0588
     34 H           1.0064    0.0783    2.7055 H       1  UNL1        0.0809
     35 H          -0.2674    2.0208    4.0953 H       1  UNL1        0.0639
     36 H           0.1511    4.9476    4.1385 H       1  UNL1        0.0624
     37 H           1.5315    6.7618    3.1676 H       1  UNL1        0.0618
     38 H           3.2868    6.2418    1.5116 H       1  UNL1        0.0618
     39 H           3.7083    3.9107    0.7946 H       1  UNL1        0.0638
     40 H           2.6530   -1.2648   -1.5001 H       1  UNL1        0.1728
     41 H           5.1543   -0.2215   -0.2803 H       1  UNL1        0.1718
     42 H           7.0677   -1.0999   -1.3093 H       1  UNL1        0.1565
     43 H           9.1892   -2.7004   -1.8019 H       1  UNL1        0.0359
     44 H           9.1907   -1.3481   -2.9659 H       1  UNL1        0.0359
     45 H           9.1035   -3.0150   -4.8734 H       1  UNL1        0.0302
     46 H           9.0904   -4.3358   -3.7361 H       1  UNL1        0.0302
     47 H          11.3412   -3.6872   -2.9206 H       1  UNL1        0.0696
     48 H          11.3880   -2.3594   -4.1254 H       1  UNL1        0.0696
     49 H          13.2665   -4.6267   -2.9805 H       1  UNL1        0.0655
     50 H          15.6987   -4.4749   -3.3086 H       1  UNL1        0.0633
     51 H          15.1371   -4.5479   -7.5669 H       1  UNL1        0.0648
@<TRIPOS>BOND
     1     1     2    2
     2     2     3    1
     3     3     4    1
     4     4     5   ar
     5     5     6   ar
     6     6     7   ar
     7     7     8   ar
     8     8     9   ar
     9     9    10   ar
    10    10    11   ar
    11    11    12   ar
    12     7    12   ar
    13     4    12   ar
    14     2    13   am
    15    13    14    1
    16    14    15    1
    17    15    16    2
    18    15    17    1
    19    17    18   am
    20    18    19    2
    21    18    20    1
    22    20    21    1
    23    21    22    1
    24    22    23    1
    25    23    24    1
    26    24    25   ar
    27    25    26   ar
    28    26    27   ar
    29    27    28    1
    30    27    29   ar
    31    29    30   ar
    32    24    30   ar
    33    30    31    1
    34     3    32    1
    35     3    33    1
    36     5    34    1
    37     6    35    1
    38     8    36    1
    39     9    37    1
    40    10    38    1
    41    11    39    1
    42    13    40    1
    43    14    41    1
    44    17    42    1
    45    20    43    1
    46    20    44    1
    47    21    45    1
    48    21    46    1
    49    22    47    1
    50    22    48    1
    51    25    49    1
    52    26    50    1
    53    29    51    1
