REMARK  8 active torsions:
REMARK  status: ('A' for Active; 'I' for Inactive)
REMARK    1  A    between atoms: C_2  and  O_3 
REMARK    2  A    between atoms: O_3  and  C_4 
REMARK    3  A    between atoms: C_4  and  C_6 
REMARK    4  A    between atoms: C_9  and  N_10 
REMARK    5  A    between atoms: N_10  and  C_11 
REMARK    6  A    between atoms: C_11  and  N_13 
REMARK    7  A    between atoms: N_13  and  N_14 
REMARK       I    between atoms: N_14  and  C_15 
REMARK    8  A    between atoms: C_15  and  C_17 
ROOT
ATOM      1  C   UNL d   1       6.040  -7.038   4.013  0.00  0.00     0.191 C 
ATOM      2  S   UNL d   1       4.596  -7.618   3.342  0.00  0.00    -0.039 SA
ENDROOT
BRANCH   1   3
ATOM      3  N   UNL d   1       6.604  -5.731   3.885  0.00  0.00    -0.332 N 
ATOM      4  H   UNL d   1       7.464  -5.540   4.393  0.00  0.00     0.168 HD
BRANCH   3   5
ATOM      5  C   UNL d   1       6.059  -4.554   3.188  0.00  0.00     0.034 A 
ATOM      6  C   UNL d   1       6.675  -3.284   3.227  0.00  0.00     0.030 A 
ATOM      7  C   UNL d   1       6.068  -2.141   2.607  0.00  0.00     0.020 A 
ATOM      8  C   UNL d   1       4.869  -2.251   1.882  0.00  0.00     0.039 A 
ATOM      9  C   UNL d   1       4.266  -3.490   1.828  0.00  0.00     0.020 A 
ATOM     10  C   UNL d   1       4.877  -4.594   2.442  0.00  0.00     0.030 A 
BRANCH   8  11
ATOM     11  C   UNL d   1       4.379  -1.158   0.997  0.00  0.00     0.293 C 
ATOM     12  O   UNL d   1       5.162  -0.408   0.414  0.00  0.00    -0.259 OA
BRANCH  11  13
ATOM     13  O   UNL d   1       3.023  -1.130   0.875  0.00  0.00    -0.318 OA
BRANCH  13  14
ATOM     14  C   UNL d   1       2.537  -0.109  -0.024  0.00  0.00     0.174 C 
ATOM     15  C   UNL d   1       1.015  -0.094  -0.043  0.00  0.00     0.034 C 
ENDBRANCH  13  14
ENDBRANCH  11  13
ENDBRANCH   8  11
ENDBRANCH   3   5
ENDBRANCH   1   3
BRANCH   1  16
ATOM     16  N   UNL d   1       6.774  -7.973   4.792  0.00  0.00    -0.273 N 
ATOM     17  H   UNL d   1       7.627  -7.790   5.317  0.00  0.00     0.189 HD
BRANCH  16  18
ATOM     18  N   UNL d   1       6.201  -9.362   4.928  0.00  0.00    -0.262 N 
ATOM     19  C   UNL d   1       6.728 -10.386   5.731  0.00  0.00     0.289 C 
ATOM     20  O   UNL d   1       7.756 -10.175   6.374  0.00  0.00    -0.264 OA
ATOM     21  H   UNL d   1       5.289  -9.443   4.482  0.00  0.00     0.190 HD
BRANCH  19  22
ATOM     22  C   UNL d   1       6.018 -11.700   5.747  0.00  0.00     0.141 A 
ATOM     23  C   UNL d   1       5.790 -12.630   6.772  0.00  0.00     0.070 A 
ATOM     24 BR   UNL d   1       6.203 -12.462   8.597  0.00  0.00    -0.046 Br
ATOM     25  C   UNL d   1       5.142 -13.780   6.218  0.00  0.00     0.070 A 
ATOM     26  C   UNL d   1       4.634 -15.074   6.808  0.00  0.00     0.074 C 
ATOM     27  N   UNL d   1       4.986 -13.593   4.904  0.00  0.00    -0.176 NA
ATOM     28  N   UNL d   1       5.513 -12.374   4.651  0.00  0.00    -0.267 N 
ATOM     29  C   UNL d   1       5.542 -11.949   3.272  0.00  0.00     0.180 C 
ENDBRANCH  19  22
ENDBRANCH  16  18
ENDBRANCH   1  16
TORSDOF 8
