@<TRIPOS>MOLECULE
*****
 38 39 0 0 0
SMALL
GASTEIGER

@<TRIPOS>ATOM
      1 C           2.4887    1.1820   -0.0006 C.3     1  UNL1       -0.0396
      2 C           1.2462    0.3369    0.0041 C.ar    1  UNL1       -0.0470
      3 C           1.2949   -1.0599    0.0180 C.ar    1  UNL1       -0.0579
      4 C           0.1121   -1.8268   -0.0001 C.ar    1  UNL1       -0.0458
      5 C          -1.1528   -1.2152   -0.0213 C.ar    1  UNL1        0.0795
      6 C          -2.4383   -2.0103   -0.0581 C.2     1  UNL1        0.2637
      7 O          -3.5191   -1.4008   -0.0724 O.2     1  UNL1       -0.2685
      8 N          -2.3852   -3.3956   -0.0789 N.am    1  UNL1       -0.2303
      9 N          -3.5866   -4.1828   -0.1302 N.am    1  UNL1       -0.2341
     10 C          -3.4371   -5.5579   -0.1409 C.2     1  UNL1        0.2296
     11 O          -2.2938   -6.0269   -0.0744 O.2     1  UNL1       -0.2743
     12 C          -4.7096   -6.4568   -0.2422 C.3     1  UNL1        0.0316
     13 C          -4.2346   -7.9398   -0.2555 C.3     1  UNL1       -0.0143
     14 C          -4.1214   -8.4912    1.1389 C.2     1  UNL1       -0.0844
     15 C          -4.2290   -9.8219    1.1680 C.2     1  UNL1       -0.0876
     16 C          -4.4988  -10.3787   -0.1875 C.3     1  UNL1       -0.0342
     17 C          -4.9000   -9.1212   -1.0007 C.3     1  UNL1       -0.0429
     18 C          -1.1832    0.1953   -0.0124 C.ar    1  UNL1        0.1292
     19 O          -2.3387    0.9354   -0.0051 O.3     1  UNL1       -0.5060
     20 C          -0.0055    0.9563   -0.0071 C.ar    1  UNL1       -0.0165
     21 H           3.3997    0.5747    0.0032 H       1  UNL1        0.0278
     22 H           2.5108    1.8273    0.8843 H       1  UNL1        0.0278
     23 H           2.5116    1.8128   -0.8963 H       1  UNL1        0.0278
     24 H           2.2568   -1.5709    0.0404 H       1  UNL1        0.0620
     25 H           0.2252   -2.9049    0.0032 H       1  UNL1        0.0626
     26 H          -1.5260   -3.9457   -0.0702 H       1  UNL1        0.1731
     27 H          -4.4694   -3.6791   -0.1469 H       1  UNL1        0.1728
     28 H          -5.2715   -6.1916   -1.1438 H       1  UNL1        0.0365
     29 H          -5.3484   -6.2399    0.6282 H       1  UNL1        0.0365
     30 H          -3.2466   -7.9261   -0.7214 H       1  UNL1        0.0348
     31 H          -3.9146   -7.8837    2.0092 H       1  UNL1        0.0572
     32 H          -4.0964  -10.4246    2.0565 H       1  UNL1        0.0569
     33 H          -5.2970  -11.1264   -0.1613 H       1  UNL1        0.0307
     34 H          -3.5918  -10.8568   -0.5800 H       1  UNL1        0.0307
     35 H          -5.9885   -9.0610   -1.1038 H       1  UNL1        0.0274
     36 H          -4.4801   -9.2213   -2.0111 H       1  UNL1        0.0274
     37 H          -3.0996    0.3164   -0.0005 H       1  UNL1        0.2922
     38 H          -0.0701    2.0435   -0.0120 H       1  UNL1        0.0657
@<TRIPOS>BOND
     1     1     2    1
     2     2     3   ar
     3     3     4   ar
     4     4     5   ar
     5     5     6    1
     6     6     7    2
     7     6     8   am
     8     8     9    1
     9     9    10   am
    10    10    11    2
    11    10    12    1
    12    12    13    1
    13    13    14    1
    14    14    15    2
    15    15    16    1
    16    16    17    1
    17    13    17    1
    18     5    18   ar
    19    18    19    1
    20    18    20   ar
    21     2    20   ar
    22     1    21    1
    23     1    22    1
    24     1    23    1
    25     3    24    1
    26     4    25    1
    27     8    26    1
    28     9    27    1
    29    12    28    1
    30    12    29    1
    31    13    30    1
    32    14    31    1
    33    15    32    1
    34    16    33    1
    35    16    34    1
    36    17    35    1
    37    17    36    1
    38    19    37    1
    39    20    38    1
