@<TRIPOS>MOLECULE
*****
 32 33 0 0 0
SMALL
GASTEIGER

@<TRIPOS>ATOM
      1 C           2.4950   -0.0088   -0.0052 C.3     1  UNL1       -0.0397
      2 C           0.9964   -0.0056    0.0159 C.ar    1  UNL1       -0.0487
      3 C           0.2658   -1.1943    0.0262 C.ar    1  UNL1       -0.0587
      4 C          -1.1262   -1.1505    0.0126 C.ar    1  UNL1       -0.0597
      5 C          -1.7912    0.0833   -0.0437 C.ar    1  UNL1       -0.0394
      6 C          -1.0774    1.2970   -0.0710 C.ar    1  UNL1        0.0447
      7 N          -1.7729    2.5178   -0.3417 N.pl3   1  UNL1       -0.2642
      8 N          -1.0978    3.7123    0.1186 N.am    1  UNL1       -0.2324
      9 C          -1.8226    4.9032    0.0846 C.2     1  UNL1        0.2637
     10 O          -1.4206    5.8547   -0.5918 O.2     1  UNL1       -0.2685
     11 C          -3.0125    5.0792    0.9826 C.ar    1  UNL1        0.0808
     12 C          -3.7003    6.3114    0.9637 C.ar    1  UNL1       -0.0277
     13 C          -4.7690    6.5307    1.8393 C.ar    1  UNL1        0.0419
     14 CL         -5.6021    8.0378    1.8432 Cl      1  UNL1       -0.0835
     15 C          -5.1720    5.5379    2.7306 C.ar    1  UNL1       -0.0399
     16 C          -4.5000    4.3214    2.7603 C.ar    1  UNL1       -0.0180
     17 C          -3.4210    4.1056    1.9088 C.ar    1  UNL1        0.1291
     18 O          -2.7642    2.9175    2.0203 O.3     1  UNL1       -0.5060
     19 C           0.3190    1.2240   -0.0245 C.ar    1  UNL1       -0.0365
     20 H           2.8970   -1.0260    0.0053 H       1  UNL1        0.0278
     21 H           2.8835    0.5226    0.8691 H       1  UNL1        0.0278
     22 H           2.8517    0.4862   -0.9148 H       1  UNL1        0.0278
     23 H           0.7753   -2.1556    0.0244 H       1  UNL1        0.0620
     24 H          -1.6902   -2.0809    0.0100 H       1  UNL1        0.0618
     25 H          -2.8777    0.0772   -0.0883 H       1  UNL1        0.0636
     26 H          -2.7068    2.4551    0.0726 H       1  UNL1        0.1700
     27 H          -0.2044    3.8228   -0.3473 H       1  UNL1        0.1730
     28 H          -3.3927    7.1109    0.2895 H       1  UNL1        0.0641
     29 H          -5.9983    5.7062    3.4158 H       1  UNL1        0.0633
     30 H          -4.8088    3.5529    3.4612 H       1  UNL1        0.0655
     31 H          -3.1636    2.3265    2.6746 H       1  UNL1        0.2922
     32 H           0.9161    2.1284   -0.0458 H       1  UNL1        0.0639
@<TRIPOS>BOND
     1     1     2    1
     2     2     3   ar
     3     3     4   ar
     4     4     5   ar
     5     5     6   ar
     6     6     7    1
     7     7     8    1
     8     8     9   am
     9     9    10    2
    10     9    11    1
    11    11    12   ar
    12    12    13   ar
    13    13    14    1
    14    13    15   ar
    15    15    16   ar
    16    16    17   ar
    17    11    17   ar
    18    17    18    1
    19     6    19   ar
    20     2    19   ar
    21     1    20    1
    22     1    21    1
    23     1    22    1
    24     3    23    1
    25     4    24    1
    26     5    25    1
    27     7    26    1
    28     8    27    1
    29    12    28    1
    30    15    29    1
    31    16    30    1
    32    18    31    1
    33    19    32    1
