@<TRIPOS>MOLECULE
*****
 35 37 0 0 0
SMALL
GASTEIGER

@<TRIPOS>ATOM
      1 C           2.3070   -0.1590    0.0153 C.3     1  UNL1       -0.0334
      2 C           0.8201   -0.3024    0.0163 C.ar    1  UNL1       -0.0130
      3 C           0.0980   -1.4724   -0.0012 C.ar    1  UNL1       -0.0515
      4 C          -1.3056   -1.2467    0.0038 C.ar    1  UNL1       -0.0495
      5 C          -1.6525    0.0930    0.0279 C.ar    1  UNL1        0.0100
      6 C          -3.0385    0.7501    0.0215 C.3     1  UNL1        0.0520
      7 C          -3.2016    1.6413   -1.2174 C.3     1  UNL1       -0.0420
      8 N          -4.0965   -0.2797    0.0785 N.am    1  UNL1       -0.3043
      9 C          -5.4455    0.0171    0.1025 C.2     1  UNL1        0.2452
     10 O          -5.8930    1.1606    0.1138 O.2     1  UNL1       -0.2702
     11 C          -6.3945   -1.1300    0.0811 C.ar    1  UNL1        0.0473
     12 C          -6.2250   -2.2442    0.9233 C.ar    1  UNL1       -0.0489
     13 C          -7.1668   -3.2818    0.9435 C.ar    1  UNL1       -0.0590
     14 C          -8.3000   -3.2559    0.1243 C.ar    1  UNL1       -0.0363
     15 C          -8.4518   -2.1436   -0.7065 C.ar    1  UNL1        0.0665
     16 N          -9.4331   -1.8182   -1.6072 N.ar    1  UNL1       -0.2769
     17 N          -9.2379   -0.6437   -2.2271 N.ar    1  UNL1       -0.1812
     18 C          -8.0989   -0.1944   -1.6901 C.ar    1  UNL1        0.0576
     19 C          -7.5431   -1.0860   -0.7417 C.ar    1  UNL1        0.0316
     20 S          -0.2133    1.0621    0.0617 S.2     1  UNL1       -0.0966
     21 H           2.7858   -1.1462    0.0031 H       1  UNL1        0.0283
     22 H           2.6538    0.3603    0.9140 H       1  UNL1        0.0283
     23 H           2.6576    0.3839   -0.8682 H       1  UNL1        0.0283
     24 H           0.5527   -2.4549   -0.0171 H       1  UNL1        0.0626
     25 H          -2.0165   -2.0581   -0.0128 H       1  UNL1        0.0626
     26 H          -3.1467    1.3630    0.9265 H       1  UNL1        0.0551
     27 H          -3.0880    1.0569   -2.1366 H       1  UNL1        0.0251
     28 H          -2.4643    2.4511   -1.2360 H       1  UNL1        0.0251
     29 H          -4.1834    2.1205   -1.2514 H       1  UNL1        0.0251
     30 H          -3.8333   -1.2486    0.0033 H       1  UNL1        0.1496
     31 H          -5.3801   -2.2897    1.6052 H       1  UNL1        0.0625
     32 H          -7.0292   -4.1225    1.6217 H       1  UNL1        0.0618
     33 H          -9.0323   -4.0583    0.1457 H       1  UNL1        0.0639
     34 H         -10.2579   -2.3578   -1.8469 H       1  UNL1        0.1889
     35 H          -7.7092    0.7630   -2.0118 H       1  UNL1        0.0854
@<TRIPOS>BOND
     1     1     2    1
     2     2     3   ar
     3     3     4   ar
     4     4     5   ar
     5     5     6    1
     6     6     7    1
     7     6     8    1
     8     8     9   am
     9     9    10    2
    10     9    11    1
    11    11    12   ar
    12    12    13   ar
    13    13    14   ar
    14    14    15   ar
    15    15    16   ar
    16    16    17   ar
    17    17    18   ar
    18    18    19   ar
    19    11    19   ar
    20    15    19   ar
    21     5    20   ar
    22     2    20   ar
    23     1    21    1
    24     1    22    1
    25     1    23    1
    26     3    24    1
    27     4    25    1
    28     6    26    1
    29     7    27    1
    30     7    28    1
    31     7    29    1
    32     8    30    1
    33    12    31    1
    34    13    32    1
    35    14    33    1
    36    16    34    1
    37    18    35    1
