REMARK  12 active torsions:
REMARK  status: ('A' for Active; 'I' for Inactive)
REMARK    1  A    between atoms: C_2  and  C_3 
REMARK    2  A    between atoms: C_3  and  C_4 
REMARK    3  A    between atoms: C_4  and  C_5 
REMARK    4  A    between atoms: C_5  and  C_6 
REMARK       I    between atoms: C_6  and  N_8 
REMARK    5  A    between atoms: N_8  and  N_9 
REMARK    6  A    between atoms: N_9  and  C_10 
REMARK    7  A    between atoms: C_10  and  N_12 
REMARK       I    between atoms: N_12  and  C_13 
REMARK    8  A    between atoms: C_13  and  C_15 
REMARK    9  A    between atoms: C_18  and  O_19 
REMARK   10  A    between atoms: O_19  and  C_20 
REMARK   11  A    between atoms: C_20  and  C_21 
REMARK   12  A    between atoms: C_21  and  C_22 
ROOT
ATOM      1  N   UNL d   1      10.878  -2.035   5.147  0.00  0.00    -0.298 N 
ATOM      2  C   UNL d   1      11.690  -2.501   6.203  0.00  0.00     0.257 C 
ATOM      3  O   UNL d   1      11.270  -2.974   7.263  0.00  0.00    -0.267 OA
ATOM      4  H   UNL d   1      11.360  -1.732   4.312  0.00  0.00     0.171 HD
ENDROOT
BRANCH   2   5
ATOM      5  C   UNL d   1      13.178  -2.501   6.095  0.00  0.00     0.033 A 
ATOM      6  C   UNL d   1      13.939  -1.417   5.675  0.00  0.00     0.020 A 
ATOM      7  C   UNL d   1      15.350  -1.491   5.730  0.00  0.00     0.039 A 
ATOM      8  C   UNL d   1      16.033  -2.631   6.216  0.00  0.00     0.086 A 
ATOM      9  C   UNL d   1      15.251  -3.705   6.679  0.00  0.00     0.045 A 
ATOM     10 BR   UNL d   1      15.828  -5.369   7.430  0.00  0.00    -0.048 Br
ATOM     11  C   UNL d   1      13.849  -3.618   6.620  0.00  0.00     0.039 A 
BRANCH   8  12
ATOM     12  O   UNL d   1      17.406  -2.483   6.160  0.00  0.00    -0.349 OA
BRANCH  12  13
ATOM     13  C   UNL d   1      18.180  -3.600   6.583  0.00  0.00     0.180 C 
BRANCH  13  14
ATOM     14  C   UNL d   1      19.693  -3.428   6.433  0.00  0.00     0.065 C 
BRANCH  14  15
ATOM     15  C   UNL d   1      20.398  -4.671   6.952  0.00  0.00    -0.056 A 
ATOM     16  C   UNL d   1      20.005  -5.955   6.534  0.00  0.00     0.007 A 
ATOM     17  C   UNL d   1      20.504  -7.096   7.162  0.00  0.00     0.001 A 
ATOM     18  C   UNL d   1      21.493  -6.974   8.133  0.00  0.00     0.000 A 
ATOM     19  C   UNL d   1      21.947  -5.710   8.506  0.00  0.00     0.001 A 
ATOM     20  C   UNL d   1      21.396  -4.564   7.926  0.00  0.00     0.007 A 
ENDBRANCH  14  15
ENDBRANCH  13  14
ENDBRANCH  12  13
ENDBRANCH   8  12
ENDBRANCH   2   5
BRANCH   1  21
ATOM     21  C   UNL d   1       9.461  -2.046   5.117  0.00  0.00     0.193 C 
ATOM     22  S   UNL d   1       8.465  -2.577   6.374  0.00  0.00    -0.039 SA
BRANCH  21  23
ATOM     23  N   UNL d   1       8.874  -1.562   3.935  0.00  0.00    -0.273 N 
ATOM     24  H   UNL d   1       9.366  -1.226   3.108  0.00  0.00     0.189 HD
BRANCH  23  25
ATOM     25  N   UNL d   1       7.423  -1.526   3.826  0.00  0.00    -0.268 N 
ATOM     26  C   UNL d   1       6.799  -1.052   2.685  0.00  0.00     0.236 C 
ATOM     27  O   UNL d   1       7.445  -0.650   1.718  0.00  0.00    -0.272 OA
ATOM     28  H   UNL d   1       6.911  -1.863   4.642  0.00  0.00     0.190 HD
BRANCH  26  29
ATOM     29  C   UNL d   1       5.258  -1.067   2.720  0.00  0.00     0.104 C 
BRANCH  29  30
ATOM     30  C   UNL d   1       4.658  -0.523   1.410  0.00  0.00     0.009 C 
BRANCH  30  31
ATOM     31  C   UNL d   1       3.126  -0.516   1.394  0.00  0.00     0.000 C 
BRANCH  31  32
ATOM     32  C   UNL d   1       2.590   0.034   0.067  0.00  0.00    -0.005 C 
ATOM     33  C   UNL d   1       1.069   0.041   0.049  0.00  0.00     0.005 C 
ENDBRANCH  31  32
ENDBRANCH  30  31
ENDBRANCH  29  30
ENDBRANCH  26  29
ENDBRANCH  23  25
ENDBRANCH  21  23
ENDBRANCH   1  21
TORSDOF 12
