@<TRIPOS>MOLECULE
*****
 67 68 0 0 0
SMALL
GASTEIGER

@<TRIPOS>ATOM
      1 C           0.8387   -0.0562    0.0994 C.3     1  UNL1       -0.0652
      2 C           2.3372    0.0718    0.1818 C.3     1  UNL1       -0.0528
      3 C           2.7353    1.5756    0.1409 C.3     1  UNL1       -0.0189
      4 C           4.2414    1.6820    0.2963 C.3     1  UNL1        0.0898
      5 O           4.8892    2.8686   -0.1533 O.3     1  UNL1       -0.4883
      6 C           6.2762    2.8799   -0.2855 C.ar    1  UNL1        0.1619
      7 C           6.8575    3.9933    0.3632 C.ar    1  UNL1       -0.0157
      8 C           8.2200    4.3392    0.1958 C.ar    1  UNL1       -0.0509
      9 C           9.0809    3.5336   -0.5583 C.ar    1  UNL1       -0.0211
     10 C          10.5424    3.7997   -0.6396 C.2     1  UNL1       -0.0477
     11 C          11.4504    3.0291   -1.2792 C.2     1  UNL1        0.0231
     12 C          12.9081    3.3364   -1.2663 C.2     1  UNL1        0.3324
     13 O          13.4058    4.2860   -0.6841 O.2     1  UNL1       -0.2456
     14 O          13.5937    2.4214   -2.0117 O.3     1  UNL1       -0.4534
     15 C          15.0223    2.6360   -2.0923 C.3     1  UNL1        0.1565
     16 C          15.7455    1.5356   -2.9118 C.2     1  UNL1        0.2166
     17 O          15.5209    0.3551   -2.6280 O.2     1  UNL1       -0.2868
     18 C          16.6899    1.8986   -3.9992 C.ar    1  UNL1        0.0896
     19 N          17.1489    3.1643   -4.3000 N.ar    1  UNL1       -0.3549
     20 C          18.0199    3.1431   -5.3691 C.ar    1  UNL1        0.0277
     21 C          18.6524    4.3912   -5.8812 C.3     1  UNL1       -0.0236
     22 C          18.1523    1.8347   -5.8149 C.ar    1  UNL1        0.0827
     23 C          18.9787    1.3475   -6.9582 C.2     1  UNL1        0.3412
     24 O          19.0250    0.1843   -7.3042 O.2     1  UNL1       -0.2449
     25 O          19.6929    2.3361   -7.6059 O.3     1  UNL1       -0.4614
     26 C          20.4798    1.8607   -8.7165 C.3     1  UNL1        0.0900
     27 C          21.2212    3.0244   -9.3563 C.3     1  UNL1       -0.0306
     28 C          17.3076    1.0457   -4.9326 C.ar    1  UNL1       -0.0080
     29 C          17.1087   -0.4364   -5.0106 C.3     1  UNL1       -0.0368
     30 C           8.5027    2.4444   -1.2097 C.ar    1  UNL1       -0.0091
     31 C           7.1363    2.1059   -1.1149 C.ar    1  UNL1        0.1624
     32 O           6.9303    1.0239   -1.9729 O.3     1  UNL1       -0.4886
     33 C           5.6730    0.4695   -1.8012 C.3     1  UNL1        0.0870
     34 C           5.1633   -0.7544   -2.5020 C.3     1  UNL1       -0.0307
     35 H           0.5286   -1.1009    0.1853 H       1  UNL1        0.0230
     36 H           0.4839    0.3329   -0.8605 H       1  UNL1        0.0230
     37 H           0.3874    0.5217    0.9073 H       1  UNL1        0.0230
     38 H           2.7619   -0.4954   -0.6593 H       1  UNL1        0.0264
     39 H           2.7305   -0.4112    1.0845 H       1  UNL1        0.0264
     40 H           2.2218    2.1607    0.8990 H       1  UNL1        0.0298
     41 H           2.4492    1.9646   -0.8494 H       1  UNL1        0.0298
     42 H           4.3366    0.9752   -0.4650 H       1  UNL1        0.0696
     43 H           4.6943    1.2261    1.1807 H       1  UNL1        0.0696
     44 H           6.2394    4.6223    1.0061 H       1  UNL1        0.0655
     45 H           8.5842    5.2563    0.6582 H       1  UNL1        0.0625
     46 H          10.8852    4.6748   -0.0884 H       1  UNL1        0.0626
     47 H          11.1749    2.1362   -1.8260 H       1  UNL1        0.0689
     48 H          15.4458    2.6030   -1.0787 H       1  UNL1        0.0782
     49 H          15.2074    3.6237   -2.5195 H       1  UNL1        0.0782
     50 H          16.8933    4.0086   -3.8052 H       1  UNL1        0.1657
     51 H          18.3411    5.2763   -5.3196 H       1  UNL1        0.0292
     52 H          18.3809    4.5454   -6.9309 H       1  UNL1        0.0292
     53 H          19.7429    4.3146   -5.8130 H       1  UNL1        0.0292
     54 H          19.8253    1.3996   -9.4656 H       1  UNL1        0.0695
     55 H          21.2097    1.1212   -8.3666 H       1  UNL1        0.0695
     56 H          20.5195    3.7844   -9.7144 H       1  UNL1        0.0262
     57 H          21.8262    2.6848  -10.2045 H       1  UNL1        0.0262
     58 H          21.8827    3.5106   -8.6323 H       1  UNL1        0.0262
     59 H          17.6783   -0.8998   -5.8164 H       1  UNL1        0.0278
     60 H          16.0549   -0.6681   -5.1929 H       1  UNL1        0.0278
     61 H          17.4281   -0.9167   -4.0811 H       1  UNL1        0.0278
     62 H           9.1027    1.8123   -1.8574 H       1  UNL1        0.0661
     63 H           4.9758    1.2612   -2.1104 H       1  UNL1        0.0694
     64 H           5.7148    0.1138   -0.7626 H       1  UNL1        0.0694
     65 H           5.2709   -0.6717   -3.5769 H       1  UNL1        0.0262
     66 H           4.0933   -0.8619   -2.2673 H       1  UNL1        0.0262
     67 H           5.6597   -1.6420   -2.1082 H       1  UNL1        0.0262
@<TRIPOS>BOND
     1     1     2    1
     2     2     3    1
     3     3     4    1
     4     4     5    1
     5     5     6    1
     6     6     7   ar
     7     7     8   ar
     8     8     9   ar
     9     9    10    1
    10    10    11    2
    11    11    12    1
    12    12    13    2
    13    12    14    1
    14    14    15    1
    15    15    16    1
    16    16    17    2
    17    16    18    1
    18    18    19   ar
    19    19    20   ar
    20    20    21    1
    21    20    22   ar
    22    22    23    1
    23    23    24    2
    24    23    25    1
    25    25    26    1
    26    26    27    1
    27    22    28   ar
    28    18    28   ar
    29    28    29    1
    30     9    30   ar
    31    30    31   ar
    32     6    31   ar
    33    31    32    1
    34    32    33    1
    35    33    34    1
    36     1    35    1
    37     1    36    1
    38     1    37    1
    39     2    38    1
    40     2    39    1
    41     3    40    1
    42     3    41    1
    43     4    42    1
    44     4    43    1
    45     7    44    1
    46     8    45    1
    47    10    46    1
    48    11    47    1
    49    15    48    1
    50    15    49    1
    51    19    50    1
    52    21    51    1
    53    21    52    1
    54    21    53    1
    55    26    54    1
    56    26    55    1
    57    27    56    1
    58    27    57    1
    59    27    58    1
    60    29    59    1
    61    29    60    1
    62    29    61    1
    63    30    62    1
    64    33    63    1
    65    33    64    1
    66    34    65    1
    67    34    66    1
    68    34    67    1
