REMARK  5 active torsions:
REMARK  status: ('A' for Active; 'I' for Inactive)
REMARK    1  A    between atoms: C_4  and  C_5 
REMARK       I    between atoms: C_5  and  N_7 
REMARK    2  A    between atoms: N_7  and  N_8 
REMARK       I    between atoms: N_8  and  C_9 
REMARK       I    between atoms: C_9  and  N_11 
REMARK    3  A    between atoms: N_11  and  C_12 
REMARK    4  A    between atoms: C_12  and  C_13 
REMARK    5  A    between atoms: C_18  and  N_19 
ROOT
ATOM      1  C   UNL d   1      -1.949  -2.564   0.010  0.00  0.00     0.270 C 
ATOM      2  O   UNL d   1      -1.310  -3.622   0.019  0.00  0.00    -0.266 OA
ATOM      3  N   UNL d   1      -3.345  -2.557   0.008  0.00  0.00    -0.262 N 
ATOM      4  H   UNL d   1      -3.924  -1.720  -0.003  0.00  0.00     0.190 HD
ENDROOT
BRANCH   1   5
ATOM      5  C   UNL d   1      -1.197  -1.237   0.002  0.00  0.00     0.034 A 
ATOM      6  C   UNL d   1       0.222  -1.226   0.005  0.00  0.00     0.026 A 
ATOM      7  C   UNL d   1       0.986  -0.019   0.002  0.00  0.00    -0.028 A 
ATOM      8  C   UNL d   1       2.493  -0.101  -0.013  0.00  0.00     0.050 C 
ATOM      9  C   UNL d   1       0.295   1.209   0.002  0.00  0.00     0.108 A 
ATOM     10  C   UNL d   1      -1.112   1.206  -0.001  0.00  0.00     0.037 A 
ATOM     11  C   UNL d   1      -1.845   0.002  -0.006  0.00  0.00     0.019 A 
BRANCH   9  12
ATOM     12  N   UNL d   1       0.982   2.530  -0.001  0.00  0.00    -0.115 N 
ATOM     13  O   UNL d   1       0.267   3.543  -0.006  0.00  0.00    -0.532 OA
ATOM     14  O   UNL d   1       2.219   2.571   0.002  0.00  0.00    -0.532 OA
ENDBRANCH   9  12
ENDBRANCH   1   5
BRANCH   3  15
ATOM     15  N   UNL d   1      -4.088  -3.793   0.009  0.00  0.00    -0.249 N 
ATOM     16  C   UNL d   1      -5.476  -3.752  -0.014  0.00  0.00     0.334 C 
ATOM     17  O   UNL d   1      -6.085  -2.680  -0.018  0.00  0.00    -0.246 OA
ATOM     18  N   UNL d   1      -6.110  -4.992  -0.035  0.00  0.00    -0.341 N 
ATOM     19  H   UNL d   1      -5.582  -5.847   0.030  0.00  0.00     0.164 HD
ATOM     20  H   UNL d   1      -3.544  -4.648   0.016  0.00  0.00     0.192 HD
BRANCH  18  21
ATOM     21  C   UNL d   1      -7.562  -5.046  -0.041  0.00  0.00     0.129 C 
BRANCH  21  22
ATOM     22  C   UNL d   1      -8.294  -6.354   0.130  0.00  0.00     0.003 A 
ATOM     23  C   UNL d   1      -8.429  -7.283  -1.074  0.00  0.00     0.007 A 
ATOM     24  C   UNL d   1      -7.947  -7.829   0.232  0.00  0.00     0.007 A 
ENDBRANCH  21  22
ENDBRANCH  18  21
ENDBRANCH   3  15
TORSDOF 5
