@<TRIPOS>MOLECULE
*****
 66 69 0 0 0
SMALL
GASTEIGER

@<TRIPOS>ATOM
      1 C           1.0333   -0.0250   -0.3419 C.3     1  UNL1       -0.0245
      2 C           2.5259    0.0127   -0.1130 C.3     1  UNL1       -0.0348
      3 N           2.9602    1.1253    0.8183 N.4     1  UNL1        0.2349
      4 C           2.4784    1.0089    2.2589 C.3     1  UNL1       -0.0348
      5 C           0.9884    1.1584    2.4309 C.3     1  UNL1       -0.0245
      6 C           4.4795    1.1872    0.7771 C.3     1  UNL1       -0.0303
      7 C           4.9538    2.3812    1.5683 C.3     1  UNL1        0.0056
      8 C           6.4586    2.4928    1.4656 C.3     1  UNL1        0.0333
      9 N           6.9895    3.4520    2.3939 N.ar    1  UNL1       -0.2871
     10 C           7.8313    3.2431    3.4808 C.ar    1  UNL1        0.1725
     11 S           8.5832    1.6979    3.9058 S.3     1  UNL1       -0.0798
     12 C           8.1522    0.3944    2.7487 C.3     1  UNL1        0.0612
     13 C           8.7173   -0.9766    2.9364 C.ar    1  UNL1        0.1464
     14 N           9.9415   -1.0926    3.4010 N.ar    1  UNL1       -0.1988
     15 C          10.3412   -2.3324    3.5805 C.ar    1  UNL1        0.2172
     16 N          11.5884   -2.4384    4.1166 N.pl3   1  UNL1       -0.3274
     17 N           9.6309   -3.4236    3.2893 N.ar    1  UNL1       -0.1810
     18 C           8.4333   -3.2152    2.7436 C.ar    1  UNL1        0.2241
     19 N           7.6382   -4.3253    2.4102 N.pl3   1  UNL1       -0.2835
     20 C           6.3577   -4.3189    1.8318 C.ar    1  UNL1        0.0336
     21 C           6.1283   -3.6232    0.6372 C.ar    1  UNL1       -0.0405
     22 C           4.8343   -3.3893    0.1665 C.ar    1  UNL1       -0.0600
     23 C           3.7447   -3.9343    0.8370 C.ar    1  UNL1       -0.0616
     24 C           3.9604   -4.7428    1.9520 C.ar    1  UNL1       -0.0600
     25 C           5.2556   -4.9032    2.4699 C.ar    1  UNL1       -0.0405
     26 N           7.9430   -1.9937    2.5441 N.ar    1  UNL1       -0.1983
     27 N           8.1377    4.2092    4.2992 N.ar    1  UNL1       -0.2230
     28 C           7.6420    5.5068    4.0706 C.ar    1  UNL1        0.0790
     29 C           8.0574    6.5935    4.8353 C.ar    1  UNL1       -0.0355
     30 C           7.7059    7.9008    4.4526 C.ar    1  UNL1       -0.0597
     31 C           6.7429    8.1243    3.4702 C.ar    1  UNL1       -0.0609
     32 C           6.2298    7.0451    2.7829 C.ar    1  UNL1       -0.0474
     33 C           6.7724    5.7839    3.0315 C.ar    1  UNL1        0.0649
     34 C           6.4835    4.7211    2.0960 C.ar    1  UNL1        0.2624
     35 O           5.8147    4.9735    1.1084 O.2     1  UNL1       -0.2669
     36 H           0.7880   -0.6985   -1.1649 H       1  UNL1        0.0281
     37 H           0.6267    0.9686   -0.5526 H       1  UNL1        0.0281
     38 H           0.5117   -0.4646    0.5028 H       1  UNL1        0.0281
     39 H           3.0211    0.1966   -1.0738 H       1  UNL1        0.0812
     40 H           2.8967   -0.9234    0.3113 H       1  UNL1        0.0812
     41 H           2.6248    2.0208    0.4305 H       1  UNL1        0.2033
     42 H           2.9005    1.8463    2.8158 H       1  UNL1        0.0812
     43 H           2.8704    0.0714    2.6618 H       1  UNL1        0.0812
     44 H           0.5999    2.0037    1.8552 H       1  UNL1        0.0281
     45 H           0.7524    1.3119    3.4868 H       1  UNL1        0.0281
     46 H           0.4564    0.2481    2.1793 H       1  UNL1        0.0281
     47 H           4.7914    1.2850   -0.2702 H       1  UNL1        0.0815
     48 H           4.8669    0.2433    1.1812 H       1  UNL1        0.0815
     49 H           4.7387    2.2716    2.6366 H       1  UNL1        0.0334
     50 H           4.4219    3.2676    1.2201 H       1  UNL1        0.0334
     51 H           6.8415    2.6782    0.4589 H       1  UNL1        0.0495
     52 H           6.7580    1.5176    1.7130 H       1  UNL1        0.0495
     53 H           8.4258    0.6787    1.7236 H       1  UNL1        0.0460
     54 H           7.0770    0.2120    2.8677 H       1  UNL1        0.0460
     55 H          12.0534   -1.5724    4.3465 H       1  UNL1        0.1452
     56 H          11.9710   -3.3369    4.3382 H       1  UNL1        0.1452
     57 H           8.0027   -5.1940    2.7720 H       1  UNL1        0.1550
     58 H           6.9801   -3.2730    0.0588 H       1  UNL1        0.0636
     59 H           4.6901   -2.7973   -0.7314 H       1  UNL1        0.0618
     60 H           2.7337   -3.7572    0.4795 H       1  UNL1        0.0618
     61 H           3.1166   -5.2408    2.4267 H       1  UNL1        0.0618
     62 H           5.3799   -5.4593    3.3966 H       1  UNL1        0.0636
     63 H           8.6887    6.4442    5.7068 H       1  UNL1        0.0639
     64 H           8.1978    8.7534    4.9139 H       1  UNL1        0.0618
     65 H           6.4108    9.1271    3.2184 H       1  UNL1        0.0618
     66 H           5.4748    7.1828    2.0130 H       1  UNL1        0.0626
@<TRIPOS>UNITY_ATOM_ATTR
3 1
charge 1
@<TRIPOS>BOND
     1     1     2    1
     2     2     3    1
     3     3     4    1
     4     4     5    1
     5     3     6    1
     6     6     7    1
     7     7     8    1
     8     8     9    1
     9     9    10   ar
    10    10    11    1
    11    11    12    1
    12    12    13    1
    13    13    14   ar
    14    14    15   ar
    15    15    16    1
    16    15    17   ar
    17    17    18   ar
    18    18    19    1
    19    19    20    1
    20    20    21   ar
    21    21    22   ar
    22    22    23   ar
    23    23    24   ar
    24    24    25   ar
    25    20    25   ar
    26    18    26   ar
    27    13    26   ar
    28    10    27   ar
    29    27    28   ar
    30    28    29   ar
    31    29    30   ar
    32    30    31   ar
    33    31    32   ar
    34    32    33   ar
    35    28    33   ar
    36    33    34   ar
    37     9    34   ar
    38    34    35    2
    39     1    36    1
    40     1    37    1
    41     1    38    1
    42     2    39    1
    43     2    40    1
    44     3    41    1
    45     4    42    1
    46     4    43    1
    47     5    44    1
    48     5    45    1
    49     5    46    1
    50     6    47    1
    51     6    48    1
    52     7    49    1
    53     7    50    1
    54     8    51    1
    55     8    52    1
    56    12    53    1
    57    12    54    1
    58    16    55    1
    59    16    56    1
    60    19    57    1
    61    21    58    1
    62    22    59    1
    63    23    60    1
    64    24    61    1
    65    25    62    1
    66    29    63    1
    67    30    64    1
    68    31    65    1
    69    32    66    1
