REMARK  5 active torsions:
REMARK  status: ('A' for Active; 'I' for Inactive)
REMARK    1  A    between atoms: C_5  and  N_6 
REMARK    2  A    between atoms: N_6  and  C_7 
REMARK    3  A    between atoms: C_7  and  C_8 
REMARK    4  A    between atoms: C_8  and  C_9 
REMARK       I    between atoms: C_9  and  N_11 
REMARK    5  A    between atoms: N_11  and  N_12 
ROOT
ATOM      1  N   UNL d   1       1.329  -2.470  -0.032  0.00  0.00    -0.388 N 
ATOM      2  H   UNL d   1       2.294  -2.153  -0.048  0.00  0.00     0.159 HD
ENDROOT
BRANCH   1   3
ATOM      3  C   UNL d   1       0.343  -1.484  -0.011  0.00  0.00     0.050 A 
ATOM      4  C   UNL d   1      -1.024  -1.800  -0.006  0.00  0.00     0.031 A 
ATOM      5  C   UNL d   1      -2.014  -0.809   0.007  0.00  0.00     0.009 A 
ATOM      6  C   UNL d   1      -1.664   0.541   0.011  0.00  0.00    -0.060 A 
ATOM      7  C   UNL d   1      -2.713   1.612  -0.028  0.00  0.00     0.048 C 
ATOM      8  C   UNL d   1      -0.308   0.883   0.027  0.00  0.00     0.033 A 
ATOM      9  C   UNL d   1       0.678  -0.114   0.012  0.00  0.00     0.060 A 
ATOM     10 CL   UNL d   1       2.336   0.391   0.007  0.00  0.00    -0.082 Cl
ENDBRANCH   1   3
BRANCH   1  11
ATOM     11  C   UNL d   1       1.011  -3.889  -0.065  0.00  0.00     0.129 C 
BRANCH  11  12
ATOM     12  C   UNL d   1       2.257  -4.770  -0.087  0.00  0.00     0.123 C 
BRANCH  12  13
ATOM     13  C   UNL d   1       1.837  -6.230  -0.098  0.00  0.00     0.233 C 
ATOM     14  O   UNL d   1       0.660  -6.597  -0.103  0.00  0.00    -0.272 OA
ATOM     15  N   UNL d   1       2.890  -7.137  -0.080  0.00  0.00    -0.294 N 
ATOM     16  H   UNL d   1       3.854  -6.827  -0.184  0.00  0.00     0.183 HD
BRANCH  15  17
ATOM     17  N   UNL d   1       2.606  -8.521  -0.191  0.00  0.00    -0.247 NA
ATOM     18  H   UNL d   1       1.579  -8.619  -0.184  0.00  0.00     0.143 HD
ATOM     19  H   UNL d   1       2.909  -8.989   0.667  0.00  0.00     0.143 HD
ENDBRANCH  15  17
ENDBRANCH  12  13
ENDBRANCH  11  12
ENDBRANCH   1  11
TORSDOF 5
