@<TRIPOS>MOLECULE
*****
 32 33 0 0 0
SMALL
GASTEIGER

@<TRIPOS>ATOM
      1 N           1.1642   -0.0480   -0.0895 N.pl3   1  UNL1       -0.2430
      2 C           2.5290    0.0717   -0.1022 C.2     1  UNL1        0.3632
      3 N           3.2125    0.6177   -1.0693 N.2     1  UNL1        0.1640
      4 O           2.4246    1.0860   -2.1745 O.3     1  UNL1       -0.1946
      5 C           3.2738    1.5290   -3.1897 C.2     1  UNL1        0.4548
      6 O           4.5069    1.4868   -3.1224 O.2     1  UNL1       -0.2216
      7 N           2.5937    2.0907   -4.2774 N.am    1  UNL1       -0.2477
      8 C           3.2773    2.6325   -5.4034 C.ar    1  UNL1        0.0380
      9 C           4.3582    1.9415   -5.9628 C.ar    1  UNL1       -0.0389
     10 C           5.0762    2.4622   -7.0445 C.ar    1  UNL1       -0.0402
     11 C           4.7348    3.7017   -7.5793 C.ar    1  UNL1        0.0594
     12 CL          5.6798    4.2945   -8.9005 Cl      1  UNL1       -0.0820
     13 C           3.6518    4.4051   -7.0380 C.ar    1  UNL1        0.0610
     14 CL          3.2209    5.9806   -7.6162 Cl      1  UNL1       -0.0820
     15 C           2.9000    3.8556   -5.9761 C.ar    1  UNL1       -0.0206
     16 C           3.3044   -0.5157    1.0641 C.ar    1  UNL1        0.0694
     17 C           4.4931    0.0813    1.5023 C.ar    1  UNL1       -0.0467
     18 C           5.3178   -0.5742    2.4283 C.ar    1  UNL1       -0.0609
     19 C           4.9253   -1.7908    2.9848 C.ar    1  UNL1       -0.0617
     20 C           3.7141   -2.3639    2.6020 C.ar    1  UNL1       -0.0609
     21 C           2.9053   -1.7305    1.6462 C.ar    1  UNL1       -0.0467
     22 H           0.6411    0.4294   -0.8098 H       1  UNL1        0.2886
     23 H           0.6704   -0.2985    0.7581 H       1  UNL1        0.2886
     24 H           1.6132    2.2997   -4.1486 H       1  UNL1        0.1583
     25 H           4.6455    0.9679   -5.5720 H       1  UNL1        0.0637
     26 H           5.9091    1.8932   -7.4506 H       1  UNL1        0.0633
     27 H           2.0783    4.4371   -5.5660 H       1  UNL1        0.0651
     28 H           4.7953    1.0501    1.1128 H       1  UNL1        0.0626
     29 H           6.2847   -0.1502    2.6912 H       1  UNL1        0.0618
     30 H           5.5672   -2.2940    3.7059 H       1  UNL1        0.0618
     31 H           3.4221   -3.3262    3.0180 H       1  UNL1        0.0618
     32 H           1.9926   -2.2258    1.3292 H       1  UNL1        0.0626
@<TRIPOS>BOND
     1     1     2    1
     2     2     3    2
     3     3     4    1
     4     4     5    1
     5     5     6    2
     6     5     7   am
     7     7     8    1
     8     8     9   ar
     9     9    10   ar
    10    10    11   ar
    11    11    12    1
    12    11    13   ar
    13    13    14    1
    14    13    15   ar
    15     8    15   ar
    16     2    16    1
    17    16    17   ar
    18    17    18   ar
    19    18    19   ar
    20    19    20   ar
    21    20    21   ar
    22    16    21   ar
    23     1    22    1
    24     1    23    1
    25     7    24    1
    26     9    25    1
    27    10    26    1
    28    15    27    1
    29    17    28    1
    30    18    29    1
    31    19    30    1
    32    20    31    1
    33    21    32    1
