@<TRIPOS>MOLECULE
*****
 53 54 0 0 0
SMALL
GASTEIGER

@<TRIPOS>ATOM
      1 C           0.9384    0.0439    0.1623 C.3     1  UNL1        0.0820
      2 O           2.3761   -0.1181    0.0880 O.3     1  UNL1       -0.4645
      3 C           3.0452   -1.0466    0.8293 C.2     1  UNL1        0.3389
      4 O           4.0398   -0.7492    1.5035 O.2     1  UNL1       -0.2450
      5 C           2.6604   -2.4725    0.6621 C.ar    1  UNL1        0.0593
      6 C           3.1318   -3.5326    1.4471 C.ar    1  UNL1       -0.0460
      7 C           2.6835   -4.8793    1.2378 C.ar    1  UNL1       -0.0394
      8 C           1.7584   -5.2004    0.2314 C.ar    1  UNL1        0.0377
      9 N           1.2531   -6.5572    0.0615 N.am    1  UNL1       -0.2692
     10 C           0.6985   -7.0969   -1.1200 C.2     1  UNL1        0.3041
     11 O           0.9191   -6.6790   -2.2507 O.2     1  UNL1       -0.2525
     12 N          -0.2814   -8.0729   -0.8930 N.am    1  UNL1       -0.2950
     13 C          -1.3173   -8.4147   -1.9400 C.3     1  UNL1        0.0383
     14 C          -2.1941   -7.2577   -2.4156 C.ar    1  UNL1       -0.0302
     15 C          -3.0736   -7.2378   -3.5090 C.ar    1  UNL1       -0.0553
     16 C          -3.6727   -6.0121   -3.9740 C.ar    1  UNL1       -0.0402
     17 C          -3.3123   -4.7857   -3.4122 C.ar    1  UNL1        0.0334
     18 N          -3.7488   -3.4935   -3.8430 N.am    1  UNL1       -0.2853
     19 C          -3.2787   -2.2773   -3.3092 C.2     1  UNL1        0.2198
     20 O          -2.3594   -2.1471   -2.4985 O.2     1  UNL1       -0.2752
     21 C          -3.9494   -0.9996   -3.8012 C.3     1  UNL1        0.0303
     22 C          -5.4350   -0.9985   -3.4808 C.3     1  UNL1       -0.0544
     23 C          -3.2894    0.2120   -3.1056 C.3     1  UNL1       -0.0544
     24 C          -2.5540   -4.8829   -2.2783 C.ar    1  UNL1       -0.0402
     25 C          -2.1481   -6.0839   -1.7141 C.ar    1  UNL1       -0.0553
     26 C           1.3313   -4.1006   -0.5208 C.ar    1  UNL1       -0.0284
     27 C           0.1838   -4.0698   -1.4320 C.3     1  UNL1       -0.0379
     28 C           1.8324   -2.8072   -0.3707 C.ar    1  UNL1       -0.0431
     29 H           0.6736    0.9164   -0.4451 H       1  UNL1        0.0661
     30 H           0.6230    0.1993    1.1938 H       1  UNL1        0.0661
     31 H           0.3678   -0.7828   -0.2626 H       1  UNL1        0.0661
     32 H           3.8813   -3.3245    2.2089 H       1  UNL1        0.0626
     33 H           3.0979   -5.6553    1.8753 H       1  UNL1        0.0636
     34 H           1.5414   -7.2295    0.7568 H       1  UNL1        0.1564
     35 H           0.0717   -8.8761   -0.3931 H       1  UNL1        0.1506
     36 H          -1.9796   -9.1658   -1.4940 H       1  UNL1        0.0512
     37 H          -0.7892   -8.8649   -2.7876 H       1  UNL1        0.0512
     38 H          -3.3311   -8.1718   -4.0028 H       1  UNL1        0.0621
     39 H          -4.4054   -6.0607   -4.7732 H       1  UNL1        0.0636
     40 H          -4.4505   -3.4685   -4.5695 H       1  UNL1        0.1548
     41 H          -3.7792   -0.9203   -4.8798 H       1  UNL1        0.0389
     42 H          -5.6019   -1.0962   -2.4016 H       1  UNL1        0.0237
     43 H          -5.9496   -1.8271   -3.9732 H       1  UNL1        0.0237
     44 H          -5.8968   -0.0630   -3.8123 H       1  UNL1        0.0237
     45 H          -3.4114    0.1572   -2.0146 H       1  UNL1        0.0237
     46 H          -3.7220    1.1582   -3.4416 H       1  UNL1        0.0237
     47 H          -2.2105    0.2449   -3.3020 H       1  UNL1        0.0237
     48 H          -2.2381   -4.0024   -1.7603 H       1  UNL1        0.0636
     49 H          -1.6585   -6.0425   -0.7483 H       1  UNL1        0.0621
     50 H          -0.2450   -5.0259   -1.3522 H       1  UNL1        0.0278
     51 H           0.4375   -3.8704   -2.4707 H       1  UNL1        0.0278
     52 H          -0.5489   -3.3587   -1.0345 H       1  UNL1        0.0278
     53 H           1.4885   -2.0730   -1.0918 H       1  UNL1        0.0629
@<TRIPOS>BOND
     1     1     2    1
     2     2     3    1
     3     3     4    2
     4     3     5    1
     5     5     6   ar
     6     6     7   ar
     7     7     8   ar
     8     8     9    1
     9     9    10   am
    10    10    11    2
    11    10    12   am
    12    12    13    1
    13    13    14    1
    14    14    15   ar
    15    15    16   ar
    16    16    17   ar
    17    17    18    1
    18    18    19   am
    19    19    20    2
    20    19    21    1
    21    21    22    1
    22    21    23    1
    23    17    24   ar
    24    24    25   ar
    25    14    25   ar
    26     8    26   ar
    27    26    27    1
    28    26    28   ar
    29     5    28   ar
    30     1    29    1
    31     1    30    1
    32     1    31    1
    33     6    32    1
    34     7    33    1
    35     9    34    1
    36    12    35    1
    37    13    36    1
    38    13    37    1
    39    15    38    1
    40    16    39    1
    41    18    40    1
    42    21    41    1
    43    22    42    1
    44    22    43    1
    45    22    44    1
    46    23    45    1
    47    23    46    1
    48    23    47    1
    49    24    48    1
    50    25    49    1
    51    27    50    1
    52    27    51    1
    53    27    52    1
    54    28    53    1
