@<TRIPOS>MOLECULE
*****
 37 38 0 0 0
SMALL
GASTEIGER

@<TRIPOS>ATOM
      1 C           2.5816    0.2261   -0.0320 C.3     1  UNL1       -0.0326
      2 C           1.1017    0.0288   -0.0020 C.ar    1  UNL1        0.0387
      3 C           0.4470   -1.2411    0.0075 C.ar    1  UNL1        0.0475
      4 C           1.0869   -2.6610    0.0043 C.2     1  UNL1        0.2606
      5 O           0.3456   -3.6549   -0.0188 O.2     1  UNL1       -0.2686
      6 N           2.4606   -2.8260    0.0341 N.am    1  UNL1       -0.2292
      7 N           3.1578   -4.0546   -0.0124 N.am    1  UNL1       -0.2180
      8 C           4.5455   -3.9519   -0.0154 C.2     1  UNL1        0.3160
      9 O           5.1022   -2.8493    0.0129 O.2     1  UNL1       -0.2513
     10 N           5.2269   -5.1486   -0.0544 N.am    1  UNL1       -0.2980
     11 C           6.6742   -5.1466   -0.0319 C.3     1  UNL1        0.0159
     12 C           7.4191   -6.4442    0.1076 C.3     1  UNL1       -0.0254
     13 C           7.0502   -7.9023    0.3040 C.3     1  UNL1       -0.0485
     14 C           7.4691   -7.4257   -1.0544 C.3     1  UNL1       -0.0485
     15 C          -0.9800   -1.2212    0.0026 C.ar    1  UNL1       -0.0489
     16 C          -1.7323   -0.0312   -0.0043 C.ar    1  UNL1       -0.0546
     17 C          -1.0882    1.1969    0.0020 C.ar    1  UNL1        0.0159
     18 C           0.3126    1.2400    0.0034 C.ar    1  UNL1        0.2767
     19 N           0.9322    2.6097    0.0010 N.pl3   1  UNL1        0.0799
     20 O           0.1609    3.5842   -0.0072 O.2     1  UNL1        0.0415
     21 O           2.1578    2.7343    0.0085 O.co2   1  UNL1       -0.5760
     22 H           3.2252   -0.6114   -0.0875 H       1  UNL1        0.0280
     23 H           2.9005    0.7229    0.8885 H       1  UNL1        0.0280
     24 H           2.8545    0.7496   -0.9513 H       1  UNL1        0.0280
     25 H           3.1444   -2.1045    0.1348 H       1  UNL1        0.1732
     26 H           2.6216   -4.9113   -0.0078 H       1  UNL1        0.1744
     27 H           4.7192   -6.0126    0.0102 H       1  UNL1        0.1503
     28 H           6.9771   -4.5099    0.8104 H       1  UNL1        0.0465
     29 H           7.0328   -4.6211   -0.9286 H       1  UNL1        0.0465
     30 H           8.3348   -6.2146    0.6519 H       1  UNL1        0.0316
     31 H           6.0397   -8.2609    0.4235 H       1  UNL1        0.0269
     32 H           7.7802   -8.5067    0.8469 H       1  UNL1        0.0269
     33 H           6.6917   -7.4902   -1.8096 H       1  UNL1        0.0269
     34 H           8.4499   -7.6823   -1.4449 H       1  UNL1        0.0269
     35 H          -1.5471   -2.1559   -0.0002 H       1  UNL1        0.0625
     36 H          -2.8229   -0.0596   -0.0159 H       1  UNL1        0.0620
     37 H          -1.6851    2.1106    0.0008 H       1  UNL1        0.0685
@<TRIPOS>UNITY_ATOM_ATTR
19 1
charge 1
21 1
charge -1
@<TRIPOS>BOND
     1     1     2    1
     2     2     3   ar
     3     3     4    1
     4     4     5    2
     5     4     6   am
     6     6     7    1
     7     7     8   am
     8     8     9    2
     9     8    10   am
    10    10    11    1
    11    11    12    1
    12    12    13    1
    13    13    14    1
    14    12    14    1
    15     3    15   ar
    16    15    16   ar
    17    16    17   ar
    18    17    18   ar
    19     2    18   ar
    20    18    19    1
    21    19    20    2
    22    19    21    1
    23     1    22    1
    24     1    23    1
    25     1    24    1
    26     6    25    1
    27     7    26    1
    28    10    27    1
    29    11    28    1
    30    11    29    1
    31    12    30    1
    32    13    31    1
    33    13    32    1
    34    14    33    1
    35    14    34    1
    36    15    35    1
    37    16    36    1
    38    17    37    1
