REMARK  10 active torsions:
REMARK  status: ('A' for Active; 'I' for Inactive)
REMARK    1  A    between atoms: C_9  and  N_10 
REMARK       I    between atoms: N_10  and  C_11 
REMARK    2  A    between atoms: C_11  and  C_13 
REMARK    3  A    between atoms: C_13  and  C_14 
REMARK    4  A    between atoms: C_13  and  N_21 
REMARK    5  A    between atoms: C_14  and  C_15 
REMARK    6  A    between atoms: C_15  and  C_16 
REMARK    7  A    between atoms: C_16  and  N_17 
REMARK       I    between atoms: N_17  and  C_18 
REMARK       I    between atoms: C_18  and  N_19 
REMARK       I    between atoms: N_21  and  C_22 
REMARK    8  A    between atoms: C_22  and  O_24 
REMARK    9  A    between atoms: O_24  and  C_25 
REMARK   10  A    between atoms: C_25  and  C_26 
ROOT
ATOM      1  C   UNL d   1       4.768   4.634  -0.088  0.00  0.00     0.179 C 
ENDROOT
BRANCH   1   2
ATOM      2  C   UNL d   1       3.511   3.712  -0.015  0.00  0.00     0.245 C 
ATOM      3  N   UNL d   1       3.714   2.321   0.091  0.00  0.00    -0.325 N 
ATOM      4  H   UNL d   1       4.644   1.963   0.255  0.00  0.00     0.169 HD
ATOM      5  O   UNL d   1       2.410   4.260  -0.092  0.00  0.00    -0.271 OA
BRANCH   3   6
ATOM      6  C   UNL d   1       2.694   1.325   0.031  0.00  0.00     0.037 A 
ATOM      7  C   UNL d   1       1.361   1.692  -0.017  0.00  0.00     0.067 A 
ATOM      8  C   UNL d   1       0.350   0.746  -0.011  0.00  0.00     0.092 A 
ATOM      9  O   UNL d   1      -0.940   1.296  -0.011  0.00  0.00    -0.275 OA
ATOM     10  C   UNL d   1       0.598  -0.617   0.007  0.00  0.00     0.004 A 
ATOM     11  C   UNL d   1      -2.049   0.486  -0.004  0.00  0.00     0.288 A 
ATOM     12  C   UNL d   1      -1.796  -0.963  -0.017  0.00  0.00     0.090 A 
ATOM     13  O   UNL d   1      -3.186   0.937   0.003  0.00  0.00    -0.260 OA
ATOM     14  C   UNL d   1      -0.569  -1.510  -0.006  0.00  0.00    -0.043 A 
ATOM     15  C   UNL d   1      -0.382  -2.994  -0.019  0.00  0.00     0.049 C 
ATOM     16  C   UNL d   1       1.942  -1.015   0.025  0.00  0.00     0.017 A 
ATOM     17  C   UNL d   1       2.986  -0.053   0.037  0.00  0.00     0.030 A 
ENDBRANCH   3   6
ENDBRANCH   1   2
BRANCH   1  18
ATOM     18  C   UNL d   1       5.592   4.354  -1.353  0.00  0.00     0.037 C 
BRANCH  18  19
ATOM     19  C   UNL d   1       6.205   2.966  -1.386  0.00  0.00     0.023 C 
BRANCH  19  20
ATOM     20  C   UNL d   1       7.064   2.769  -2.611  0.00  0.00     0.138 C 
BRANCH  20  21
ATOM     21  N   UNL d   1       7.601   1.406  -2.634  0.00  0.00    -0.227 N 
ATOM     22  C   UNL d   1       8.371   0.957  -3.634  0.00  0.00     0.665 C 
ATOM     23  N   UNL d   1       8.681   1.736  -4.672  0.00  0.00    -0.235 N 
ATOM     24  N   UNL d   1       8.839  -0.292  -3.598  0.00  0.00    -0.235 N 
ATOM     25  H   UNL d   1       8.341   2.687  -4.737  0.00  0.00     0.174 HD
ATOM     26  H   UNL d   1       9.267   1.413  -5.429  0.00  0.00     0.174 HD
ATOM     27  H   UNL d   1       8.634  -0.923  -2.834  0.00  0.00     0.174 HD
ATOM     28  H   UNL d   1       9.430  -0.648  -4.338  0.00  0.00     0.174 HD
ATOM     29  H   UNL d   1       7.389   0.766  -1.878  0.00  0.00     0.177 HD
ENDBRANCH  20  21
ENDBRANCH  19  20
ENDBRANCH  18  19
ENDBRANCH   1  18
BRANCH   1  30
ATOM     30  N   UNL d   1       4.338   6.057  -0.106  0.00  0.00    -0.324 N 
ATOM     31  C   UNL d   1       5.209   7.118  -0.107  0.00  0.00     0.361 C 
ATOM     32  O   UNL d   1       6.431   6.987  -0.067  0.00  0.00    -0.238 OA
ATOM     33  H   UNL d   1       3.337   6.249  -0.117  0.00  0.00     0.165 HD
BRANCH  31  34
ATOM     34  O   UNL d   1       4.577   8.314  -0.195  0.00  0.00    -0.299 OA
BRANCH  34  35
ATOM     35  C   UNL d   1       5.451   9.478  -0.225  0.00  0.00     0.219 C 
BRANCH  35  36
ATOM     36  C   UNL d   1       4.668  10.782  -0.229  0.00  0.00    -0.034 A 
ATOM     37  C   UNL d   1       5.310  12.028  -0.370  0.00  0.00     0.009 A 
ATOM     38  C   UNL d   1       4.590  13.223  -0.215  0.00  0.00     0.001 A 
ATOM     39  C   UNL d   1       3.214  13.189  -0.004  0.00  0.00     0.000 A 
ATOM     40  C   UNL d   1       2.563  11.964   0.100  0.00  0.00     0.001 A 
ATOM     41  C   UNL d   1       3.286  10.776  -0.001  0.00  0.00     0.009 A 
ENDBRANCH  35  36
ENDBRANCH  34  35
ENDBRANCH  31  34
ENDBRANCH   1  30
TORSDOF 10
