@<TRIPOS>MOLECULE
*****
 63 68 0 0 0
SMALL
GASTEIGER

@<TRIPOS>ATOM
      1 O          11.9355    6.2969   -4.9799 O.2     1  UNL1       -0.2452
      2 C          11.7529    5.3029   -4.2887 C.2     1  UNL1        0.3373
      3 C          12.7147    4.8893   -3.2309 C.2     1  UNL1        0.0264
      4 C          13.8430    5.5654   -2.9309 C.2     1  UNL1       -0.0126
      5 C          14.6969    5.1830   -1.8327 C.ar    1  UNL1        0.1279
      6 C          14.7160    4.0008   -1.1119 C.ar    1  UNL1       -0.0165
      7 C          15.8443    3.9411   -0.2765 C.ar    1  UNL1       -0.0233
      8 C          16.3904    5.1858   -0.3626 C.ar    1  UNL1        0.0925
      9 O          15.7276    5.9391   -1.2886 O.2     1  UNL1       -0.4635
     10 O          10.6230    4.4771   -4.4842 O.3     1  UNL1       -0.4228
     11 C          10.0902    3.4249   -3.6883 C.ar    1  UNL1        0.1320
     12 C           9.4387    2.3690   -4.3219 C.ar    1  UNL1       -0.0188
     13 C           8.9256    1.3224   -3.5407 C.ar    1  UNL1       -0.0518
     14 C           9.1536    1.2774   -2.1456 C.ar    1  UNL1       -0.0093
     15 C           8.7890    0.0355   -1.3223 C.3     1  UNL1        0.1141
     16 N           9.3023   -1.1493   -1.9561 N.am    1  UNL1       -0.2891
     17 C          10.6441   -1.2836   -2.0796 C.2     1  UNL1        0.2483
     18 O          11.2071   -1.7082   -3.1069 O.2     1  UNL1       -0.2701
     19 C          11.3532   -0.9854   -0.8564 C.ar    1  UNL1        0.0687
     20 C          10.6839   -0.3112    0.1451 C.ar    1  UNL1        0.0799
     21 S          11.7154    0.0316    1.4589 S.2     1  UNL1       -0.0724
     22 C          13.0348   -0.8047    0.7278 C.ar    1  UNL1        0.0400
     23 C          12.6898   -1.3411   -0.4997 C.ar    1  UNL1       -0.0131
     24 C          13.6748   -1.9440   -1.4579 C.3     1  UNL1        0.0144
     25 C          15.1419   -1.9376   -1.0227 C.3     1  UNL1       -0.0271
     26 N          15.5229   -1.1017    0.2104 N.4     1  UNL1        0.2424
     27 C          16.3990    0.0821   -0.2410 C.3     1  UNL1       -0.0056
     28 C          15.7659    0.8733   -1.3648 C.ar    1  UNL1       -0.0029
     29 C          14.3861    0.8487   -1.5670 C.ar    1  UNL1       -0.0535
     30 C          13.7011    1.2175   -2.7096 C.ar    1  UNL1       -0.0613
     31 C          14.3908    2.0209   -3.5682 C.ar    1  UNL1       -0.0617
     32 C          15.7430    2.2988   -3.2996 C.ar    1  UNL1       -0.0613
     33 C          16.4549    1.6711   -2.2530 C.ar    1  UNL1       -0.0535
     34 C          14.4391   -0.6841    1.2327 C.3     1  UNL1        0.0010
     35 N           9.3797    0.0453    0.0148 N.pl3   1  UNL1       -0.3162
     36 C           9.7801    2.3796   -1.5490 C.ar    1  UNL1       -0.0518
     37 C          10.1814    3.4702   -2.3048 C.ar    1  UNL1       -0.0188
     38 H          12.4724    3.9953   -2.6846 H       1  UNL1        0.0690
     39 H          14.1344    6.4149   -3.5400 H       1  UNL1        0.0656
     40 H          14.0653    3.1903   -1.3428 H       1  UNL1        0.0655
     41 H          16.2416    3.0911    0.2601 H       1  UNL1        0.0649
     42 H          17.2521    5.6253    0.1164 H       1  UNL1        0.1029
     43 H           9.3319    2.3437   -5.4053 H       1  UNL1        0.0654
     44 H           8.3827    0.5175   -4.0363 H       1  UNL1        0.0623
     45 H           7.6975   -0.0416   -1.2664 H       1  UNL1        0.0759
     46 H           8.7014   -1.7937   -2.4434 H       1  UNL1        0.1511
     47 H          13.6204   -1.4030   -2.4146 H       1  UNL1        0.0366
     48 H          13.3771   -2.9594   -1.7168 H       1  UNL1        0.0366
     49 H          15.7590   -1.5787   -1.8634 H       1  UNL1        0.0818
     50 H          15.4994   -2.9507   -0.8438 H       1  UNL1        0.0818
     51 H          16.1341   -1.7238    0.7507 H       1  UNL1        0.2041
     52 H          16.6746    0.6558    0.6531 H       1  UNL1        0.0867
     53 H          17.3207   -0.3834   -0.6169 H       1  UNL1        0.0867
     54 H          13.7510    0.6165   -0.7510 H       1  UNL1        0.0622
     55 H          12.6282    1.0435   -2.7838 H       1  UNL1        0.0618
     56 H          13.8068    2.6203   -4.2597 H       1  UNL1        0.0618
     57 H          16.1785    3.1784   -3.7675 H       1  UNL1        0.0618
     58 H          17.4669    1.9936   -2.0186 H       1  UNL1        0.0622
     59 H          14.6614    0.3611    1.4988 H       1  UNL1        0.0872
     60 H          14.5944   -1.2918    2.1262 H       1  UNL1        0.0872
     61 H           8.8483    0.5161    0.7408 H       1  UNL1        0.1486
     62 H           9.9944    2.4023   -0.4848 H       1  UNL1        0.0623
     63 H          10.6053    4.3236   -1.7888 H       1  UNL1        0.0654
@<TRIPOS>UNITY_ATOM_ATTR
26 1
charge 1
@<TRIPOS>BOND
     1     1     2    2
     2     2     3    1
     3     3     4    2
     4     4     5    1
     5     5     6   ar
     6     6     7   ar
     7     7     8   ar
     8     8     9   ar
     9     5     9   ar
    10     2    10    1
    11    10    11    1
    12    11    12   ar
    13    12    13   ar
    14    13    14   ar
    15    15    16    1
    16    16    17   am
    17    17    18    2
    18    17    19    1
    19    19    20   ar
    20    20    21   ar
    21    21    22   ar
    22    22    23   ar
    23    19    23   ar
    24    23    24    1
    25    24    25    1
    26    25    26    1
    27    27    28    1
    28    28    29   ar
    29    29    30   ar
    30    30    31   ar
    31    31    32   ar
    32    32    33   ar
    33    28    33   ar
    34    26    34    1
    35    22    34    1
    36    20    35    1
    37    15    35    1
    38    14    36   ar
    39    36    37   ar
    40    11    37   ar
    41    26    27    1
    42    15    14    1
    43     3    38    1
    44     4    39    1
    45     6    40    1
    46     7    41    1
    47     8    42    1
    48    12    43    1
    49    13    44    1
    50    15    45    1
    51    16    46    1
    52    24    47    1
    53    24    48    1
    54    25    49    1
    55    25    50    1
    56    26    51    1
    57    27    52    1
    58    27    53    1
    59    29    54    1
    60    30    55    1
    61    31    56    1
    62    32    57    1
    63    33    58    1
    64    34    59    1
    65    34    60    1
    66    35    61    1
    67    36    62    1
    68    37    63    1
