@<TRIPOS>MOLECULE
*****
 46 47 0 0 0
SMALL
GASTEIGER

@<TRIPOS>ATOM
      1 C           1.1166    0.0125    0.0171 C.3     1  UNL1       -0.0014
      2 C           2.6229    0.0787    0.0093 C.2     1  UNL1        0.1602
      3 O           3.2637    0.2074   -1.0316 O.2     1  UNL1       -0.2924
      4 C           3.3436   -0.0483    1.3007 C.ar    1  UNL1        0.0189
      5 C           4.5236    0.6492    1.5300 C.ar    1  UNL1       -0.0512
      6 C           5.2746    0.3538    2.6688 C.ar    1  UNL1       -0.0594
      7 C           4.8362   -0.6263    3.5783 C.ar    1  UNL1       -0.0408
      8 C           3.6465   -1.3341    3.3621 C.ar    1  UNL1        0.0283
      9 N           3.2549   -2.3707    4.1902 N.pl3   1  UNL1       -0.3331
     10 C           2.1081   -3.2887    3.9462 C.3     1  UNL1        0.0949
     11 C           2.2960   -4.0475    2.6302 C.3     1  UNL1       -0.0381
     12 C           1.9879   -4.3108    5.1227 C.2     1  UNL1        0.2404
     13 O           2.8403   -4.2659    6.0175 O.2     1  UNL1       -0.2733
     14 N           0.9173   -5.2170    5.1039 N.am    1  UNL1       -0.2384
     15 C           0.7571   -6.1724    6.0978 C.2     1  UNL1        0.3102
     16 O           1.5437   -6.2729    7.0448 O.2     1  UNL1       -0.2521
     17 N          -0.3265   -7.0394    5.9611 N.am    1  UNL1       -0.2692
     18 C          -0.6425   -8.0247    6.9592 C.ar    1  UNL1        0.0348
     19 C          -1.1695   -9.2736    6.6045 C.ar    1  UNL1       -0.0402
     20 C          -1.5644  -10.1990    7.5946 C.ar    1  UNL1       -0.0571
     21 C          -1.3984   -9.9140    8.9549 C.ar    1  UNL1       -0.0503
     22 C          -1.7141  -10.9290   10.0182 C.3     1  UNL1       -0.0397
     23 C          -0.8752   -8.6696    9.3090 C.ar    1  UNL1       -0.0571
     24 C          -0.4945   -7.7464    8.3240 C.ar    1  UNL1       -0.0402
     25 C           2.8945   -0.9746    2.2413 C.ar    1  UNL1       -0.0304
     26 H           0.7460    0.1248   -1.0059 H       1  UNL1        0.0309
     27 H           0.7212    0.8315    0.6226 H       1  UNL1        0.0309
     28 H           0.7540   -0.9490    0.3889 H       1  UNL1        0.0309
     29 H           4.8540    1.4125    0.8300 H       1  UNL1        0.0625
     30 H           6.2226    0.8628    2.8321 H       1  UNL1        0.0618
     31 H           5.4509   -0.8305    4.4536 H       1  UNL1        0.0636
     32 H           3.8395   -2.6185    4.9928 H       1  UNL1        0.1468
     33 H           1.1935   -2.6844    3.9408 H       1  UNL1        0.0591
     34 H           3.1768   -4.6945    2.6737 H       1  UNL1        0.0252
     35 H           2.4472   -3.4040    1.7604 H       1  UNL1        0.0252
     36 H           1.4157   -4.6524    2.4027 H       1  UNL1        0.0252
     37 H           0.2408   -5.1737    4.3575 H       1  UNL1        0.1591
     38 H          -0.8158   -7.1277    5.0820 H       1  UNL1        0.1564
     39 H          -1.2198   -9.5901    5.5663 H       1  UNL1        0.0636
     40 H          -1.9939  -11.1547    7.2975 H       1  UNL1        0.0621
     41 H          -2.0863  -11.8640    9.5862 H       1  UNL1        0.0278
     42 H          -2.4725  -10.5516   10.7119 H       1  UNL1        0.0278
     43 H          -0.8064  -11.1709   10.5834 H       1  UNL1        0.0278
     44 H          -0.7555   -8.3999   10.3566 H       1  UNL1        0.0621
     45 H          -0.0984   -6.7898    8.6543 H       1  UNL1        0.0636
     46 H           1.9563   -1.4748    2.0571 H       1  UNL1        0.0643
@<TRIPOS>BOND
     1     1     2    1
     2     2     3    2
     3     2     4    1
     4     4     5   ar
     5     5     6   ar
     6     6     7   ar
     7     7     8   ar
     8     8     9    1
     9     9    10    1
    10    10    11    1
    11    10    12    1
    12    12    13    2
    13    12    14   am
    14    14    15   am
    15    15    16    2
    16    15    17   am
    17    17    18    1
    18    18    19   ar
    19    19    20   ar
    20    20    21   ar
    21    21    22    1
    22    21    23   ar
    23    23    24   ar
    24    18    24   ar
    25     8    25   ar
    26     4    25   ar
    27     1    26    1
    28     1    27    1
    29     1    28    1
    30     5    29    1
    31     6    30    1
    32     7    31    1
    33     9    32    1
    34    10    33    1
    35    11    34    1
    36    11    35    1
    37    11    36    1
    38    14    37    1
    39    17    38    1
    40    19    39    1
    41    20    40    1
    42    22    41    1
    43    22    42    1
    44    22    43    1
    45    23    44    1
    46    24    45    1
    47    25    46    1
