@<TRIPOS>MOLECULE
*****
 72 74 0 0 0
SMALL
GASTEIGER

@<TRIPOS>ATOM
      1 C           0.9406   -0.3398    0.1798 C.3     1  UNL1       -0.0245
      2 C           2.4386   -0.1235    0.0933 C.3     1  UNL1       -0.0348
      3 N           2.8861    0.5892   -1.1809 N.4     1  UNL1        0.2359
      4 C           2.3940    2.0230   -1.3225 C.3     1  UNL1       -0.0348
      5 C           0.8982    2.1612   -1.4864 C.3     1  UNL1       -0.0245
      6 C           4.4292    0.5515   -1.2357 C.3     1  UNL1       -0.0160
      7 C           5.0026    1.1534   -2.5265 C.3     1  UNL1        0.0520
      8 N           6.4463    1.1772   -2.5757 N.am    1  UNL1       -0.3063
      9 C           7.0680    1.8304   -3.6399 C.2     1  UNL1        0.2442
     10 O           6.4524    2.3428   -4.5523 O.2     1  UNL1       -0.2702
     11 C           8.5508    1.8236   -3.6277 C.ar    1  UNL1        0.0368
     12 C           9.3477    2.8721   -4.1115 C.ar    1  UNL1       -0.0479
     13 C          10.7693    2.7315   -4.2247 C.ar    1  UNL1       -0.0398
     14 C          11.4075    1.5493   -3.8142 C.ar    1  UNL1        0.0326
     15 N          12.8633    1.3757   -3.7871 N.am    1  UNL1       -0.2966
     16 C          13.5797    0.2567   -3.2485 C.2     1  UNL1        0.1411
     17 S          12.8823   -1.1006   -2.5145 S.2     1  UNL1       -0.0182
     18 N          14.9892    0.3226   -3.3319 N.am    1  UNL1       -0.2636
     19 C          15.8288   -0.7523   -2.9389 C.2     1  UNL1        0.2496
     20 O          15.4822   -1.8445   -2.4923 O.2     1  UNL1       -0.2698
     21 C          17.2852   -0.6632   -2.9871 C.ar    1  UNL1        0.0405
     22 C          18.0012   -1.8348   -3.2960 C.ar    1  UNL1       -0.0494
     23 C          19.3682   -1.9049   -3.0593 C.ar    1  UNL1       -0.0576
     24 C          20.0288   -0.7827   -2.5684 C.ar    1  UNL1       -0.0199
     25 C          19.3119    0.3736   -2.2412 C.ar    1  UNL1        0.1212
     26 O          20.0502    1.3943   -1.7046 O.3     1  UNL1       -0.4916
     27 C          19.2713    2.5128   -1.2847 C.3     1  UNL1        0.0935
     28 C          20.1799    3.5715   -0.6963 C.3     1  UNL1        0.0066
     29 C          19.4092    4.7895   -0.2576 C.ar    1  UNL1       -0.0442
     30 C          19.8440    6.0621   -0.6399 C.ar    1  UNL1       -0.0585
     31 C          19.2446    7.1977   -0.0980 C.ar    1  UNL1       -0.0615
     32 C          18.1461    7.0739    0.7513 C.ar    1  UNL1       -0.0617
     33 C          17.6709    5.8126    1.0966 C.ar    1  UNL1       -0.0615
     34 C          18.3091    4.6760    0.6077 C.ar    1  UNL1       -0.0585
     35 C          17.9294    0.4254   -2.4331 C.ar    1  UNL1       -0.0078
     36 C          10.5302    0.5369   -3.4203 C.ar    1  UNL1       -0.0398
     37 C           9.1595    0.6500   -3.2737 C.ar    1  UNL1       -0.0479
     38 H           0.6924   -1.0219    0.9964 H       1  UNL1        0.0281
     39 H           0.5267   -0.7315   -0.7541 H       1  UNL1        0.0281
     40 H           0.4163    0.5689    0.4611 H       1  UNL1        0.0281
     41 H           2.9288   -1.1036    0.0915 H       1  UNL1        0.0812
     42 H           2.8078    0.4645    0.9390 H       1  UNL1        0.0812
     43 H           2.5472    0.0422   -1.9868 H       1  UNL1        0.2034
     44 H           2.8207    2.4187   -2.2440 H       1  UNL1        0.0812
     45 H           2.7783    2.5845   -0.4667 H       1  UNL1        0.0812
     46 H           0.5008    1.4422   -2.2087 H       1  UNL1        0.0281
     47 H           0.6523    3.1724   -1.8200 H       1  UNL1        0.0281
     48 H           0.3713    2.0784   -0.5417 H       1  UNL1        0.0281
     49 H           4.7333   -0.4984   -1.1441 H       1  UNL1        0.0830
     50 H           4.7920    1.0973   -0.3566 H       1  UNL1        0.0830
     51 H           4.7029    2.1972   -2.6396 H       1  UNL1        0.0515
     52 H           4.6322    0.6034   -3.3992 H       1  UNL1        0.0515
     53 H           7.0097    0.8490   -1.7991 H       1  UNL1        0.1492
     54 H           8.8626    3.8019   -4.4050 H       1  UNL1        0.0626
     55 H          11.3206    3.5578   -4.6704 H       1  UNL1        0.0636
     56 H          13.3858    2.1867   -4.1087 H       1  UNL1        0.1538
     57 H          15.4358    1.1540   -3.6928 H       1  UNL1        0.1568
     58 H          17.4733   -2.7173   -3.6590 H       1  UNL1        0.0625
     59 H          19.9049   -2.8355   -3.2265 H       1  UNL1        0.0619
     60 H          21.1050   -0.8195   -2.4183 H       1  UNL1        0.0654
     61 H          18.5505    2.1819   -0.5261 H       1  UNL1        0.0700
     62 H          18.7368    2.9422   -2.1428 H       1  UNL1        0.0700
     63 H          20.9449    3.8321   -1.4380 H       1  UNL1        0.0346
     64 H          20.7228    3.1646    0.1652 H       1  UNL1        0.0346
     65 H          20.6680    6.1774   -1.3411 H       1  UNL1        0.0620
     66 H          19.6518    8.1803   -0.3198 H       1  UNL1        0.0618
     67 H          17.6675    7.9625    1.1523 H       1  UNL1        0.0618
     68 H          16.8288    5.7103    1.7755 H       1  UNL1        0.0618
     69 H          17.9482    3.7026    0.9308 H       1  UNL1        0.0620
     70 H          17.3284    1.2578   -2.0914 H       1  UNL1        0.0662
     71 H          10.8234   -0.4745   -3.2460 H       1  UNL1        0.0636
     72 H           8.6212   -0.2356   -2.9500 H       1  UNL1        0.0626
@<TRIPOS>UNITY_ATOM_ATTR
3 1
charge 1
@<TRIPOS>BOND
     1     1     2    1
     2     2     3    1
     3     3     4    1
     4     4     5    1
     5     3     6    1
     6     6     7    1
     7     7     8    1
     8     8     9   am
     9     9    10    2
    10     9    11    1
    11    11    12   ar
    12    12    13   ar
    13    13    14   ar
    14    14    15    1
    15    15    16    1
    16    16    17    2
    17    16    18    1
    18    18    19   am
    19    19    20    2
    20    19    21    1
    21    21    22   ar
    22    22    23   ar
    23    23    24   ar
    24    24    25   ar
    25    25    26    1
    26    26    27    1
    27    27    28    1
    28    28    29    1
    29    29    30   ar
    30    30    31   ar
    31    31    32   ar
    32    32    33   ar
    33    33    34   ar
    34    29    34   ar
    35    25    35   ar
    36    21    35   ar
    37    14    36   ar
    38    36    37   ar
    39    11    37   ar
    40     1    38    1
    41     1    39    1
    42     1    40    1
    43     2    41    1
    44     2    42    1
    45     3    43    1
    46     4    44    1
    47     4    45    1
    48     5    46    1
    49     5    47    1
    50     5    48    1
    51     6    49    1
    52     6    50    1
    53     7    51    1
    54     7    52    1
    55     8    53    1
    56    12    54    1
    57    13    55    1
    58    15    56    1
    59    18    57    1
    60    22    58    1
    61    23    59    1
    62    24    60    1
    63    27    61    1
    64    27    62    1
    65    28    63    1
    66    28    64    1
    67    30    65    1
    68    31    66    1
    69    32    67    1
    70    33    68    1
    71    34    69    1
    72    35    70    1
    73    36    71    1
    74    37    72    1
