REMARK  10 active torsions:
REMARK  status: ('A' for Active; 'I' for Inactive)
REMARK    1  A    between atoms: C_2  and  C_3 
REMARK    2  A    between atoms: C_3  and  S_4 
REMARK    3  A    between atoms: S_4  and  C_5 
REMARK    4  A    between atoms: C_8  and  C_9 
REMARK       I    between atoms: C_9  and  N_11 
REMARK    5  A    between atoms: N_11  and  C_12 
REMARK    6  A    between atoms: C_13  and  C_12 
REMARK    7  A    between atoms: C_13  and  N_24 
REMARK    8  A    between atoms: C_13  and  C_14 
REMARK    9  A    between atoms: C_16  and  O_17 
REMARK   10  A    between atoms: C_21  and  O_22 
ROOT
ATOM      1  C   UNL d   1       6.055  -8.844   5.628  0.00  0.00     0.241 C 
ENDROOT
BRANCH   1   2
ATOM      2  N   UNL d   1       6.045  -9.975   6.687  0.00  0.00    -0.061 N 
ATOM      3  C   UNL d   1       4.613 -10.237   7.299  0.00  0.00     0.236 C 
ATOM      4  C   UNL d   1       4.628 -11.414   8.265  0.00  0.00     0.028 C 
ATOM      5  C   UNL d   1       5.129 -12.644   7.528  0.00  0.00     0.003 C 
ATOM      6  C   UNL d   1       6.557 -12.375   7.086  0.00  0.00     0.028 C 
ATOM      7  C   UNL d   1       6.580 -11.248   6.084  0.00  0.00     0.236 C 
ATOM      8  H   UNL d   1       6.636  -9.666   7.469  0.00  0.00     0.280 HD
ENDBRANCH   1   2
BRANCH   1   9
ATOM      9  C   UNL d   1       6.061  -7.402   6.044  0.00  0.00     0.010 A 
ATOM     10  C   UNL d   1       7.238  -6.803   6.581  0.00  0.00     0.049 A 
ATOM     11  C   UNL d   1       7.291  -5.430   6.872  0.00  0.00     0.069 A 
ATOM     12  C   UNL d   1       6.211  -4.635   6.513  0.00  0.00     0.039 A 
ATOM     13  C   UNL d   1       5.055  -5.210   5.970  0.00  0.00     0.040 A 
ATOM     14  C   UNL d   1       4.945  -6.589   5.740  0.00  0.00     0.076 A 
BRANCH  11  15
ATOM     15  O   UNL d   1       8.419  -4.973   7.505  0.00  0.00    -0.356 OA
ATOM     16  C   UNL d   1       8.373  -3.619   7.978  0.00  0.00     0.210 C 
ENDBRANCH  11  15
BRANCH  14  17
ATOM     17  O   UNL d   1       3.756  -6.933   5.135  0.00  0.00    -0.355 OA
ATOM     18  C   UNL d   1       3.199  -8.246   5.015  0.00  0.00     0.210 C 
ENDBRANCH  14  17
ENDBRANCH   1   9
BRANCH   1  19
ATOM     19  C   UNL d   1       6.670  -9.065   4.188  0.00  0.00     0.161 C 
BRANCH  19  20
ATOM     20  N   UNL d   1       5.811  -8.668   3.043  0.00  0.00    -0.354 N 
ATOM     21  C   UNL d   1       6.144  -8.985   1.740  0.00  0.00     0.256 C 
ATOM     22  O   UNL d   1       7.195  -9.602   1.502  0.00  0.00    -0.268 OA
ATOM     23  H   UNL d   1       5.063  -7.986   3.168  0.00  0.00     0.162 HD
BRANCH  21  24
ATOM     24  C   UNL d   1       5.250  -8.589   0.615  0.00  0.00     0.090 A 
ATOM     25  C   UNL d   1       5.646  -8.818  -0.685  0.00  0.00     0.139 A 
ATOM     26  N   UNL d   1       4.930  -8.454  -1.784  0.00  0.00    -0.234 NA
ATOM     27  C   UNL d   1       3.758  -7.835  -1.580  0.00  0.00     0.189 A 
ATOM     28  N   UNL d   1       3.254  -7.608  -0.376  0.00  0.00    -0.210 NA
ATOM     29  C   UNL d   1       4.012  -7.985   0.670  0.00  0.00     0.146 A 
ATOM     30 CL   UNL d   1       3.188  -7.525   2.083  0.00  0.00    -0.061 Cl
BRANCH  27  31
ATOM     31  S   UNL d   1       2.794  -7.308  -2.963  0.00  0.00    -0.090 SA
BRANCH  31  32
ATOM     32  C   UNL d   1       2.817  -5.492  -2.710  0.00  0.00     0.082 C 
BRANCH  32  33
ATOM     33  C   UNL d   1       2.006  -4.824  -3.825  0.00  0.00     0.006 C 
ATOM     34  C   UNL d   1       2.034  -3.304  -3.722  0.00  0.00     0.006 C 
ENDBRANCH  32  33
ENDBRANCH  31  32
ENDBRANCH  27  31
ENDBRANCH  21  24
ENDBRANCH  19  20
ENDBRANCH   1  19
TORSDOF 10
