@<TRIPOS>MOLECULE
*****
 72 74 0 0 0
SMALL
GASTEIGER

@<TRIPOS>ATOM
      1 C           1.0965    0.0025   -0.0092 C.3     1  UNL1       -0.0652
      2 C           2.6157   -0.0108   -0.0083 C.3     1  UNL1       -0.0528
      3 C           3.1586   -1.3875    0.3729 C.3     1  UNL1       -0.0189
      4 C           4.6875   -1.3995    0.3664 C.3     1  UNL1        0.0896
      5 O           5.1442   -2.7268    0.6466 O.3     1  UNL1       -0.4920
      6 C           6.4974   -2.8739    0.8028 C.ar    1  UNL1        0.1205
      7 C           7.0501   -4.0744    0.3596 C.ar    1  UNL1       -0.0192
      8 C           8.4084   -4.3599    0.5871 C.ar    1  UNL1       -0.0461
      9 C           9.2592   -3.4197    1.2008 C.ar    1  UNL1        0.0386
     10 C          10.7361   -3.7236    1.2921 C.2     1  UNL1        0.2633
     11 O          11.1343   -4.7995    0.8475 O.2     1  UNL1       -0.2685
     12 N          11.5817   -2.7545    1.8516 N.am    1  UNL1       -0.2030
     13 N          12.9346   -2.9975    1.9107 N.2     1  UNL1       -0.1875
     14 C          13.6909   -2.1254    2.5042 C.2     1  UNL1        0.0529
     15 C          15.1645   -2.3197    2.5600 C.ar    1  UNL1       -0.0018
     16 C          15.9566   -1.9417    3.6513 C.ar    1  UNL1       -0.0494
     17 C          17.3667   -2.0596    3.5787 C.ar    1  UNL1       -0.0150
     18 C          17.9727   -2.5723    2.4163 C.ar    1  UNL1        0.1734
     19 O          19.4132   -2.7375    2.4184 O.3     1  UNL1       -0.4186
     20 C          20.1599   -3.4233    1.4505 C.2     1  UNL1        0.3446
     21 O          19.7924   -4.0364    0.4481 O.2     1  UNL1       -0.2445
     22 C          21.6007   -3.5084    1.6709 C.ar    1  UNL1        0.0596
     23 C          22.4239   -3.3290    0.5434 C.ar    1  UNL1       -0.0443
     24 C          23.7394   -3.7874    0.5528 C.ar    1  UNL1       -0.0192
     25 C          24.2624   -4.3599    1.7115 C.ar    1  UNL1        0.1205
     26 O          25.5940   -4.6802    1.6561 O.3     1  UNL1       -0.4920
     27 C          26.1688   -5.1152    2.8889 C.3     1  UNL1        0.0896
     28 C          27.6737   -5.2718    2.7187 C.3     1  UNL1       -0.0189
     29 C          28.3111   -5.8055    3.9998 C.3     1  UNL1       -0.0528
     30 C          29.8097   -5.9804    3.8324 C.3     1  UNL1       -0.0652
     31 C          23.4267   -4.5623    2.8199 C.ar    1  UNL1       -0.0192
     32 C          22.0918   -4.1494    2.8017 C.ar    1  UNL1       -0.0443
     33 C          17.1610   -2.8783    1.3135 C.ar    1  UNL1        0.1628
     34 O          17.7670   -3.0957    0.1256 O.3     1  UNL1       -0.4914
     35 C          17.0488   -3.6305   -0.9646 C.3     1  UNL1        0.0790
     36 C          15.7727   -2.8008    1.4081 C.ar    1  UNL1       -0.0076
     37 C           8.6866   -2.2287    1.6580 C.ar    1  UNL1       -0.0461
     38 C           7.3191   -1.9627    1.4641 C.ar    1  UNL1       -0.0192
     39 H           0.7240    0.9921   -0.2918 H       1  UNL1        0.0230
     40 H           0.7038   -0.2393    0.9834 H       1  UNL1        0.0230
     41 H           0.7017   -0.7272   -0.7231 H       1  UNL1        0.0230
     42 H           2.9829    0.7466    0.6947 H       1  UNL1        0.0264
     43 H           2.9793    0.2691   -1.0040 H       1  UNL1        0.0264
     44 H           2.7780   -2.1510   -0.3159 H       1  UNL1        0.0298
     45 H           2.7945   -1.6710    1.3692 H       1  UNL1        0.0298
     46 H           5.0291   -0.6793    1.1159 H       1  UNL1        0.0696
     47 H           5.0568   -1.1030   -0.6217 H       1  UNL1        0.0696
     48 H           6.4292   -4.7912   -0.1753 H       1  UNL1        0.0654
     49 H           8.7960   -5.3310    0.2785 H       1  UNL1        0.0626
     50 H          11.2406   -1.8694    2.1952 H       1  UNL1        0.1776
     51 H          13.2971   -1.1990    2.9569 H       1  UNL1        0.0851
     52 H          15.4903   -1.5839    4.5667 H       1  UNL1        0.0625
     53 H          17.9726   -1.7236    4.4186 H       1  UNL1        0.0656
     54 H          22.0085   -2.9058   -0.3710 H       1  UNL1        0.0627
     55 H          24.3385   -3.7255   -0.3535 H       1  UNL1        0.0654
     56 H          25.7364   -6.0847    3.1610 H       1  UNL1        0.0696
     57 H          25.9786   -4.3808    3.6826 H       1  UNL1        0.0696
     58 H          28.1170   -4.3057    2.4467 H       1  UNL1        0.0298
     59 H          27.8781   -5.9481    1.8802 H       1  UNL1        0.0298
     60 H          27.8621   -6.7698    4.2665 H       1  UNL1        0.0264
     61 H          28.1161   -5.1183    4.8319 H       1  UNL1        0.0264
     62 H          30.0301   -6.6850    3.0243 H       1  UNL1        0.0230
     63 H          30.2536   -6.3677    4.7543 H       1  UNL1        0.0230
     64 H          30.2883   -5.0248    3.5968 H       1  UNL1        0.0230
     65 H          23.7773   -5.0828    3.7043 H       1  UNL1        0.0654
     66 H          21.4337   -4.3999    3.6281 H       1  UNL1        0.0627
     67 H          17.7850   -3.9580   -1.7040 H       1  UNL1        0.0660
     68 H          16.4489   -2.8333   -1.4060 H       1  UNL1        0.0660
     69 H          16.4415   -4.4986   -0.6889 H       1  UNL1        0.0660
     70 H          15.1489   -3.0541    0.5576 H       1  UNL1        0.0662
     71 H           9.2645   -1.4827    2.1878 H       1  UNL1        0.0626
     72 H           6.9207   -1.0381    1.8664 H       1  UNL1        0.0654
@<TRIPOS>BOND
     1     1     2    1
     2     2     3    1
     3     3     4    1
     4     4     5    1
     5     5     6    1
     6     6     7   ar
     7     7     8   ar
     8     8     9   ar
     9     9    10    1
    10    10    11    2
    11    10    12   am
    12    12    13    1
    13    13    14    2
    14    14    15    1
    15    15    16   ar
    16    16    17   ar
    17    17    18   ar
    18    18    19    1
    19    19    20    1
    20    20    21    2
    21    20    22    1
    22    22    23   ar
    23    23    24   ar
    24    24    25   ar
    25    25    26    1
    26    26    27    1
    27    27    28    1
    28    28    29    1
    29    29    30    1
    30    25    31   ar
    31    31    32   ar
    32    22    32   ar
    33    18    33   ar
    34    33    34    1
    35    34    35    1
    36    33    36   ar
    37    15    36   ar
    38     9    37   ar
    39    37    38   ar
    40     6    38   ar
    41     1    39    1
    42     1    40    1
    43     1    41    1
    44     2    42    1
    45     2    43    1
    46     3    44    1
    47     3    45    1
    48     4    46    1
    49     4    47    1
    50     7    48    1
    51     8    49    1
    52    12    50    1
    53    14    51    1
    54    16    52    1
    55    17    53    1
    56    23    54    1
    57    24    55    1
    58    27    56    1
    59    27    57    1
    60    28    58    1
    61    28    59    1
    62    29    60    1
    63    29    61    1
    64    30    62    1
    65    30    63    1
    66    30    64    1
    67    31    65    1
    68    32    66    1
    69    35    67    1
    70    35    68    1
    71    35    69    1
    72    36    70    1
    73    37    71    1
    74    38    72    1
