REMARK  4 active torsions:
REMARK  status: ('A' for Active; 'I' for Inactive)
REMARK    1  A    between atoms: C_2  and  C_4 
REMARK    2  A    between atoms: C_2  and  O_3 
REMARK    3  A    between atoms: C_8  and  N_9 
REMARK       I    between atoms: N_9  and  C_10 
REMARK    4  A    between atoms: C_10  and  C_12 
ROOT
ATOM      1  N   UNL d   1       5.374  -1.796  -3.599  0.00  0.00    -0.323 N 
ATOM      2  C   UNL d   1       6.011  -0.585  -3.813  0.00  0.00     0.257 C 
ATOM      3  O   UNL d   1       5.821   0.471  -3.203  0.00  0.00    -0.267 OA
ATOM      4  H   UNL d   1       5.651  -2.592  -4.164  0.00  0.00     0.169 HD
ENDROOT
BRANCH   1   5
ATOM      5  C   UNL d   1       4.333  -2.017  -2.664  0.00  0.00     0.035 A 
ATOM      6  C   UNL d   1       3.807  -3.303  -2.500  0.00  0.00     0.029 A 
ATOM      7  C   UNL d   1       2.833  -3.545  -1.523  0.00  0.00     0.003 A 
ATOM      8  C   UNL d   1       2.329  -2.497  -0.755  0.00  0.00     0.010 A 
ATOM      9  C   UNL d   1       2.827  -1.203  -0.917  0.00  0.00    -0.028 A 
ATOM     10  C   UNL d   1       3.823  -0.986  -1.873  0.00  0.00     0.039 A 
BRANCH   9  11
ATOM     11  C   UNL d   1       2.408  -0.049  -0.037  0.00  0.00     0.147 C 
ATOM     12  C   UNL d   1       2.951  -0.237   1.373  0.00  0.00     0.044 C 
BRANCH  11  13
ATOM     13  O   UNL d   1       0.990   0.059   0.007  0.00  0.00    -0.391 OA
ATOM     14  H   UNL d   1       0.641  -0.799   0.290  0.00  0.00     0.210 HD
ENDBRANCH  11  13
ENDBRANCH   9  11
ENDBRANCH   1   5
BRANCH   2  15
ATOM     15  C   UNL d   1       7.048  -0.502  -4.859  0.00  0.00     0.054 A 
ATOM     16  C   UNL d   1       8.158   0.321  -4.572  0.00  0.00     0.020 A 
ATOM     17  C   UNL d   1       9.080   0.640  -5.567  0.00  0.00     0.025 A 
ATOM     18  C   UNL d   1       8.933   0.084  -6.833  0.00  0.00     0.035 A 
ATOM     19 CL   UNL d   1      10.127   0.376  -8.034  0.00  0.00    -0.084 Cl
ATOM     20  C   UNL d   1       7.843  -0.736  -7.127  0.00  0.00     0.048 A 
ATOM     21  C   UNL d   1       6.893  -1.028  -6.144  0.00  0.00     0.051 A 
ATOM     22 CL   UNL d   1       5.552  -2.009  -6.612  0.00  0.00    -0.083 Cl
ENDBRANCH   2  15
TORSDOF 4
