REMARK  12 active torsions:
REMARK  status: ('A' for Active; 'I' for Inactive)
REMARK    1  A    between atoms: C_2  and  C_3 
REMARK    2  A    between atoms: C_3  and  C_4 
REMARK    3  A    between atoms: C_6  and  C_7 
REMARK    4  A    between atoms: N_8  and  N_9 
REMARK       I    between atoms: N_9  and  C_10 
REMARK    5  A    between atoms: C_10  and  C_12 
REMARK    6  A    between atoms: C_12  and  C_13 
REMARK    7  A    between atoms: C_13  and  C_14 
REMARK    8  A    between atoms: C_14  and  O_15 
REMARK    9  A    between atoms: C_14  and  C_16 
REMARK   10  A    between atoms: C_19  and  O_20 
REMARK   11  A    between atoms: O_20  and  C_21 
REMARK   12  A    between atoms: C_27  and  O_28 
ROOT
ATOM      1  N   UNL d   1       9.440  -1.399   0.045  0.00  0.00    -0.247 N 
ATOM      2  C   UNL d   1      10.771  -1.661   0.187  0.00  0.00     0.237 C 
ATOM      3  O   UNL d   1      11.281  -2.780   0.229  0.00  0.00    -0.272 OA
ATOM      4  H   UNL d   1       9.259  -0.440  -0.059  0.00  0.00     0.192 HD
ENDROOT
BRANCH   2   5
ATOM      5  C   UNL d   1      11.569  -0.347   0.293  0.00  0.00     0.107 C 
BRANCH   5   6
ATOM      6  C   UNL d   1      13.021  -0.719   0.444  0.00  0.00     0.046 C 
BRANCH   6   7
ATOM      7  C   UNL d   1      14.010   0.431   0.582  0.00  0.00     0.151 C 
BRANCH   7   8
ATOM      8  O   UNL d   1      13.649   1.215   1.716  0.00  0.00    -0.391 OA
ATOM      9  H   UNL d   1      13.819   0.665   2.502  0.00  0.00     0.210 HD
ENDBRANCH   7   8
BRANCH   7  10
ATOM     10  C   UNL d   1      15.429  -0.085   0.742  0.00  0.00    -0.029 A 
ATOM     11  C   UNL d   1      16.491   0.818   0.853  0.00  0.00     0.012 A 
ATOM     12  C   UNL d   1      17.802   0.354   1.001  0.00  0.00     0.037 A 
ATOM     13  C   UNL d   1      18.070  -1.016   1.041  0.00  0.00     0.068 A 
ATOM     14  C   UNL d   1      17.026  -1.920   0.913  0.00  0.00     0.037 A 
ATOM     15  C   UNL d   1      15.724  -1.461   0.766  0.00  0.00     0.012 A 
BRANCH  13  16
ATOM     16  O   UNL d   1      19.294  -1.598   1.200  0.00  0.00    -0.352 OA
BRANCH  16  17
ATOM     17  C   UNL d   1      20.391  -0.709   1.364  0.00  0.00     0.171 C 
ATOM     18  C   UNL d   1      21.639  -1.548   1.536  0.00  0.00     0.034 C 
ENDBRANCH  16  17
ENDBRANCH  13  16
ENDBRANCH   7  10
ENDBRANCH   6   7
ENDBRANCH   5   6
ENDBRANCH   2   5
BRANCH   1  19
ATOM     19  N   UNL d   1       8.441  -2.295  -0.077  0.00  0.00    -0.184 NA
ATOM     20  C   UNL d   1       7.208  -1.879  -0.222  0.00  0.00     0.150 C 
BRANCH  20  21
ATOM     21  C   UNL d   1       6.616  -0.497  -0.279  0.00  0.00    -0.016 A 
ATOM     22  C   UNL d   1       5.236  -0.365  -0.462  0.00  0.00     0.023 A 
ATOM     23  C   UNL d   1       4.625   0.919  -0.471  0.00  0.00    -0.021 A 
ATOM     24  C   UNL d   1       5.423   2.065  -0.394  0.00  0.00     0.072 A 
ATOM     25  C   UNL d   1       6.774   1.950  -0.225  0.00  0.00     0.038 A 
ATOM     26  C   UNL d   1       7.337   0.692  -0.144  0.00  0.00     0.015 A 
BRANCH  23  27
ATOM     27  C   UNL d   1       3.135   1.102  -0.599  0.00  0.00     0.067 C 
BRANCH  27  28
ATOM     28  C   UNL d   1       2.329   0.034   0.078  0.00  0.00    -0.032 C 
ATOM     29  C   UNL d   1       0.994   0.022   0.063  0.00  0.00     0.007 C 
ENDBRANCH  27  28
ENDBRANCH  23  27
BRANCH  24  30
ATOM     30  O   UNL d   1       4.883   3.312  -0.473  0.00  0.00    -0.360 OA
ATOM     31  H   UNL d   1       5.600   3.965  -0.397  0.00  0.00     0.217 HD
ENDBRANCH  24  30
ENDBRANCH  20  21
ENDBRANCH   1  19
TORSDOF 12
