REMARK  11 active torsions:
REMARK  status: ('A' for Active; 'I' for Inactive)
REMARK    1  A    between atoms: C_5  and  N_6 
REMARK       I    between atoms: N_6  and  C_7 
REMARK    2  A    between atoms: C_7  and  C_9 
REMARK    3  A    between atoms: C_9  and  N_10 
REMARK    4  A    between atoms: N_10  and  C_11 
REMARK    5  A    between atoms: C_13  and  N_14 
REMARK    6  A    between atoms: C_19  and  N_20 
REMARK    7  A    between atoms: N_20  and  C_21 
REMARK    8  A    between atoms: C_21  and  C_22 
REMARK    9  A    between atoms: C_22  and  O_23 
REMARK   10  A    between atoms: C_25  and  S_26 
REMARK   11  A    between atoms: S_26  and  N_29 
ROOT
ATOM      1  C   UNL d   1      -5.254   1.450  -0.578  0.00  0.00     0.223 C 
ENDROOT
BRANCH   1   2
ATOM      2  C   UNL d   1      -3.767   1.560  -0.418  0.00  0.00     0.239 C 
ATOM      3  N   UNL d   1      -3.134   0.294  -0.296  0.00  0.00    -0.326 N 
ATOM      4  H   UNL d   1      -3.681  -0.557  -0.357  0.00  0.00     0.169 HD
ATOM      5  O   UNL d   1      -3.283   2.671  -0.221  0.00  0.00    -0.271 OA
BRANCH   3   6
ATOM      6  C   UNL d   1      -1.752   0.126  -0.091  0.00  0.00     0.036 A 
ATOM      7  C   UNL d   1      -1.162  -1.136  -0.034  0.00  0.00     0.030 A 
ATOM      8  C   UNL d   1       0.236  -1.232   0.039  0.00  0.00     0.010 A 
ATOM      9  C   UNL d   1       1.062  -0.090   0.106  0.00  0.00    -0.039 A 
ATOM     10  C   UNL d   1       2.526  -0.324   0.304  0.00  0.00     0.050 C 
ATOM     11  C   UNL d   1       0.450   1.164   0.037  0.00  0.00     0.082 A 
ATOM     12  C   UNL d   1      -0.935   1.240  -0.020  0.00  0.00     0.054 A 
BRANCH  11  13
ATOM     13  S   UNL d   1       1.194   2.782  -0.030  0.00  0.00     0.243 S 
ATOM     14  O   UNL d   1       0.750   3.417  -1.246  0.00  0.00    -0.206 OA
ATOM     15  O   UNL d   1       0.950   3.400   1.269  0.00  0.00    -0.206 OA
BRANCH  13  16
ATOM     16  N   UNL d   1       2.864   2.551  -0.207  0.00  0.00    -0.215 NA
ATOM     17  C   UNL d   1       3.249   1.969  -1.514  0.00  0.00     0.129 C 
ATOM     18  C   UNL d   1       3.636   3.793   0.007  0.00  0.00     0.129 C 
ENDBRANCH  13  16
ENDBRANCH  11  13
ENDBRANCH   3   6
ENDBRANCH   1   2
BRANCH   1  19
ATOM     19  N   UNL d   1      -6.006   2.685  -0.367  0.00  0.00    -0.379 N 
ATOM     20  H   UNL d   1      -5.417   3.480  -0.097  0.00  0.00     0.160 HD
BRANCH  19  21
ATOM     21  C   UNL d   1      -7.380   2.852  -0.158  0.00  0.00     0.057 A 
ATOM     22  C   UNL d   1      -7.932   3.931  -0.909  0.00  0.00     0.067 A 
ATOM     23  C   UNL d   1      -9.274   4.320  -0.772  0.00  0.00     0.105 A 
ATOM     24  C   UNL d   1     -10.138   3.585   0.028  0.00  0.00     0.038 A 
ATOM     25  C   UNL d   1      -9.626   2.535   0.783  0.00  0.00     0.034 A 
ATOM     26  C   UNL d   1      -8.264   2.150   0.744  0.00  0.00     0.054 A 
BRANCH  23  27
ATOM     27  N   UNL d   1      -9.765   5.563  -1.385  0.00  0.00    -0.116 N 
ATOM     28  O   UNL d   1      -8.975   6.229  -2.068  0.00  0.00    -0.532 OA
ATOM     29  O   UNL d   1     -10.939   5.892  -1.154  0.00  0.00    -0.532 OA
ENDBRANCH  23  27
BRANCH  26  30
ATOM     30  N   UNL d   1      -7.945   1.223   1.785  0.00  0.00    -0.386 N 
ATOM     31  H   UNL d   1      -8.705   0.615   2.064  0.00  0.00     0.159 HD
BRANCH  30  32
ATOM     32  C   UNL d   1      -6.671   0.604   1.687  0.00  0.00     0.146 C 
BRANCH  32  33
ATOM     33  C   UNL d   1      -6.202  -0.556   2.528  0.00  0.00     0.183 C 
BRANCH  33  34
ATOM     34  O   UNL d   1      -4.790  -0.769   2.323  0.00  0.00    -0.399 OA
ATOM     35  H   UNL d   1      -4.634  -1.071   1.415  0.00  0.00     0.209 HD
ENDBRANCH  33  34
ENDBRANCH  32  33
ENDBRANCH  30  32
ENDBRANCH  26  30
ENDBRANCH  19  21
ENDBRANCH   1  19
TORSDOF 11
