@<TRIPOS>MOLECULE
*****
 65 67 0 0 0
SMALL
GASTEIGER

@<TRIPOS>ATOM
      1 C           0.8850   -0.1478   -0.1179 C.3     1  UNL1       -0.0612
      2 C           2.3908    0.0356   -0.0021 C.3     1  UNL1       -0.0284
      3 C           2.9038    1.3045   -0.6456 C.ar    1  UNL1       -0.0121
      4 C           3.9082    1.4241   -1.6082 C.ar    1  UNL1        0.1020
      5 C           4.7157    0.4175   -2.3138 C.2     1  UNL1        0.3460
      6 O           5.5000    0.6244   -3.2129 O.2     1  UNL1       -0.2444
      7 O           4.4370   -0.8296   -1.8267 O.3     1  UNL1       -0.4641
      8 C           5.1078   -1.9277   -2.4475 C.3     1  UNL1        0.0820
      9 S           4.1760    3.0851   -2.0374 S.2     1  UNL1       -0.0617
     10 C           2.9361    3.6436   -1.0277 C.ar    1  UNL1        0.1166
     11 N           2.6268    4.9674   -0.8576 N.ar    1  UNL1       -0.2211
     12 C           1.5044    5.1642   -0.2235 C.ar    1  UNL1        0.1564
     13 C           1.1913    6.5538    0.3619 C.3     1  UNL1        0.0278
     14 N           0.1879    6.6402    1.5779 N.4     1  UNL1        0.2443
     15 C           0.7673    6.0724    2.9163 C.3     1  UNL1       -0.0013
     16 C           1.3355    4.6877    2.7774 C.3     1  UNL1        0.1286
     17 O           2.4503    4.6939    1.9167 O.3     1  UNL1       -0.3831
     18 C           1.7847    3.9922    4.0068 C.3     1  UNL1        0.1204
     19 O           2.0833    2.6504    3.6134 O.3     1  UNL1       -0.4889
     20 C           2.5130    1.8804    4.6459 C.ar    1  UNL1        0.1235
     21 C           3.6901    1.1558    4.4201 C.ar    1  UNL1       -0.0197
     22 C           4.2664    0.4515    5.4708 C.ar    1  UNL1       -0.0583
     23 C           3.6506    0.4604    6.7204 C.ar    1  UNL1       -0.0613
     24 C           2.4350    1.1164    6.9083 C.ar    1  UNL1       -0.0554
     25 C           1.8268    1.8044    5.8645 C.ar    1  UNL1       -0.0088
     26 C           0.4713    2.4032    6.1061 C.3     1  UNL1       -0.0362
     27 C          -0.2634    8.0904    1.8477 C.3     1  UNL1       -0.0261
     28 C          -0.8181    8.7335    0.5820 C.3     1  UNL1       -0.0218
     29 C          -1.3618    8.0965    2.9191 C.3     1  UNL1       -0.0218
     30 N           0.6158    4.1513    0.0689 N.ar    1  UNL1       -0.3061
     31 C           1.1603    2.9290    0.3816 C.ar    1  UNL1        0.2602
     32 O           0.7005    2.2963    1.3262 O.2     1  UNL1       -0.2671
     33 C           2.3182    2.5894   -0.3950 C.ar    1  UNL1        0.0759
     34 H           0.5872   -1.1198    0.2730 H       1  UNL1        0.0233
     35 H           0.5608   -0.0267   -1.1543 H       1  UNL1        0.0233
     36 H           0.2948    0.5503    0.4560 H       1  UNL1        0.0233
     37 H           2.7994   -0.8462   -0.4862 H       1  UNL1        0.0311
     38 H           2.7346   -0.0108    1.0394 H       1  UNL1        0.0311
     39 H           4.7617   -2.8473   -1.9618 H       1  UNL1        0.0661
     40 H           6.1867   -1.8466   -2.2973 H       1  UNL1        0.0661
     41 H           4.8542   -1.9892   -3.5093 H       1  UNL1        0.0661
     42 H           0.7672    7.1102   -0.4684 H       1  UNL1        0.0897
     43 H           2.1017    7.0512    0.7167 H       1  UNL1        0.0897
     44 H          -0.6655    6.1378    1.3066 H       1  UNL1        0.2041
     45 H          -0.0655    6.0184    3.6208 H       1  UNL1        0.0841
     46 H           1.5396    6.7667    3.2454 H       1  UNL1        0.0841
     47 H           0.4802    4.0878    2.4575 H       1  UNL1        0.0681
     48 H           3.1784    5.2478    2.2365 H       1  UNL1        0.2102
     49 H           0.8930    4.0636    4.5991 H       1  UNL1        0.0725
     50 H           2.6555    4.4820    4.4427 H       1  UNL1        0.0725
     51 H           4.1720    1.1598    3.4432 H       1  UNL1        0.0654
     52 H           5.1990   -0.0882    5.3274 H       1  UNL1        0.0619
     53 H           4.1046   -0.0602    7.5573 H       1  UNL1        0.0618
     54 H           1.9505    1.0879    7.8792 H       1  UNL1        0.0621
     55 H           0.0533    2.1169    7.0694 H       1  UNL1        0.0279
     56 H          -0.2270    2.0999    5.3153 H       1  UNL1        0.0279
     57 H           0.5250    3.4890    6.1925 H       1  UNL1        0.0279
     58 H           0.6232    8.6291    2.1999 H       1  UNL1        0.0846
     59 H          -1.6622    8.1600    0.1848 H       1  UNL1        0.0284
     60 H          -0.0657    8.8368   -0.2020 H       1  UNL1        0.0284
     61 H          -1.1586    9.7507    0.7958 H       1  UNL1        0.0284
     62 H          -2.2266    7.5027    2.6018 H       1  UNL1        0.0284
     63 H          -1.6976    9.1188    3.1150 H       1  UNL1        0.0284
     64 H          -1.0234    7.7109    3.8841 H       1  UNL1        0.0284
     65 H          -0.1498    4.3178    0.6943 H       1  UNL1        0.1702
@<TRIPOS>UNITY_ATOM_ATTR
14 1
charge 1
@<TRIPOS>BOND
     1     1     2    1
     2     2     3    1
     3     3     4   ar
     4     4     5    1
     5     5     6    2
     6     5     7    1
     7     7     8    1
     8     4     9   ar
     9     9    10   ar
    10    10    11   ar
    11    11    12   ar
    12    12    13    1
    13    13    14    1
    14    14    15    1
    15    15    16    1
    16    16    17    1
    17    16    18    1
    18    18    19    1
    19    19    20    1
    20    20    21   ar
    21    21    22   ar
    22    22    23   ar
    23    23    24   ar
    24    24    25   ar
    25    20    25   ar
    26    25    26    1
    27    14    27    1
    28    27    28    1
    29    27    29    1
    30    12    30   ar
    31    30    31   ar
    32    31    32    2
    33    31    33   ar
    34     3    33   ar
    35    10    33   ar
    36     1    34    1
    37     1    35    1
    38     1    36    1
    39     2    37    1
    40     2    38    1
    41     8    39    1
    42     8    40    1
    43     8    41    1
    44    13    42    1
    45    13    43    1
    46    14    44    1
    47    15    45    1
    48    15    46    1
    49    16    47    1
    50    17    48    1
    51    18    49    1
    52    18    50    1
    53    21    51    1
    54    22    52    1
    55    23    53    1
    56    24    54    1
    57    26    55    1
    58    26    56    1
    59    26    57    1
    60    27    58    1
    61    28    59    1
    62    28    60    1
    63    28    61    1
    64    29    62    1
    65    29    63    1
    66    29    64    1
    67    30    65    1
