REMARK  7 active torsions:
REMARK  status: ('A' for Active; 'I' for Inactive)
REMARK    1  A    between atoms: C_5  and  C_4 
REMARK    2  A    between atoms: C_6  and  C_7 
REMARK       I    between atoms: C_7  and  N_9 
REMARK    3  A    between atoms: N_9  and  C_10 
REMARK    4  A    between atoms: C_11  and  C_10 
REMARK    5  A    between atoms: C_11  and  C_13 
REMARK    6  A    between atoms: C_11  and  O_12 
REMARK    7  A    between atoms: C_16  and  N_17 
ROOT
ATOM      1  C   UNL d   1      10.362  -2.015   6.577  0.00  0.00     0.223 C 
ATOM      2  O   UNL d   1      11.464  -1.825   6.048  0.00  0.00    -0.273 OA
ATOM      3  N   UNL d   1       9.297  -1.075   6.487  0.00  0.00    -0.358 N 
ATOM      4  H   UNL d   1       8.357  -1.330   6.767  0.00  0.00     0.162 HD
ENDROOT
BRANCH   3   5
ATOM      5  C   UNL d   1       9.580   0.001   5.559  0.00  0.00     0.159 C 
BRANCH   5   6
ATOM      6  C   UNL d   1       9.240   1.523   5.531  0.00  0.00     0.169 C 
BRANCH   6   7
ATOM      7  C   UNL d   1      10.510   2.417   5.675  0.00  0.00    -0.028 C 
ATOM      8  C   UNL d   1      11.801   1.883   5.920  0.00  0.00     0.012 C 
ATOM      9  C   UNL d   1      12.885   2.659   6.291  0.00  0.00     0.037 C 
ATOM     10  C   UNL d   1      12.764   4.034   6.231  0.00  0.00     0.102 C 
ATOM     11  C   UNL d   1      11.537   4.624   5.892  0.00  0.00     0.037 C 
ATOM     12  C   UNL d   1      10.412   3.817   5.630  0.00  0.00     0.012 C 
BRANCH  10  13
ATOM     13  N   UNL d   1      13.968   4.840   6.436  0.00  0.00    -0.116 N 
ATOM     14  O   UNL d   1      15.023   4.244   6.705  0.00  0.00    -0.532 OA
ATOM     15  O   UNL d   1      13.868   6.065   6.302  0.00  0.00    -0.532 OA
ENDBRANCH  10  13
ENDBRANCH   6   7
BRANCH   6  16
ATOM     16  O   UNL d   1       8.658   1.821   4.250  0.00  0.00    -0.389 OA
ATOM     17  H   UNL d   1       9.352   1.677   3.579  0.00  0.00     0.210 HD
ENDBRANCH   6  16
ENDBRANCH   5   6
ENDBRANCH   3   5
BRANCH   1  18
ATOM     18  C   UNL d   1      10.129  -3.258   7.334  0.00  0.00     0.094 A 
ATOM     19  C   UNL d   1      11.127  -4.379   7.565  0.00  0.00     0.030 A 
ATOM     20  C   UNL d   1      10.739  -3.470   8.718  0.00  0.00    -0.027 A 
ATOM     21  C   UNL d   1       9.857  -4.072   9.785  0.00  0.00     0.016 C 
ATOM     22  C   UNL d   1      11.674  -2.414   9.259  0.00  0.00     0.016 C 
BRANCH  19  23
ATOM     23  C   UNL d   1      12.532  -4.537   7.112  0.00  0.00    -0.019 C 
ATOM     24  C   UNL d   1      13.288  -5.630   7.404  0.00  0.00    -0.091 C 
ATOM     25  C   UNL d   1      12.769  -6.692   8.342  0.00  0.00     0.042 C 
ATOM     26  C   UNL d   1      14.640  -5.902   6.788  0.00  0.00     0.042 C 
ENDBRANCH  19  23
ENDBRANCH   1  18
TORSDOF 7
