REMARK  5 active torsions:
REMARK  status: ('A' for Active; 'I' for Inactive)
REMARK    1  A    between atoms: C_5  and  N_6 
REMARK    2  A    between atoms: C_8  and  C_9 
REMARK       I    between atoms: C_9  and  N_11 
REMARK    3  A    between atoms: N_11  and  N_12 
REMARK    4  A    between atoms: C_13  and  C_14 
REMARK    5  A    between atoms: C_18  and  C_19 
ROOT
ATOM      1  N   UNL d   1      -3.078  -1.396  -0.109  0.00  0.00    -0.196 N 
ATOM      2  N   UNL d   1      -3.943  -1.107  -1.169  0.00  0.00    -0.158 NA
ATOM      3  C   UNL d   1      -5.053  -1.794  -1.266  0.00  0.00     0.158 A 
ATOM      4  C   UNL d   1      -5.439  -2.825  -0.256  0.00  0.00     0.016 A 
ATOM      5  C   UNL d   1      -6.571  -3.636  -0.352  0.00  0.00     0.015 C 
ATOM      6  C   UNL d   1      -6.742  -4.730   0.493  0.00  0.00     0.001 C 
ATOM      7  C   UNL d   1      -5.949  -4.862   1.621  0.00  0.00     0.001 C 
ATOM      8  C   UNL d   1      -4.896  -3.980   1.816  0.00  0.00     0.018 C 
ATOM      9  C   UNL d   1      -4.591  -3.033   0.825  0.00  0.00     0.047 A 
ATOM     10  C   UNL d   1      -3.330  -2.305   0.911  0.00  0.00     0.279 A 
ATOM     11  O   UNL d   1      -2.584  -2.540   1.870  0.00  0.00    -0.265 OA
ENDROOT
BRANCH   3  12
ATOM     12  C   UNL d   1      -5.973  -1.547  -2.497  0.00  0.00     0.292 C 
ATOM     13  O   UNL d   1      -7.026  -2.170  -2.624  0.00  0.00    -0.264 OA
ATOM     14  N   UNL d   1      -5.558  -0.613  -3.437  0.00  0.00    -0.242 N 
ATOM     15  H   UNL d   1      -4.662  -0.145  -3.345  0.00  0.00     0.192 HD
BRANCH  14  16
ATOM     16  N   UNL d   1      -6.415  -0.357  -4.490  0.00  0.00    -0.183 NA
ATOM     17  C   UNL d   1      -6.037   0.451  -5.426  0.00  0.00     0.150 C 
BRANCH  17  18
ATOM     18  C   UNL d   1      -6.919   0.709  -6.598  0.00  0.00    -0.016 C 
ATOM     19  C   UNL d   1      -8.296   0.885  -6.432  0.00  0.00     0.013 C 
ATOM     20  C   UNL d   1      -9.125   1.047  -7.547  0.00  0.00     0.002 C 
ATOM     21  C   UNL d   1      -8.602   0.891  -8.829  0.00  0.00     0.016 C 
ATOM     22  C   UNL d   1      -7.224   0.701  -9.012  0.00  0.00     0.048 C 
ATOM     23  C   UNL d   1      -6.373   0.700  -7.887  0.00  0.00     0.029 C 
BRANCH  22  24
ATOM     24  C   UNL d   1      -6.698   0.426 -10.401  0.00  0.00     0.417 C 
ATOM     25  F   UNL d   1      -7.224  -0.713 -10.934  0.00  0.00    -0.166 F 
ATOM     26  F   UNL d   1      -6.992   1.420 -11.282  0.00  0.00    -0.166 F 
ATOM     27  F   UNL d   1      -5.347   0.268 -10.447  0.00  0.00    -0.166 F 
ENDBRANCH  22  24
ENDBRANCH  17  18
ENDBRANCH  14  16
ENDBRANCH   3  12
BRANCH   1  28
ATOM     28  C   UNL d   1      -1.849  -0.690  -0.108  0.00  0.00     0.062 A 
ATOM     29  C   UNL d   1      -1.854   0.701  -0.081  0.00  0.00     0.032 A 
ATOM     30  C   UNL d   1      -0.647   1.398  -0.018  0.00  0.00     0.009 A 
ATOM     31  C   UNL d   1       0.582   0.717  -0.011  0.00  0.00    -0.056 A 
ATOM     32  C   UNL d   1       1.860   1.508  -0.013  0.00  0.00     0.049 C 
ATOM     33  C   UNL d   1       0.594  -0.691  -0.008  0.00  0.00    -0.054 A 
ATOM     34  C   UNL d   1      -0.628  -1.380  -0.037  0.00  0.00     0.039 A 
ATOM     35  C   UNL d   1       1.882  -1.469   0.026  0.00  0.00     0.049 C 
ENDBRANCH   1  28
TORSDOF 5
