REMARK  9 active torsions:
REMARK  status: ('A' for Active; 'I' for Inactive)
REMARK    1  A    between atoms: C_2  and  N_3 
REMARK    2  A    between atoms: N_3  and  C_4 
REMARK    3  A    between atoms: N_3  and  C_6 
REMARK    4  A    between atoms: C_9  and  C_10 
REMARK    5  A    between atoms: N_11  and  N_12 
REMARK       I    between atoms: N_12  and  C_13 
REMARK    6  A    between atoms: C_13  and  C_15 
REMARK    7  A    between atoms: C_19  and  N_20 
REMARK       I    between atoms: N_20  and  C_21 
REMARK    8  A    between atoms: C_21  and  C_23 
REMARK    9  A    between atoms: C_31  and  O_32 
ROOT
ATOM      1  N   UNL d   1      10.614   3.404  -1.192  0.00  0.00    -0.243 N 
ATOM      2  C   UNL d   1      11.140   4.685  -0.953  0.00  0.00     0.271 C 
ATOM      3  O   UNL d   1      10.464   5.667  -0.659  0.00  0.00    -0.266 OA
ATOM      4  H   UNL d   1      11.213   2.616  -1.418  0.00  0.00     0.192 HD
ENDROOT
BRANCH   2   5
ATOM      5  C   UNL d   1      12.619   4.875  -1.089  0.00  0.00     0.035 A 
ATOM      6  C   UNL d   1      13.321   5.754  -0.260  0.00  0.00     0.017 A 
ATOM      7  C   UNL d   1      14.663   6.062  -0.535  0.00  0.00     0.003 A 
ATOM      8  C   UNL d   1      15.328   5.460  -1.615  0.00  0.00     0.029 A 
ATOM      9  C   UNL d   1      14.634   4.582  -2.456  0.00  0.00     0.035 A 
ATOM     10  C   UNL d   1      13.287   4.307  -2.169  0.00  0.00     0.046 A 
BRANCH   9  11
ATOM     11  N   UNL d   1      15.278   4.032  -3.599  0.00  0.00    -0.323 N 
ATOM     12  C   UNL d   1      14.628   3.238  -4.541  0.00  0.00     0.256 C 
ATOM     13  O   UNL d   1      13.464   2.863  -4.514  0.00  0.00    -0.267 OA
ATOM     14  H   UNL d   1      16.236   4.310  -3.776  0.00  0.00     0.169 HD
BRANCH  12  15
ATOM     15  C   UNL d   1      15.388   2.779  -5.715  0.00  0.00     0.032 A 
ATOM     16  C   UNL d   1      14.713   2.776  -6.945  0.00  0.00     0.017 A 
ATOM     17  C   UNL d   1      15.287   2.169  -8.056  0.00  0.00     0.007 A 
ATOM     18  C   UNL d   1      16.573   1.629  -7.966  0.00  0.00    -0.062 A 
ATOM     19  C   UNL d   1      17.265   1.134  -9.201  0.00  0.00     0.048 C 
ATOM     20  C   UNL d   1      17.230   1.609  -6.724  0.00  0.00     0.007 A 
ATOM     21  C   UNL d   1      16.637   2.176  -5.593  0.00  0.00     0.017 A 
ENDBRANCH  12  15
ENDBRANCH   9  11
ENDBRANCH   2   5
BRANCH   1  22
ATOM     22  N   UNL d   1       9.250   3.222  -1.084  0.00  0.00    -0.183 NA
ATOM     23  C   UNL d   1       8.750   2.032  -1.251  0.00  0.00     0.153 C 
BRANCH  23  24
ATOM     24  C   UNL d   1       7.269   1.797  -1.125  0.00  0.00     0.016 A 
ATOM     25  C   UNL d   1       6.734   0.512  -1.276  0.00  0.00     0.018 A 
ATOM     26  C   UNL d   1       5.338   0.283  -1.133  0.00  0.00     0.030 A 
ATOM     27  C   UNL d   1       4.424   1.315  -0.847  0.00  0.00     0.032 A 
ATOM     28  C   UNL d   1       4.991   2.596  -0.709  0.00  0.00     0.066 A 
ATOM     29  C   UNL d   1       6.376   2.834  -0.843  0.00  0.00     0.079 A 
BRANCH  27  30
ATOM     30  N   UNL d   1       3.028   1.081  -0.717  0.00  0.00    -0.382 N 
BRANCH  30  31
ATOM     31  C   UNL d   1       2.630  -0.097   0.086  0.00  0.00     0.118 C 
ATOM     32  C   UNL d   1       1.153  -0.384   0.296  0.00  0.00     0.026 C 
ENDBRANCH  30  31
BRANCH  30  33
ATOM     33  C   UNL d   1       2.142   2.083  -1.357  0.00  0.00     0.118 C 
ATOM     34  C   UNL d   1       0.636   1.909  -1.257  0.00  0.00     0.026 C 
ENDBRANCH  30  33
ENDBRANCH  27  30
BRANCH  29  35
ATOM     35  O   UNL d   1       6.779   4.136  -0.678  0.00  0.00    -0.360 OA
ATOM     36  H   UNL d   1       7.757   4.183  -0.797  0.00  0.00     0.217 HD
ENDBRANCH  29  35
ENDBRANCH  23  24
ENDBRANCH   1  22
TORSDOF 9
