@<TRIPOS>MOLECULE
*****
 55 57 0 0 0
SMALL
GASTEIGER

@<TRIPOS>ATOM
      1 C           0.8807    0.1021    0.0994 C.3     1  UNL1        0.0788
      2 O           2.2950   -0.0558   -0.0571 O.3     1  UNL1       -0.4941
      3 C           2.8491   -0.8683    0.8996 C.ar    1  UNL1        0.1351
      4 C           2.5695   -2.2512    0.9420 C.ar    1  UNL1       -0.0070
      5 C           1.5728   -2.9138    0.0373 C.3     1  UNL1       -0.0362
      6 C           3.1935   -3.0654    1.9040 C.ar    1  UNL1       -0.0413
      7 C           4.1660   -2.5405    2.7406 C.ar    1  UNL1        0.0191
      8 BR          4.9995   -3.6705    4.0099 Br      1  UNL1       -0.0503
      9 C           4.4853   -1.1839    2.6660 C.ar    1  UNL1       -0.0321
     10 C           3.7844   -0.3149    1.7803 C.ar    1  UNL1        0.0799
     11 C           4.0300    1.1729    1.9153 C.2     1  UNL1        0.2531
     12 O           4.7296    1.5041    2.8569 O.2     1  UNL1       -0.2697
     13 N           3.6023    2.0833    0.9089 N.am    1  UNL1       -0.2635
     14 C           3.8215    3.4954    0.8998 C.2     1  UNL1        0.1411
     15 S           4.2075    4.3961    2.2692 S.2     1  UNL1       -0.0182
     16 N           3.7714    4.0573   -0.4018 N.am    1  UNL1       -0.2951
     17 C           4.2989    5.3871   -0.6558 C.ar    1  UNL1        0.0539
     18 C           3.3921    6.4363   -0.9045 C.ar    1  UNL1       -0.0387
     19 C           3.8519    7.7358   -1.1470 C.ar    1  UNL1       -0.0599
     20 C           5.2167    8.0049   -1.1042 C.ar    1  UNL1       -0.0599
     21 C           6.1299    6.9717   -0.8363 C.ar    1  UNL1       -0.0388
     22 C           5.7057    5.6429   -0.6173 C.ar    1  UNL1        0.0515
     23 N           6.6447    4.6233   -0.4780 N.pl3   1  UNL1       -0.3183
     24 C           6.6189    3.5167   -1.4266 C.3     1  UNL1        0.0525
     25 C           6.4506    2.1856   -0.6891 C.3     1  UNL1       -0.0160
     26 N           7.4711    1.9893    0.4206 N.4     1  UNL1        0.2353
     27 C           7.2581    0.6993    1.1517 C.3     1  UNL1       -0.0430
     28 C           7.5442    3.1962    1.3846 C.3     1  UNL1       -0.0160
     29 C           7.6360    4.5464    0.6061 C.3     1  UNL1        0.0525
     30 H           0.5700    0.8548   -0.6278 H       1  UNL1        0.0660
     31 H           0.6253    0.4333    1.1087 H       1  UNL1        0.0660
     32 H           0.3127   -0.7969   -0.1385 H       1  UNL1        0.0660
     33 H           1.3448   -2.3018   -0.8360 H       1  UNL1        0.0279
     34 H           0.6545   -3.1091    0.6022 H       1  UNL1        0.0279
     35 H           1.9682   -3.8466   -0.3690 H       1  UNL1        0.0279
     36 H           2.9097   -4.1149    1.9921 H       1  UNL1        0.0632
     37 H           5.2585   -0.8049    3.3357 H       1  UNL1        0.0637
     38 H           3.1918    1.6604    0.0843 H       1  UNL1        0.1568
     39 H           2.9205    3.8607   -0.9204 H       1  UNL1        0.1539
     40 H           2.3182    6.2825   -0.8325 H       1  UNL1        0.0637
     41 H           3.1492    8.5435   -1.3542 H       1  UNL1        0.0618
     42 H           5.5692    9.0219   -1.2815 H       1  UNL1        0.0618
     43 H           7.1895    7.2183   -0.8609 H       1  UNL1        0.0637
     44 H           7.5647    3.4996   -1.9762 H       1  UNL1        0.0516
     45 H           5.8239    3.6344   -2.1729 H       1  UNL1        0.0516
     46 H           6.5066    1.3330   -1.3690 H       1  UNL1        0.0830
     47 H           5.4884    2.1425   -0.2214 H       1  UNL1        0.0830
     48 H           8.3856    1.9328   -0.0301 H       1  UNL1        0.2032
     49 H           6.2831    0.7138    1.5929 H       1  UNL1        0.0778
     50 H           7.9984    0.5920    1.9443 H       1  UNL1        0.0778
     51 H           7.2852   -0.1258    0.4368 H       1  UNL1        0.0778
     52 H           8.4490    3.0430    1.9836 H       1  UNL1        0.0830
     53 H           6.6949    3.1377    2.0647 H       1  UNL1        0.0830
     54 H           8.6331    4.5750    0.1501 H       1  UNL1        0.0516
     55 H           7.5784    5.3921    1.3013 H       1  UNL1        0.0516
@<TRIPOS>UNITY_ATOM_ATTR
26 1
charge 1
@<TRIPOS>BOND
     1     1     2    1
     2     2     3    1
     3     3     4   ar
     4     4     5    1
     5     4     6   ar
     6     6     7   ar
     7     7     8    1
     8     7     9   ar
     9     9    10   ar
    10     3    10   ar
    11    10    11    1
    12    11    12    2
    13    11    13   am
    14    13    14    1
    15    14    15    2
    16    14    16    1
    17    16    17    1
    18    17    18   ar
    19    18    19   ar
    20    19    20   ar
    21    20    21   ar
    22    21    22   ar
    23    17    22   ar
    24    22    23    1
    25    23    24    1
    26    24    25    1
    27    25    26    1
    28    26    27    1
    29    26    28    1
    30    28    29    1
    31    23    29    1
    32     1    30    1
    33     1    31    1
    34     1    32    1
    35     5    33    1
    36     5    34    1
    37     5    35    1
    38     6    36    1
    39     9    37    1
    40    13    38    1
    41    16    39    1
    42    18    40    1
    43    19    41    1
    44    20    42    1
    45    21    43    1
    46    24    44    1
    47    24    45    1
    48    25    46    1
    49    25    47    1
    50    26    48    1
    51    27    49    1
    52    27    50    1
    53    27    51    1
    54    28    52    1
    55    28    53    1
    56    29    54    1
    57    29    55    1
