@<TRIPOS>MOLECULE
*****
 53 56 0 0 0
SMALL
GASTEIGER

@<TRIPOS>ATOM
      1 O           3.1978   -0.7062    0.1195 O.2     1  UNL1       -0.2714
      2 C           2.0473   -0.3105   -0.0020 C.2     1  UNL1        0.2582
      3 N           0.9727   -1.1515    0.0487 N.am    1  UNL1       -0.2793
      4 C          -0.3363   -0.6685    0.0016 C.ar    1  UNL1        0.0822
      5 C          -1.3988   -1.5660   -0.0459 C.ar    1  UNL1        0.0403
      6 C          -2.7096   -1.0661   -0.0555 C.ar    1  UNL1        0.2751
      7 N          -3.8395   -2.0013   -0.1016 N.pl3   1  UNL1        0.0797
      8 O          -4.9800   -1.5243   -0.0935 O.2     1  UNL1        0.0414
      9 O          -3.5750   -3.2117   -0.1375 O.co2   1  UNL1       -0.5760
     10 C          -2.9561    0.3146   -0.0123 C.ar    1  UNL1        0.0192
     11 C          -1.8817    1.2020    0.0360 C.ar    1  UNL1       -0.0116
     12 C          -0.5780    0.7105    0.0390 C.ar    1  UNL1        0.1431
     13 O           0.4143    1.6418    0.1541 O.3     1  UNL1       -0.4775
     14 C           1.6963    1.1663   -0.2255 C.3     1  UNL1        0.1806
     15 C           2.7169    2.0279    0.5258 C.3     1  UNL1        0.0332
     16 C           2.6044    1.8889    2.0558 C.3     1  UNL1       -0.0279
     17 N           3.7092    2.6793    2.7720 N.4     1  UNL1        0.2376
     18 C           3.9386    4.0745    2.1618 C.3     1  UNL1       -0.0158
     19 C           4.9984    4.8851    2.9230 C.3     1  UNL1        0.0525
     20 N           4.6891    4.9667    4.3477 N.pl3   1  UNL1       -0.3198
     21 C           4.1611    6.1084    4.9298 C.ar    1  UNL1        0.0304
     22 C           4.7200    6.6051    6.1214 C.ar    1  UNL1       -0.0342
     23 C           4.2097    7.7405    6.7771 C.ar    1  UNL1        0.0173
     24 C           3.1511    8.4486    6.2070 C.ar    1  UNL1        0.2733
     25 N           2.6888    9.7071    6.8183 N.pl3   1  UNL1        0.0796
     26 O           3.2557   10.0882    7.8513 O.2     1  UNL1        0.0414
     27 O           1.7713   10.3173    6.2505 O.co2   1  UNL1       -0.5760
     28 C           2.5742    7.9866    5.0201 C.ar    1  UNL1        0.0173
     29 C           3.0862    6.8328    4.3897 C.ar    1  UNL1       -0.0342
     30 C           4.5544    3.6568    5.0070 C.3     1  UNL1        0.0525
     31 C           3.4642    2.7896    4.3074 C.3     1  UNL1       -0.0158
     32 H           1.1656   -2.1433    0.1375 H       1  UNL1        0.1550
     33 H          -1.2111   -2.6370   -0.0813 H       1  UNL1        0.0705
     34 H          -3.9707    0.7103   -0.0125 H       1  UNL1        0.0686
     35 H          -2.0647    2.2741    0.0692 H       1  UNL1        0.0657
     36 H           1.8059    1.3527   -1.3041 H       1  UNL1        0.0833
     37 H           3.7339    1.7876    0.1954 H       1  UNL1        0.0358
     38 H           2.5096    3.0688    0.2504 H       1  UNL1        0.0358
     39 H           2.7143    0.8461    2.3764 H       1  UNL1        0.0816
     40 H           1.6440    2.2702    2.4189 H       1  UNL1        0.0816
     41 H           4.5758    2.1356    2.6502 H       1  UNL1        0.2034
     42 H           2.9662    4.5738    2.1617 H       1  UNL1        0.0830
     43 H           4.2916    3.9272    1.1369 H       1  UNL1        0.0830
     44 H           5.1371    5.8722    2.4708 H       1  UNL1        0.0516
     45 H           5.9604    4.3629    2.8247 H       1  UNL1        0.0516
     46 H           5.6142    6.1383    6.5320 H       1  UNL1        0.0638
     47 H           4.6592    8.0632    7.7151 H       1  UNL1        0.0686
     48 H           1.7310    8.5131    4.5734 H       1  UNL1        0.0686
     49 H           2.6064    6.5187    3.4687 H       1  UNL1        0.0638
     50 H           4.3477    3.7513    6.0788 H       1  UNL1        0.0516
     51 H           5.5172    3.1369    4.9164 H       1  UNL1        0.0516
     52 H           2.4725    3.2352    4.4360 H       1  UNL1        0.0830
     53 H           3.4671    1.7693    4.7088 H       1  UNL1        0.0830
@<TRIPOS>UNITY_ATOM_ATTR
7 1
charge 1
9 1
charge -1
17 1
charge 1
25 1
charge 1
27 1
charge -1
@<TRIPOS>BOND
     1     1     2    2
     2     2     3   am
     3     3     4    1
     4     4     5   ar
     5     5     6   ar
     6     6     7    1
     7     7     8    2
     8     7     9    1
     9     6    10   ar
    10    10    11   ar
    11    11    12   ar
    12     4    12   ar
    13    12    13    1
    14    13    14    1
    15     2    14    1
    16    15    16    1
    17    16    17    1
    18    17    18    1
    19    18    19    1
    20    19    20    1
    21    20    21    1
    22    21    22   ar
    23    22    23   ar
    24    23    24   ar
    25    24    25    1
    26    25    26    2
    27    25    27    1
    28    24    28   ar
    29    28    29   ar
    30    21    29   ar
    31    20    30    1
    32    30    31    1
    33    17    31    1
    34    14    15    1
    35     3    32    1
    36     5    33    1
    37    10    34    1
    38    11    35    1
    39    14    36    1
    40    15    37    1
    41    15    38    1
    42    16    39    1
    43    16    40    1
    44    17    41    1
    45    18    42    1
    46    18    43    1
    47    19    44    1
    48    19    45    1
    49    22    46    1
    50    23    47    1
    51    28    48    1
    52    29    49    1
    53    30    50    1
    54    30    51    1
    55    31    52    1
    56    31    53    1
