@<TRIPOS>MOLECULE
*****
 56 59 0 0 0
SMALL
GASTEIGER

@<TRIPOS>ATOM
      1 C           1.2871   -8.2801   -3.0008 C.3     0  UNK0       -0.0613
      2 C           1.0288   -6.8393   -2.5965 C.3     0  UNK0       -0.0305
      3 C           1.9070   -5.8766   -3.3581 C.ar    0  UNK0       -0.0476
      4 C           3.2918   -5.8577   -3.1648 C.ar    0  UNK0       -0.0582
      5 C           4.0813   -4.8695   -3.7675 C.ar    0  UNK0       -0.0549
      6 C           3.5067   -3.8751   -4.5864 C.ar    0  UNK0       -0.0082
      7 C           4.2657   -2.5999   -4.8703 C.3     0  UNK0        0.1281
      8 N           5.6481   -2.7013   -5.3180 N.pl3   0  UNK0       -0.2424
      9 N           6.0269   -1.5659   -6.0273 N.2     0  UNK0       -0.1627
     10 C           4.9087   -1.0863   -6.4627 C.2     0  UNK0        0.1730
     11 S           4.5341    0.2244   -7.4779 S.3     0  UNK0       -0.0798
     12 C           6.1073    1.1326   -7.8117 C.3     0  UNK0        0.0774
     13 C           5.7154    2.3701   -8.7040 C.2     0  UNK0        0.2238
     14 O           4.6242    2.4637   -9.2311 O.2     0  UNK0       -0.2749
     15 N           6.6373    3.3831   -8.8468 N.am    1  TRP1       -0.3063
     16 CA          6.4489    4.5644   -9.8151 C.3     1  TRP1        0.0666
     17 CB          5.3799    5.8713   -9.4240 C.3     1  TRP1       -0.0019
     18 CG          3.8581    5.7618   -8.7060 C.ar    1  TRP1       -0.0203
     19 CD1         4.0277    5.1711   -7.4381 C.ar    1  TRP1        0.0060
     20 NE1         2.9892    4.2730   -7.6338 N.ar    1  TRP1       -0.3604
     21 CE2         1.8995    5.1081   -7.5675 C.ar    1  TRP1        0.0467
     22 CZ2         0.7613    4.8718   -6.7999 C.ar    1  TRP1       -0.0378
     23 CH2        -0.2125    5.8112   -6.6023 C.ar    1  TRP1       -0.0598
     24 CZ3        -0.0196    6.9934   -7.2983 C.ar    1  TRP1       -0.0611
     25 CE3         1.1801    7.2273   -8.1966 C.ar    1  TRP1       -0.0523
     26 CD2         2.3010    6.2407   -8.3069 C.ar    1  TRP1        0.0029
     27 C           7.9781    5.0694  -10.1274 C.2     1  TRP1        0.0623
     28 O           8.8755    4.3185   -9.6060 O.co2   1  TRP1       -0.5479
     29 OXT         8.1103    6.0676  -10.8820 O.co2   1  TRP1       -0.5479
     30 N           3.7719   -1.7881   -5.9666 N.pl3   0  UNK0       -0.2996
     31 C           2.1325   -3.9795   -4.8621 C.ar    0  UNK0       -0.0549
     32 C           1.3421   -4.9552   -4.2427 C.ar    0  UNK0       -0.0582
     33 H           0.6203   -8.9572   -2.4585 H       0  UNK0        0.0233
     34 H           2.3183   -8.5756   -2.7825 H       0  UNK0        0.0233
     35 H           1.1179   -8.4151   -4.0740 H       0  UNK0        0.0233
     36 H           1.1993   -6.7056   -1.5202 H       0  UNK0        0.0311
     37 H          -0.0297   -6.6023   -2.7640 H       0  UNK0        0.0311
     38 H           3.7589   -6.5795   -2.4955 H       0  UNK0        0.0620
     39 H           5.1417   -4.8549   -3.5202 H       0  UNK0        0.0621
     40 H           4.1900   -1.9808   -3.9643 H       0  UNK0        0.0772
     41 H           6.3142   -3.0307   -4.6253 H       0  UNK0        0.1705
     42 H           6.8090    0.4718   -8.3347 H       0  UNK0        0.0475
     43 H           6.5565    1.4565   -6.8670 H       0  UNK0        0.0475
     44 H           7.6399    3.1345   -8.8217 H       1  TRP1        0.1494
     45 HA          6.1658    4.1027  -10.7751 H       1  TRP1        0.0563
     46 HB1         5.4633    6.6717  -10.1694 H       1  TRP1        0.0335
     47 HB2         5.9491    6.2217   -8.5607 H       1  TRP1        0.0335
     48 HD1         4.0420    5.7605   -6.5102 H       1  TRP1        0.0810
     49 HE1         3.0044    3.5936   -8.3845 H       1  TRP1        0.1653
     50 HZ2         0.7400    3.9339   -6.2694 H       1  TRP1        0.0638
     51 HH2        -1.0262    5.5916   -5.9044 H       1  TRP1        0.0618
     52 HZ3        -0.7944    7.7550   -7.1196 H       1  TRP1        0.0618
     53 HE3         1.1184    8.2298   -8.6346 H       1  TRP1        0.0624
     54 H           2.8519   -1.6328   -6.3337 H       0  UNK0        0.1501
     55 H           1.6278   -3.2632   -5.5037 H       0  UNK0        0.0621
     56 H           0.2667   -4.9544   -4.4145 H       0  UNK0        0.0620
@<TRIPOS>UNITY_ATOM_ATTR
29 1
charge -1
@<TRIPOS>BOND
     1     1     2    1
     2     2     3    1
     3     3     4   ar
     4     4     5   ar
     5     5     6   ar
     6     7     8    1
     7     8     9    1
     8     9    10    2
     9    10    11    1
    10    11    12    1
    11    12    13    1
    12    13    14    2
    13    13    15   am
    14    15    16    1
    15    16    17    1
    16    17    18    1
    17    18    19   ar
    18    19    20   ar
    19    20    21   ar
    20    21    22   ar
    21    22    23   ar
    22    23    24   ar
    23    24    25   ar
    24    25    26   ar
    25    18    26   ar
    26    21    26   ar
    27    16    27    1
    28    27    28   ar
    29    27    29   ar
    30    10    30    1
    31     7    30    1
    32     6    31   ar
    33    31    32   ar
    34     3    32   ar
    35     7     6    1
    36     1    33    1
    37     1    34    1
    38     1    35    1
    39     2    36    1
    40     2    37    1
    41     4    38    1
    42     5    39    1
    43     7    40    1
    44     8    41    1
    45    12    42    1
    46    12    43    1
    47    15    44    1
    48    16    45    1
    49    17    46    1
    50    17    47    1
    51    19    48    1
    52    20    49    1
    53    22    50    1
    54    23    51    1
    55    24    52    1
    56    25    53    1
    57    30    54    1
    58    31    55    1
    59    32    56    1
