REMARK  9 active torsions:
REMARK  status: ('A' for Active; 'I' for Inactive)
REMARK    1  A    between atoms: CG_2  and  CB_4 
REMARK    2  A    between atoms: CB_4  and  CA_5 
REMARK    3  A    between atoms: CA_5  and  N_6 
REMARK    4  A    between atoms: CA_5  and  C_32 
REMARK       I    between atoms: N_6  and  C_7 
REMARK    5  A    between atoms: C_7  and  C_9 
REMARK    6  A    between atoms: C_9  and  C_10 
REMARK    7  A    between atoms: C_9  and  N_20 
REMARK    8  A    between atoms: C_10  and  C_11 
REMARK    9  A    between atoms: C_30  and  O_31 
ROOT
ATOM      1  C   UNK d   0       5.371   0.961   2.728  0.00  0.00     0.188 C 
ENDROOT
BRANCH   1   2
ATOM      2  C   UNK d   0       5.246   0.649   1.144  0.00  0.00     0.241 C 
ATOM      3  N   LEU d   1       5.217  -0.698   0.759  0.00  0.00    -0.345 N 
ATOM      4  H   LEU d   1       5.531  -1.433   1.377  0.00  0.00     0.163 HD
ATOM      5  O   UNK d   0       5.071   1.569   0.342  0.00  0.00    -0.271 OA
BRANCH   3   6
ATOM      6  CA  LEU d   1       4.641  -1.290  -0.493  0.00  0.00     0.185 C 
BRANCH   6   7
ATOM      7  CB  LEU d   1       3.076  -1.399  -0.471  0.00  0.00     0.040 C 
BRANCH   7   8
ATOM      8  CG  LEU d   1       2.362  -0.101  -0.152  0.00  0.00    -0.020 C 
ATOM      9  CD1 LEU d   1       0.849  -0.059  -0.286  0.00  0.00     0.009 C 
ATOM     10  CD2 LEU d   1       2.496   0.175   1.308  0.00  0.00     0.009 C 
ENDBRANCH   7   8
ENDBRANCH   6   7
BRANCH   6  11
ATOM     11  C   LEU d   1       5.189  -2.754  -0.801  0.00  0.00     0.196 C 
ATOM     12  O   LEU d   1       4.331  -3.663  -1.002  0.00  0.00    -0.646 OA
ATOM     13  OXT LEU d   1       6.454  -2.863  -0.799  0.00  0.00    -0.646 OA
ENDBRANCH   6  11
ENDBRANCH   3   6
ENDBRANCH   1   2
BRANCH   1  14
ATOM     14  C   UNK d   0       6.882   0.815   2.987  0.00  0.00     0.076 C 
BRANCH  14  15
ATOM     15  C   UNK d   0       7.387  -0.603   2.760  0.00  0.00    -0.028 A 
ATOM     16  C   UNK d   0       8.385  -0.972   1.872  0.00  0.00     0.096 A 
ATOM     17  N   UNK d   0       8.405  -2.343   1.775  0.00  0.00    -0.365 N 
ATOM     18  C   UNK d   0       7.410  -2.891   2.554  0.00  0.00     0.042 A 
ATOM     19  H   UNK d   0       8.959  -2.871   1.112  0.00  0.00     0.165 HD
ATOM     20  C   UNK d   0       6.976  -4.222   2.663  0.00  0.00     0.030 A 
ATOM     21  C   UNK d   0       6.766  -1.834   3.201  0.00  0.00    -0.002 A 
ATOM     22  C   UNK d   0       5.813  -4.476   3.398  0.00  0.00     0.002 A 
ATOM     23  C   UNK d   0       5.118  -3.444   4.008  0.00  0.00     0.001 A 
ATOM     24  C   UNK d   0       5.601  -2.136   3.943  0.00  0.00     0.014 A 
ENDBRANCH  14  15
ENDBRANCH   1  14
BRANCH   1  25
ATOM     25  N   UNK d   0       4.699   2.272   3.082  0.00  0.00    -0.290 N 
ATOM     26  C   UNK d   0       3.346   2.464   2.853  0.00  0.00     0.260 C 
ATOM     27  O   UNK d   0       2.443   1.847   3.383  0.00  0.00    -0.267 OA
ATOM     28  C   UNK d   0       3.114   3.713   2.090  0.00  0.00     0.058 A 
ATOM     29  C   UNK d   0       2.037   3.866   1.214  0.00  0.00     0.019 A 
ATOM     30  C   UNK d   0       4.066   4.719   2.309  0.00  0.00     0.047 A 
ATOM     31  C   UNK d   0       1.874   5.079   0.557  0.00  0.00     0.001 A 
ATOM     32  C   UNK d   0       2.773   6.118   0.802  0.00  0.00     0.002 A 
ATOM     33  C   UNK d   0       3.863   5.938   1.669  0.00  0.00     0.030 A 
ATOM     34  N   UNK d   0       5.069   4.552   3.272  0.00  0.00    -0.346 N 
ATOM     35  C   UNK d   0       5.154   3.292   3.972  0.00  0.00     0.332 C 
ATOM     36  H   UNK d   0       5.925   5.073   3.169  0.00  0.00     0.164 HD
BRANCH  35  37
ATOM     37  O   UNK d   0       4.281   3.416   5.089  0.00  0.00    -0.359 OA
ATOM     38  H   UNK d   0       3.426   3.704   4.717  0.00  0.00     0.214 HD
ENDBRANCH  35  37
ENDBRANCH   1  25
TORSDOF 9
