@<TRIPOS>MOLECULE
*****
 35 37 0 0 0
SMALL
GASTEIGER

@<TRIPOS>ATOM
      1 O           1.0630   -0.0084   -0.0603 O.2     1  UNL1       -0.2649
      2 C           2.2971   -0.0601   -0.0741 C.2     1  UNL1        0.3017
      3 N           3.0336    0.9596    0.5373 N.am    1  UNL1       -0.3073
      4 C           2.3458    2.1279    1.0851 C.3     1  UNL1        0.0141
      5 C           3.2968    3.1910    1.6264 C.3     1  UNL1       -0.0141
      6 C           2.5426    4.3709    2.2351 C.3     1  UNL1        0.0456
      7 O           3.4667    5.3408    2.7141 O.3     1  UNL1       -0.3950
      8 C           3.0299   -1.1237   -0.7545 C.ar    1  UNL1        0.3136
      9 N           2.6865   -1.6939   -1.8922 N.ar    1  UNL1       -0.1831
     10 C           3.6367   -2.6771   -2.0550 C.ar    1  UNL1        0.2026
     11 C           3.6614   -3.5156   -3.2528 C.ar    1  UNL1        0.0244
     12 C           3.7455   -2.8972   -4.5085 C.ar    1  UNL1       -0.0503
     13 C           3.7225   -3.6444   -5.6947 C.ar    1  UNL1       -0.0519
     14 C           3.5733   -5.0400   -5.6271 C.ar    1  UNL1       -0.0003
     15 C           3.4550   -6.0597   -6.6102 C.ar    1  UNL1       -0.0367
     16 C           3.2861   -7.2548   -5.9519 C.ar    1  UNL1        0.0027
     17 N           3.3429   -7.0031   -4.6042 N.ar    1  UNL1       -0.3606
     18 C           3.4949   -5.6501   -4.3740 C.ar    1  UNL1        0.0471
     19 C           3.5546   -4.9175   -3.1702 C.ar    1  UNL1       -0.0270
     20 N           4.5375   -2.7317   -1.0583 N.ar    1  UNL1       -0.0555
     21 O           4.1492   -1.6827   -0.2019 O.2     1  UNL1       -0.3276
     22 H           4.0419    0.9726    0.4415 H       1  UNL1        0.1491
     23 H           1.6799    1.7760    1.8820 H       1  UNL1        0.0463
     24 H           1.7114    2.5572    0.2989 H       1  UNL1        0.0463
     25 H           3.9544    3.5572    0.8279 H       1  UNL1        0.0302
     26 H           3.9623    2.7565    2.3816 H       1  UNL1        0.0302
     27 H           1.9075    4.0563    3.0698 H       1  UNL1        0.0557
     28 H           1.9077    4.8596    1.4891 H       1  UNL1        0.0557
     29 H           3.9954    4.9305    3.4198 H       1  UNL1        0.2094
     30 H           3.8238   -1.8142   -4.5804 H       1  UNL1        0.0625
     31 H           3.7911   -3.1499   -6.6591 H       1  UNL1        0.0624
     32 H           3.4638   -5.9235   -7.6841 H       1  UNL1        0.0638
     33 H           3.1304   -8.2572   -6.3294 H       1  UNL1        0.0807
     34 H           3.2570   -7.7057   -3.8829 H       1  UNL1        0.1653
     35 H           3.4782   -5.4176   -2.2093 H       1  UNL1        0.0645
@<TRIPOS>BOND
     1     1     2    2
     2     2     3   am
     3     3     4    1
     4     4     5    1
     5     5     6    1
     6     6     7    1
     7     2     8    1
     8     8     9   ar
     9     9    10   ar
    10    10    11    1
    11    11    12   ar
    12    12    13   ar
    13    13    14   ar
    14    14    15   ar
    15    15    16   ar
    16    16    17   ar
    17    17    18   ar
    18    14    18   ar
    19    18    19   ar
    20    11    19   ar
    21    10    20   ar
    22    20    21   ar
    23     8    21   ar
    24     3    22    1
    25     4    23    1
    26     4    24    1
    27     5    25    1
    28     5    26    1
    29     6    27    1
    30     6    28    1
    31     7    29    1
    32    12    30    1
    33    13    31    1
    34    15    32    1
    35    16    33    1
    36    17    34    1
    37    19    35    1
