@<TRIPOS>MOLECULE
*****
 33 33 0 0 0
SMALL
GASTEIGER

@<TRIPOS>ATOM
      1 C           1.0621    0.0501    0.0821 C.2     1  UNL1       -0.1012
      2 C           2.4082    0.0310    0.0626 C.2     1  UNL1       -0.0742
      3 C           3.1722   -0.8757   -0.8605 C.3     1  UNL1        0.0288
      4 N           4.6371   -0.7637   -0.7472 N.am    1  UNL1       -0.3219
      5 C           5.5189   -1.5239   -1.5207 C.2     1  UNL1        0.1470
      6 S           5.0149   -2.6503   -2.6682 S.2     1  UNL1       -0.0174
      7 N           6.8745   -1.2865   -1.2798 N.am    1  UNL1       -0.2458
      8 N           7.8962   -2.0109   -2.0129 N.am    1  UNL1       -0.2323
      9 C           9.2481   -1.7801   -1.7664 C.2     1  UNL1        0.2667
     10 O           9.6052   -0.9478   -0.9250 O.2     1  UNL1       -0.2705
     11 C          10.2586   -2.6171   -2.6175 C.3     1  UNL1        0.1666
     12 O          11.6192   -2.3488   -2.2338 O.3     1  UNL1       -0.4827
     13 C          12.6289   -2.9426   -2.9498 C.ar    1  UNL1        0.1226
     14 C          12.6375   -3.0797   -4.3388 C.ar    1  UNL1       -0.0198
     15 C          13.7467   -3.6373   -4.9934 C.ar    1  UNL1       -0.0569
     16 C          14.8559   -4.0643   -4.2646 C.ar    1  UNL1       -0.0432
     17 C          14.8581   -3.9153   -2.8807 C.ar    1  UNL1        0.0444
     18 CL         16.2250   -4.4538   -1.9797 Cl      1  UNL1       -0.0834
     19 C          13.7623   -3.3404   -2.2256 C.ar    1  UNL1       -0.0016
     20 H           0.5054    0.7047    0.7487 H       1  UNL1        0.0532
     21 H           0.4677   -0.5891   -0.5686 H       1  UNL1        0.0532
     22 H           2.9366    0.6947    0.7385 H       1  UNL1        0.0582
     23 H           2.8970   -0.6391   -1.8944 H       1  UNL1        0.0505
     24 H           2.8973   -1.9139   -0.6422 H       1  UNL1        0.0505
     25 H           5.0060   -0.1051   -0.0749 H       1  UNL1        0.1481
     26 H           7.2263   -0.6176   -0.5959 H       1  UNL1        0.1718
     27 H           7.5501   -2.6847   -2.6944 H       1  UNL1        0.1729
     28 H          10.0891   -2.3692   -3.6709 H       1  UNL1        0.0795
     29 H          10.0586   -3.6830   -2.4531 H       1  UNL1        0.0795
     30 H          11.8137   -2.7238   -4.9465 H       1  UNL1        0.0654
     31 H          13.7503   -3.7283   -6.0775 H       1  UNL1        0.0619
     32 H          15.7113   -4.4984   -4.7779 H       1  UNL1        0.0632
     33 H          13.7931   -3.2052   -1.1474 H       1  UNL1        0.0669
@<TRIPOS>BOND
     1     1     2    2
     2     2     3    1
     3     3     4    1
     4     4     5    1
     5     5     6    2
     6     5     7    1
     7     7     8    1
     8     8     9   am
     9     9    10    2
    10     9    11    1
    11    11    12    1
    12    12    13    1
    13    13    14   ar
    14    14    15   ar
    15    15    16   ar
    16    16    17   ar
    17    17    18    1
    18    17    19   ar
    19    13    19   ar
    20     1    20    1
    21     1    21    1
    22     2    22    1
    23     3    23    1
    24     3    24    1
    25     4    25    1
    26     7    26    1
    27     8    27    1
    28    11    28    1
    29    11    29    1
    30    14    30    1
    31    15    31    1
    32    16    32    1
    33    19    33    1
