@<TRIPOS>MOLECULE
*****
 44 46 0 0 0
SMALL
GASTEIGER

@<TRIPOS>ATOM
      1 O           1.2524   -0.3275    0.0894 O.2     1  UNL1       -0.2705
      2 C           2.4867   -0.2117    0.1046 C.2     1  UNL1        0.2667
      3 C           3.1230    1.1992    0.0320 C.3     1  UNL1        0.1666
      4 O           2.1658    2.2804    0.0828 O.3     1  UNL1       -0.4827
      5 C           2.6370    3.5613   -0.0897 C.ar    1  UNL1        0.1217
      6 C           1.9890    4.5877    0.6120 C.ar    1  UNL1       -0.0199
      7 C           2.3271    5.9337    0.4041 C.ar    1  UNL1       -0.0578
      8 C           3.3570    6.2644   -0.4721 C.ar    1  UNL1       -0.0499
      9 C           4.0055    5.2537   -1.1948 C.ar    1  UNL1        0.0583
     10 C           5.0540    5.6137   -2.2149 C.3     1  UNL1        0.4175
     11 F           4.5761    6.4423   -3.1829 F       1  UNL1       -0.1659
     12 F           6.1238    6.2498   -1.6650 F       1  UNL1       -0.1659
     13 F           5.5604    4.5295   -2.8675 F       1  UNL1       -0.1659
     14 C           3.6335    3.9075   -0.9994 C.ar    1  UNL1       -0.0083
     15 N           3.2936   -1.3787    0.1574 N.am    1  UNL1       -0.2316
     16 N           4.8227   -1.5105    0.3081 N.am    1  UNL1       -0.2340
     17 C           5.5280   -2.8267    0.4793 C.2     1  UNL1        0.2335
     18 O           4.8536   -3.8583    0.4134 O.2     1  UNL1       -0.2739
     19 C           7.2922   -2.7810    0.7508 C.3     1  UNL1        0.0525
     20 C           8.5438   -4.1270    0.7700 C.ar    1  UNL1       -0.0136
     21 C           8.7498   -4.3638   -0.5488 C.ar    1  UNL1        0.0064
     22 N           8.7862   -5.6968   -0.2986 N.ar    1  UNL1       -0.3604
     23 C          10.0460   -5.8172    0.2065 C.ar    1  UNL1        0.0467
     24 C          10.8807   -6.8979   -0.3013 C.ar    1  UNL1       -0.0378
     25 C          12.1941   -7.0972   -0.0137 C.ar    1  UNL1       -0.0598
     26 C          12.6406   -6.1474    0.8397 C.ar    1  UNL1       -0.0611
     27 C          11.6745   -5.0972    1.3647 C.ar    1  UNL1       -0.0523
     28 C          10.1995   -4.6010    1.1774 C.ar    1  UNL1        0.0033
     29 H           3.6800    1.2253   -0.9065 H       1  UNL1        0.0795
     30 H           3.7756    1.3094    0.8983 H       1  UNL1        0.0795
     31 H           1.2087    4.3487    1.3310 H       1  UNL1        0.0654
     32 H           1.7750    6.7258    0.9081 H       1  UNL1        0.0619
     33 H           3.6391    7.3087   -0.6093 H       1  UNL1        0.0623
     34 H           4.1115    3.1503   -1.6112 H       1  UNL1        0.0660
     35 H           2.7560   -2.2481    0.2071 H       1  UNL1        0.1729
     36 H           5.3123   -0.6381    0.1552 H       1  UNL1        0.1728
     37 H           7.5079   -1.9990    1.4682 H       1  UNL1        0.0408
     38 H           7.5232   -2.3956   -0.2637 H       1  UNL1        0.0408
     39 H           9.5562   -3.7918   -1.0229 H       1  UNL1        0.0810
     40 H           8.0750   -6.2586    0.1463 H       1  UNL1        0.1653
     41 H          10.4370   -7.5447   -1.0592 H       1  UNL1        0.0638
     42 H          12.7724   -7.9126   -0.4562 H       1  UNL1        0.0618
     43 H          13.7169   -6.1953    1.0710 H       1  UNL1        0.0618
     44 H          12.2771   -4.4856    2.0939 H       1  UNL1        0.0624
@<TRIPOS>BOND
     1     1     2    2
     2     2     3    1
     3     3     4    1
     4     4     5    1
     5     5     6   ar
     6     6     7   ar
     7     7     8   ar
     8     8     9   ar
     9     9    10    1
    10    10    11    1
    11    10    12    1
    12    10    13    1
    13     9    14   ar
    14     5    14   ar
    15     2    15   am
    16    15    16    1
    17    16    17   am
    18    17    18    2
    19    17    19    1
    20    19    20    1
    21    20    21   ar
    22    21    22   ar
    23    22    23   ar
    24    23    24   ar
    25    24    25   ar
    26    25    26   ar
    27    26    27   ar
    28    27    28   ar
    29    20    28   ar
    30    23    28   ar
    31     3    29    1
    32     3    30    1
    33     6    31    1
    34     7    32    1
    35     8    33    1
    36    14    34    1
    37    15    35    1
    38    16    36    1
    39    19    37    1
    40    19    38    1
    41    21    39    1
    42    22    40    1
    43    24    41    1
    44    25    42    1
    45    26    43    1
    46    27    44    1
