@<TRIPOS>MOLECULE
*****
 73 78 0 0 0
SMALL
GASTEIGER

@<TRIPOS>ATOM
      1 C           1.7705    0.8978    0.6349 C.3     1  UNL1       -0.0631
      2 C           3.2080    0.3446    0.6204 C.3     1  UNL1       -0.0309
      3 C           3.5831   -0.4433   -0.6894 C.3     1  UNL1        0.0617
      4 C           3.0655   -1.9398   -0.8418 C.3     1  UNL1       -0.0399
      5 C           3.0005    0.6158   -1.5134 C.3     1  UNL1       -0.0399
      6 N           4.9590   -0.4198   -1.1692 N.ar    1  UNL1       -0.2185
      7 N           5.8993   -0.3534   -0.2298 N.ar    1  UNL1       -0.0432
      8 N           7.0386   -0.2528   -0.8743 N.ar    1  UNL1       -0.0228
      9 N           6.8336   -0.2114   -2.2251 N.ar    1  UNL1       -0.1071
     10 C           5.5266   -0.3056   -2.4446 C.ar    1  UNL1        0.2048
     11 C           4.9788   -0.3589   -3.9173 C.3     1  UNL1        0.0727
     12 C           5.6170   -1.5002   -4.6920 C.ar    1  UNL1        0.0725
     13 C           6.4169   -1.3426   -5.7781 C.ar    1  UNL1       -0.0383
     14 C           6.9914   -2.5227   -6.4495 C.ar    1  UNL1        0.0027
     15 C           7.7481   -2.5620   -7.6396 C.ar    1  UNL1       -0.0070
     16 C           8.2070   -3.8275   -8.0238 C.ar    1  UNL1        0.1669
     17 C           8.3519   -4.7861   -7.0664 C.ar    1  UNL1        0.1682
     18 C           7.4088   -4.8865   -6.1177 C.ar    1  UNL1        0.0078
     19 C           6.7140   -3.7555   -5.8455 C.ar    1  UNL1        0.0529
     20 N           5.7876   -3.9076   -4.8463 N.ar    1  UNL1       -0.3216
     21 C           5.3852   -2.8654   -4.1581 C.ar    1  UNL1        0.2582
     22 O           4.7565   -3.1067   -3.0854 O.2     1  UNL1       -0.2674
     23 O           8.9497   -5.9240   -7.4822 O.3     1  UNL1       -0.4525
     24 C           8.2582   -5.9175   -8.7192 C.3     1  UNL1        0.2332
     25 O           8.2506   -4.5203   -9.2346 O.3     1  UNL1       -0.4526
     26 N           3.3580   -0.2210   -4.3623 N.4     1  UNL1        0.2486
     27 C           2.6228   -1.4953   -3.8271 C.3     1  UNL1       -0.0147
     28 C           1.1191   -1.5491   -3.2916 C.3     1  UNL1        0.0526
     29 N           0.7363   -0.4104   -2.4089 N.pl3   1  UNL1       -0.3170
     30 C          -0.1376   -0.6558   -1.0923 C.ar    1  UNL1        0.0723
     31 C           0.2824   -1.5253    0.1456 C.ar    1  UNL1       -0.0371
     32 C          -0.0409   -1.3130    1.5604 C.ar    1  UNL1       -0.0598
     33 C          -0.9670   -0.3628    1.8817 C.ar    1  UNL1       -0.0582
     34 C          -1.5092    0.3669    0.8037 C.ar    1  UNL1       -0.0181
     35 C          -1.1481    0.2359   -0.6316 C.ar    1  UNL1        0.1410
     36 O          -1.9280    1.0675   -1.4003 O.3     1  UNL1       -0.4933
     37 C          -1.6204    1.0391   -2.7685 C.3     1  UNL1        0.0789
     38 C           1.1796    1.0044   -3.3653 C.3     1  UNL1        0.0526
     39 C           2.7763    1.1633   -3.9830 C.3     1  UNL1       -0.0147
     40 H           1.2467    0.9140    1.5700 H       1  UNL1        0.0231
     41 H           1.3882    0.1039    0.0716 H       1  UNL1        0.0231
     42 H           1.3934    1.7369    0.0125 H       1  UNL1        0.0231
     43 H           3.3344   -0.3442    1.4414 H       1  UNL1        0.0286
     44 H           3.8061    1.2523    0.7008 H       1  UNL1        0.0286
     45 H           2.0330   -1.9803   -1.1264 H       1  UNL1        0.0253
     46 H           3.2886   -2.5774    0.0082 H       1  UNL1        0.0253
     47 H           3.3633   -2.6254   -1.6378 H       1  UNL1        0.0253
     48 H           1.9780    0.8826   -1.4281 H       1  UNL1        0.0253
     49 H           2.9590    0.0745   -2.3851 H       1  UNL1        0.0253
     50 H           3.4367    1.6209   -1.4948 H       1  UNL1        0.0253
     51 H           5.3795    0.5658   -4.3650 H       1  UNL1        0.0991
     52 H           6.6842   -0.3537   -6.1388 H       1  UNL1        0.0631
     53 H           8.0483   -1.6410   -8.1371 H       1  UNL1        0.0662
     54 H           7.1952   -5.8572   -5.7014 H       1  UNL1        0.0676
     55 H           5.6333   -4.8320   -4.4539 H       1  UNL1        0.1689
     56 H           7.2208   -6.2686   -8.5115 H       1  UNL1        0.1166
     57 H           8.7323   -6.6964   -9.3201 H       1  UNL1        0.1166
     58 H           3.3295   -0.2714   -5.3855 H       1  UNL1        0.2046
     59 H           3.2595   -1.6491   -3.0024 H       1  UNL1        0.0830
     60 H           2.8317   -2.3302   -4.4934 H       1  UNL1        0.0830
     61 H           0.9074   -2.5037   -2.7956 H       1  UNL1        0.0516
     62 H           0.4990   -1.5170   -4.1876 H       1  UNL1        0.0516
     63 H           1.1842   -2.1137    0.2723 H       1  UNL1        0.0637
     64 H           0.6295   -1.6763    2.3715 H       1  UNL1        0.0618
     65 H          -1.1725   -0.1258    2.9310 H       1  UNL1        0.0619
     66 H          -2.1887    1.1690    1.1014 H       1  UNL1        0.0655
     67 H          -2.3792    1.4831   -3.4037 H       1  UNL1        0.0660
     68 H          -1.4305    0.0317   -3.1559 H       1  UNL1        0.0660
     69 H          -0.8042    1.7319   -2.8710 H       1  UNL1        0.0660
     70 H           1.0076    1.9304   -2.7966 H       1  UNL1        0.0516
     71 H           0.5943    0.9460   -4.2863 H       1  UNL1        0.0516
     72 H           3.5382    1.6110   -3.3126 H       1  UNL1        0.0830
     73 H           2.9177    1.9239   -4.7684 H       1  UNL1        0.0830
@<TRIPOS>UNITY_ATOM_ATTR
26 1
charge 1
@<TRIPOS>BOND
     1     1     2    1
     2     2     3    1
     3     3     4    1
     4     3     5    1
     5     3     6    1
     6     6     7   ar
     7     7     8   ar
     8     8     9   ar
     9     9    10   ar
    10     6    10   ar
    11    10    11    1
    12    11    12    1
    13    12    13   ar
    14    13    14   ar
    15    14    15   ar
    16    15    16   ar
    17    16    17   ar
    18    17    18   ar
    19    18    19   ar
    20    14    19   ar
    21    19    20   ar
    22    20    21   ar
    23    12    21   ar
    24    21    22    2
    25    17    23    1
    26    23    24    1
    27    24    25    1
    28    16    25    1
    29    11    26    1
    30    26    27    1
    31    27    28    1
    32    28    29    1
    33    29    30    1
    34    30    31   ar
    35    31    32   ar
    36    32    33   ar
    37    33    34   ar
    38    34    35   ar
    39    30    35   ar
    40    35    36    1
    41    36    37    1
    42    29    38    1
    43    38    39    1
    44    26    39    1
    45     1    40    1
    46     1    41    1
    47     1    42    1
    48     2    43    1
    49     2    44    1
    50     4    45    1
    51     4    46    1
    52     4    47    1
    53     5    48    1
    54     5    49    1
    55     5    50    1
    56    11    51    1
    57    13    52    1
    58    15    53    1
    59    18    54    1
    60    20    55    1
    61    24    56    1
    62    24    57    1
    63    26    58    1
    64    27    59    1
    65    27    60    1
    66    28    61    1
    67    28    62    1
    68    31    63    1
    69    32    64    1
    70    33    65    1
    71    34    66    1
    72    37    67    1
    73    37    68    1
    74    37    69    1
    75    38    70    1
    76    38    71    1
    77    39    72    1
    78    39    73    1
