REMARK  4 active torsions:
REMARK  status: ('A' for Active; 'I' for Inactive)
REMARK    1  A    between atoms: C_2  and  C_3 
REMARK       I    between atoms: C_2  and  N_19 
REMARK    2  A    between atoms: C_3  and  S_4 
REMARK    3  A    between atoms: S_4  and  C_5 
REMARK    4  A    between atoms: N_19  and  C_20 
ROOT
ATOM      1  C   UNL d   1       2.769  -4.247   0.582  0.00  0.00     0.211 A 
ATOM      2  N   UNL d   1       4.052  -4.373   0.847  0.00  0.00    -0.107 NA
ATOM      3  N   UNL d   1       4.349  -5.726   0.884  0.00  0.00     0.045 NA
ATOM      4  C   UNL d   1       3.244  -6.384   0.620  0.00  0.00     0.734 A 
ATOM      5  N   UNL d   1       3.046  -7.739   0.547  0.00  0.00    -0.152 N 
ATOM      6  C   UNL d   1       1.816  -8.286   0.221  0.00  0.00     0.268 A 
ATOM      7  O   UNL d   1       1.640  -9.467   0.139  0.00  0.00    -0.267 OA
ATOM      8  C   UNL d   1       0.699  -7.298  -0.035  0.00  0.00     0.034 A 
ATOM      9  C   UNL d   1       0.923  -5.968   0.058  0.00  0.00     0.048 A 
ATOM     10  N   UNL d   1       2.203  -5.501   0.393  0.00  0.00    -0.122 N 
ATOM     11  C   UNL d   1      -0.180  -4.979  -0.214  0.00  0.00     0.059 C 
ATOM     12  C   UNL d   1      -1.378  -5.587  -0.925  0.00  0.00     0.006 C 
ATOM     13  C   UNL d   1      -1.774  -6.876  -0.229  0.00  0.00     0.005 C 
ATOM     14  C   UNL d   1      -0.643  -7.896  -0.372  0.00  0.00     0.046 C 
ATOM     15  H   UNL d   1       3.809  -8.377   0.725  0.00  0.00     0.188 HD
ENDROOT
BRANCH   1  16
ATOM     16  S   UNL d   1       1.846  -2.774   0.608  0.00  0.00    -0.080 SA
BRANCH  16  17
ATOM     17  C   UNL d   1       3.000  -1.433   0.253  0.00  0.00     0.185 C 
BRANCH  17  18
ATOM     18  C   UNL d   1       2.259  -0.095   0.033  0.00  0.00     0.231 C 
ATOM     19  O   UNL d   1       1.031   0.016   0.004  0.00  0.00    -0.272 OA
ATOM     20  N   UNL d   1       3.008   1.063  -0.061  0.00  0.00    -0.327 N 
ATOM     21  H   UNL d   1       2.466   1.917   0.019  0.00  0.00     0.169 HD
BRANCH  20  22
ATOM     22  C   UNL d   1       4.393   1.177  -0.218  0.00  0.00     0.033 C 
ATOM     23  C   UNL d   1       5.141   1.996   0.607  0.00  0.00     0.028 C 
ATOM     24  C   UNL d   1       6.529   1.774   0.629  0.00  0.00     0.020 C 
ATOM     25  C   UNL d   1       7.106   0.931  -0.346  0.00  0.00     0.158 C 
ATOM     26  C   UNL d   1       6.430   0.777  -1.514  0.00  0.00     0.160 C 
ATOM     27  O   UNL d   1       7.276  -0.549  -0.108  0.00  0.00    -0.345 OA
ATOM     28  C   UNL d   1       5.052   0.556  -1.286  0.00  0.00     0.047 C 
ATOM     29  O   UNL d   1       7.236  -0.044  -2.335  0.00  0.00    -0.345 OA
ATOM     30  C   UNL d   1       7.149  -1.132  -1.461  0.00  0.00     0.341 C 
ENDBRANCH  20  22
ENDBRANCH  17  18
ENDBRANCH  16  17
ENDBRANCH   1  16
TORSDOF 4
