REMARK  7 active torsions:
REMARK  status: ('A' for Active; 'I' for Inactive)
REMARK    1  A    between atoms: O_2  and  C_3 
REMARK    2  A    between atoms: C_6  and  C_7 
REMARK    3  A    between atoms: C_8  and  C_9 
REMARK       I    between atoms: C_9  and  N_11 
REMARK    4  A    between atoms: N_11  and  C_12 
REMARK    5  A    between atoms: C_15  and  S_16 
REMARK    6  A    between atoms: S_16  and  N_19 
REMARK    7  A    between atoms: N_19  and  C_20 
ROOT
ATOM      1  C   UNL d   1       6.355  -9.376   1.606  0.00  0.00     0.035 A 
ATOM      2  C   UNL d   1       6.481 -10.470   0.744  0.00  0.00     0.031 A 
ATOM      3  C   UNL d   1       7.088 -11.669   1.189  0.00  0.00     0.027 A 
ATOM      4  C   UNL d   1       7.603 -11.777   2.497  0.00  0.00     0.080 A 
ATOM      5  C   UNL d   1       7.449 -10.699   3.363  0.00  0.00     0.027 A 
ATOM      6  C   UNL d   1       6.841  -9.511   2.912  0.00  0.00     0.031 A 
ENDROOT
BRANCH   1   7
ATOM      7  N   UNL d   1       5.704  -8.181   1.184  0.00  0.00    -0.324 N 
ATOM      8  C   UNL d   1       6.091  -6.911   1.603  0.00  0.00     0.245 C 
ATOM      9  O   UNL d   1       7.071  -6.672   2.301  0.00  0.00    -0.268 OA
ATOM     10  H   UNL d   1       4.991  -8.275   0.471  0.00  0.00     0.169 HD
BRANCH   8  11
ATOM     11  C   UNL d   1       5.240  -5.788   1.091  0.00  0.00     0.075 C 
ATOM     12  C   UNL d   1       5.552  -4.502   1.365  0.00  0.00     0.017 C 
BRANCH  12  13
ATOM     13  C   UNL d   1       4.756  -3.308   0.982  0.00  0.00    -0.036 A 
ATOM     14  C   UNL d   1       5.145  -2.022   1.395  0.00  0.00     0.014 A 
ATOM     15  C   UNL d   1       4.330  -0.904   1.139  0.00  0.00     0.037 A 
ATOM     16  C   UNL d   1       3.151  -1.034   0.406  0.00  0.00     0.068 A 
ATOM     17  C   UNL d   1       2.780  -2.294  -0.047  0.00  0.00     0.037 A 
ATOM     18  C   UNL d   1       3.574  -3.412   0.239  0.00  0.00     0.014 A 
BRANCH  16  19
ATOM     19  O   UNL d   1       2.502   0.128   0.096  0.00  0.00    -0.356 OA
ATOM     20  C   UNL d   1       1.082   0.054   0.003  0.00  0.00     0.210 C 
ENDBRANCH  16  19
ENDBRANCH  12  13
ENDBRANCH   8  11
ENDBRANCH   1   7
BRANCH   4  21
ATOM     21  S   UNL d   1       8.526 -13.274   2.937  0.00  0.00     0.264 S 
ATOM     22  O   UNL d   1       7.548 -14.335   2.958  0.00  0.00    -0.200 OA
ATOM     23  O   UNL d   1       9.653 -13.290   2.019  0.00  0.00    -0.200 OA
BRANCH  21  24
ATOM     24  N   UNL d   1       9.113 -13.081   4.503  0.00  0.00    -0.264 N 
ATOM     25  H   UNL d   1       8.817 -12.311   5.082  0.00  0.00     0.180 HD
BRANCH  24  26
ATOM     26  C   UNL d   1       9.803 -14.164   5.122  0.00  0.00     0.141 A 
ATOM     27  C   UNL d   1       9.484 -14.551   6.409  0.00  0.00     0.077 A 
ATOM     28  C   UNL d   1      10.223 -15.592   6.946  0.00  0.00     0.036 A 
ATOM     29  C   UNL d   1       9.917 -16.146   8.309  0.00  0.00     0.070 C 
ATOM     30  N   UNL d   1      11.234 -16.171   6.269  0.00  0.00    -0.239 NA
ATOM     31  C   UNL d   1      11.495 -15.699   5.034  0.00  0.00     0.124 A 
ATOM     32  C   UNL d   1      12.618 -16.340   4.272  0.00  0.00     0.093 C 
ATOM     33  N   UNL d   1      10.813 -14.704   4.433  0.00  0.00    -0.216 NA
ENDBRANCH  24  26
ENDBRANCH  21  24
ENDBRANCH   4  21
TORSDOF 7
