@<TRIPOS>MOLECULE
*****
 48 49 0 0 0
SMALL
GASTEIGER

@<TRIPOS>ATOM
      1 C           1.0963   -0.0343   -0.0311 C.3     1  UNL1       -0.0307
      2 C           2.6127   -0.0482   -0.0330 C.3     1  UNL1        0.0868
      3 O           3.0193   -0.0532   -1.4038 O.3     1  UNL1       -0.4915
      4 C           4.3731   -0.0344   -1.6026 C.ar    1  UNL1        0.1326
      5 C           5.2441   -0.8915   -0.8992 C.ar    1  UNL1       -0.0181
      6 C           6.6151   -0.9201   -1.1766 C.ar    1  UNL1       -0.0443
      7 C           7.1246   -0.0998   -2.1715 C.ar    1  UNL1        0.0188
      8 BR          8.9749   -0.1525   -2.5666 Br      1  UNL1       -0.0503
      9 C           6.2711    0.7494   -2.8794 C.ar    1  UNL1       -0.0321
     10 C           4.8763    0.7964   -2.6099 C.ar    1  UNL1        0.0797
     11 C           4.0531    1.7654   -3.4237 C.2     1  UNL1        0.2531
     12 O           4.6994    2.4259   -4.2423 O.2     1  UNL1       -0.2697
     13 N           2.6527    1.9057   -3.2412 N.am    1  UNL1       -0.2626
     14 C           1.7829    2.7836   -3.9349 C.2     1  UNL1        0.1533
     15 S           2.2605    3.8654   -5.1416 S.2     1  UNL1       -0.0170
     16 N           0.4257    2.7308   -3.5608 N.am    1  UNL1       -0.2454
     17 N          -0.5363    3.6067   -4.2374 N.am    1  UNL1       -0.2323
     18 C          -1.8909    3.5943   -3.9126 C.2     1  UNL1        0.2667
     19 O          -2.3207    2.8406   -3.0380 O.2     1  UNL1       -0.2705
     20 C          -2.8053    4.5799   -4.7253 C.3     1  UNL1        0.1666
     21 O          -4.1724    4.4922   -4.2870 O.3     1  UNL1       -0.4827
     22 C          -5.0989    5.3066   -4.8880 C.ar    1  UNL1        0.1215
     23 C          -6.0353    5.9065   -4.0405 C.ar    1  UNL1       -0.0185
     24 C          -7.0492    6.7223   -4.5564 C.ar    1  UNL1       -0.0397
     25 C          -7.1586    6.9246   -5.9330 C.ar    1  UNL1        0.0441
     26 CL         -8.4229    7.9692   -6.4822 Cl      1  UNL1       -0.0833
     27 C          -6.2634    6.2933   -6.8111 C.ar    1  UNL1       -0.0287
     28 C          -6.3541    6.4403   -8.3077 C.3     1  UNL1       -0.0382
     29 C          -5.2355    5.4782   -6.2692 C.ar    1  UNL1       -0.0156
     30 H           0.7076   -0.0203    0.9896 H       1  UNL1        0.0262
     31 H           0.7084   -0.9193   -0.5478 H       1  UNL1        0.0262
     32 H           0.7164    0.8390   -0.5717 H       1  UNL1        0.0262
     33 H           2.9552   -0.9419    0.4967 H       1  UNL1        0.0694
     34 H           2.9962    0.8509    0.4633 H       1  UNL1        0.0694
     35 H           4.8767   -1.5799   -0.1435 H       1  UNL1        0.0655
     36 H           7.2691   -1.5941   -0.6258 H       1  UNL1        0.0630
     37 H           6.6998    1.3826   -3.6572 H       1  UNL1        0.0637
     38 H           2.2512    1.2827   -2.5493 H       1  UNL1        0.1569
     39 H           0.0207    2.1161   -2.8556 H       1  UNL1        0.1718
     40 H          -0.1331    4.2151   -4.9501 H       1  UNL1        0.1729
     41 H          -2.7270    4.3244   -5.7876 H       1  UNL1        0.0795
     42 H          -2.4467    5.6048   -4.5649 H       1  UNL1        0.0795
     43 H          -5.9812    5.7465   -2.9662 H       1  UNL1        0.0654
     44 H          -7.7551    7.1990   -3.8791 H       1  UNL1        0.0633
     45 H          -7.1666    7.0961   -8.6327 H       1  UNL1        0.0278
     46 H          -6.5264    5.4656   -8.7757 H       1  UNL1        0.0278
     47 H          -5.4251    6.8693   -8.6961 H       1  UNL1        0.0278
     48 H          -4.5730    4.9531   -6.9508 H       1  UNL1        0.0657
@<TRIPOS>BOND
     1     1     2    1
     2     2     3    1
     3     3     4    1
     4     4     5   ar
     5     5     6   ar
     6     6     7   ar
     7     7     8    1
     8     7     9   ar
     9     9    10   ar
    10     4    10   ar
    11    10    11    1
    12    11    12    2
    13    11    13   am
    14    13    14    1
    15    14    15    2
    16    14    16    1
    17    16    17    1
    18    17    18   am
    19    18    19    2
    20    18    20    1
    21    20    21    1
    22    21    22    1
    23    22    23   ar
    24    23    24   ar
    25    24    25   ar
    26    25    26    1
    27    25    27   ar
    28    27    28    1
    29    27    29   ar
    30    22    29   ar
    31     1    30    1
    32     1    31    1
    33     1    32    1
    34     2    33    1
    35     2    34    1
    36     5    35    1
    37     6    36    1
    38     9    37    1
    39    13    38    1
    40    16    39    1
    41    17    40    1
    42    20    41    1
    43    20    42    1
    44    23    43    1
    45    24    44    1
    46    28    45    1
    47    28    46    1
    48    28    47    1
    49    29    48    1
