REMARK  10 active torsions:
REMARK  status: ('A' for Active; 'I' for Inactive)
REMARK    1  A    between atoms: C_2  and  O_3 
REMARK    2  A    between atoms: O_3  and  C_4 
REMARK    3  A    between atoms: C_8  and  C_9 
REMARK       I    between atoms: C_9  and  N_11 
REMARK    4  A    between atoms: N_11  and  C_12 
REMARK    5  A    between atoms: C_12  and  N_14 
REMARK    6  A    between atoms: N_14  and  N_15 
REMARK       I    between atoms: N_15  and  C_16 
REMARK    7  A    between atoms: C_16  and  C_18 
REMARK    8  A    between atoms: C_21  and  N_22 
REMARK       I    between atoms: N_22  and  C_23 
REMARK    9  A    between atoms: C_23  and  C_25 
REMARK   10  A    between atoms: C_25  and  C_26 
ROOT
ATOM      1  N   UNL d   1       7.841  -0.942   6.278  0.00  0.00    -0.264 N 
ATOM      2  C   UNL d   1       7.227  -0.700   7.497  0.00  0.00     0.270 C 
ATOM      3  O   UNL d   1       6.023  -0.450   7.604  0.00  0.00    -0.266 OA
ATOM      4  H   UNL d   1       8.820  -1.223   6.205  0.00  0.00     0.190 HD
ENDROOT
BRANCH   1   5
ATOM      5  N   UNL d   1       7.112  -0.949   5.026  0.00  0.00    -0.273 N 
ATOM      6  H   UNL d   1       6.130  -0.689   5.102  0.00  0.00     0.189 HD
BRANCH   5   7
ATOM      7  C   UNL d   1       7.805  -1.282   3.846  0.00  0.00     0.193 C 
ATOM      8  S   UNL d   1       9.444  -1.682   3.931  0.00  0.00    -0.039 SA
BRANCH   7   9
ATOM      9  N   UNL d   1       7.037  -1.247   2.661  0.00  0.00    -0.298 N 
ATOM     10  C   UNL d   1       7.494  -1.537   1.350  0.00  0.00     0.258 C 
ATOM     11  O   UNL d   1       8.654  -1.863   1.088  0.00  0.00    -0.267 OA
ATOM     12  H   UNL d   1       6.066  -1.003   2.770  0.00  0.00     0.171 HD
BRANCH  10  13
ATOM     13  C   UNL d   1       6.576  -1.481   0.162  0.00  0.00     0.035 A 
ATOM     14  C   UNL d   1       7.106  -1.839  -1.101  0.00  0.00     0.017 A 
ATOM     15  C   UNL d   1       6.303  -1.883  -2.245  0.00  0.00     0.004 A 
ATOM     16  C   UNL d   1       4.965  -1.517  -2.153  0.00  0.00     0.037 A 
ATOM     17  C   UNL d   1       4.424  -1.161  -0.914  0.00  0.00     0.069 A 
ATOM     18  C   UNL d   1       5.225  -1.147   0.238  0.00  0.00     0.053 A 
BRANCH  17  19
ATOM     19  O   UNL d   1       3.070  -0.953  -0.897  0.00  0.00    -0.351 OA
BRANCH  19  20
ATOM     20  C   UNL d   1       2.616   0.064  -0.004  0.00  0.00     0.171 C 
ATOM     21  C   UNL d   1       1.099   0.053   0.004  0.00  0.00     0.034 C 
ENDBRANCH  19  20
ENDBRANCH  17  19
ENDBRANCH  10  13
ENDBRANCH   7   9
ENDBRANCH   5   7
ENDBRANCH   1   5
BRANCH   2  22
ATOM     22  C   UNL d   1       8.101  -0.717   8.723  0.00  0.00     0.033 A 
ATOM     23  C   UNL d   1       7.640  -1.200   9.963  0.00  0.00     0.019 A 
ATOM     24  C   UNL d   1       8.415  -1.070  11.149  0.00  0.00     0.030 A 
ATOM     25  C   UNL d   1       9.693  -0.504  11.101  0.00  0.00     0.034 A 
ATOM     26  C   UNL d   1      10.111   0.000   9.861  0.00  0.00     0.030 A 
ATOM     27  C   UNL d   1       9.351  -0.113   8.689  0.00  0.00     0.019 A 
BRANCH  25  28
ATOM     28  N   UNL d   1      10.532  -0.465  12.265  0.00  0.00    -0.327 N 
ATOM     29  C   UNL d   1      11.869  -0.091  12.221  0.00  0.00     0.222 C 
ATOM     30  O   UNL d   1      12.462   0.195  11.181  0.00  0.00    -0.273 OA
ATOM     31  H   UNL d   1      10.168  -0.859  13.126  0.00  0.00     0.169 HD
BRANCH  29  32
ATOM     32  C   UNL d   1      12.657  -0.077  13.527  0.00  0.00     0.107 C 
BRANCH  32  33
ATOM     33  C   UNL d   1      14.058   0.555  13.275  0.00  0.00    -0.014 C 
ATOM     34  C   UNL d   1      13.954   2.026  12.837  0.00  0.00     0.010 C 
ATOM     35  C   UNL d   1      14.948   0.477  14.511  0.00  0.00     0.010 C 
ENDBRANCH  32  33
ENDBRANCH  29  32
ENDBRANCH  25  28
ENDBRANCH   2  22
TORSDOF 10
