REMARK  8 active torsions:
REMARK  status: ('A' for Active; 'I' for Inactive)
REMARK    1  A    between atoms: O_2  and  C_3 
REMARK    2  A    between atoms: C_6  and  C_7 
REMARK    3  A    between atoms: N_9  and  C_10 
REMARK    4  A    between atoms: C_17  and  C_18 
REMARK    5  A    between atoms: C_18  and  N_19 
REMARK    6  A    between atoms: C_22  and  C_23 
REMARK       I    between atoms: C_23  and  N_25 
REMARK    7  A    between atoms: N_25  and  C_26 
REMARK    8  A    between atoms: C_31  and  O_32 
ROOT
ATOM      1  C   UNL d   1       5.656   5.440   1.992  0.00  0.00     0.277 C 
ENDROOT
BRANCH   1   2
ATOM      2  C   UNL d   1       5.869   4.544   3.157  0.00  0.00     0.016 C 
ATOM      3  C   UNL d   1       6.521   4.837   4.328  0.00  0.00     0.130 C 
ATOM      4  N   UNL d   1       6.651   3.694   5.046  0.00  0.00    -0.244 N 
ATOM      5  N   UNL d   1       5.995   2.673   4.477  0.00  0.00    -0.167 NA
ATOM      6  C   UNL d   1       5.492   3.181   3.344  0.00  0.00     0.097 C 
BRANCH   4   7
ATOM      7  C   UNL d   1       7.253   3.608   6.299  0.00  0.00     0.058 C 
ATOM      8  C   UNL d   1       8.188   2.610   6.560  0.00  0.00     0.031 C 
ATOM      9  C   UNL d   1       8.704   2.483   7.846  0.00  0.00     0.002 C 
ATOM     10  C   UNL d   1       8.250   3.321   8.857  0.00  0.00     0.000 C 
ATOM     11  C   UNL d   1       7.252   4.253   8.585  0.00  0.00     0.002 C 
ATOM     12  C   UNL d   1       6.829   4.486   7.288  0.00  0.00     0.031 C 
ENDBRANCH   4   7
BRANCH   6  13
ATOM     13  C   UNL d   1       4.695   2.360   2.456  0.00  0.00    -0.005 A 
ATOM     14  C   UNL d   1       5.134   2.120   1.154  0.00  0.00     0.016 A 
ATOM     15  C   UNL d   1       4.326   1.409   0.269  0.00  0.00     0.037 A 
ATOM     16  C   UNL d   1       3.111   0.871   0.700  0.00  0.00     0.068 A 
ATOM     17  C   UNL d   1       2.684   1.093   2.010  0.00  0.00     0.037 A 
ATOM     18  C   UNL d   1       3.471   1.841   2.887  0.00  0.00     0.016 A 
BRANCH  16  19
ATOM     19  O   UNL d   1       2.479   0.061  -0.201  0.00  0.00    -0.356 OA
ATOM     20  C   UNL d   1       1.065  -0.036  -0.085  0.00  0.00     0.210 C 
ENDBRANCH  16  19
ENDBRANCH   6  13
ENDBRANCH   1   2
BRANCH   1  21
ATOM     21  N   UNL d   1       6.434   6.772   2.038  0.00  0.00    -0.067 N 
ATOM     22  C   UNL d   1       5.955   7.739   3.117  0.00  0.00     0.236 C 
ATOM     23  C   UNL d   1       6.830   8.990   3.148  0.00  0.00     0.042 C 
ATOM     24  C   UNL d   1       8.297   8.627   3.362  0.00  0.00     0.081 C 
ATOM     25  C   UNL d   1       8.729   7.808   2.123  0.00  0.00     0.042 C 
ATOM     26  C   UNL d   1       7.940   6.505   1.988  0.00  0.00     0.236 C 
ATOM     27  H   UNL d   1       6.207   7.225   1.146  0.00  0.00     0.280 HD
BRANCH  24  28
ATOM     28  C   UNL d   1       8.539   7.803   4.627  0.00  0.00     0.226 C 
ATOM     29  O   UNL d   1       9.047   6.678   4.487  0.00  0.00    -0.273 OA
ATOM     30  N   UNL d   1       8.051   8.278   5.823  0.00  0.00    -0.324 N 
ATOM     31  H   UNL d   1       7.555   9.160   5.881  0.00  0.00     0.169 HD
BRANCH  30  32
ATOM     32  C   UNL d   1       8.303   7.645   7.074  0.00  0.00     0.068 A 
ATOM     33  C   UNL d   1       7.357   7.765   8.105  0.00  0.00     0.032 A 
ATOM     34  C   UNL d   1       7.634   7.238   9.374  0.00  0.00     0.002 A 
ATOM     35  C   UNL d   1       8.815   6.520   9.595  0.00  0.00     0.003 A 
ATOM     36  C   UNL d   1       9.716   6.320   8.555  0.00  0.00     0.039 A 
ATOM     37  C   UNL d   1       9.483   6.921   7.325  0.00  0.00     0.092 A 
BRANCH  37  38
ATOM     38  O   UNL d   1      10.498   6.877   6.411  0.00  0.00    -0.358 OA
ATOM     39  H   UNL d   1      10.955   6.024   6.497  0.00  0.00     0.217 HD
ENDBRANCH  37  38
ENDBRANCH  30  32
ENDBRANCH  24  28
ENDBRANCH   1  21
TORSDOF 8
