@<TRIPOS>MOLECULE
*****
 62 64 0 0 0
SMALL
GASTEIGER

@<TRIPOS>ATOM
      1 C           1.0576    0.0410    0.0739 C.3     1  UNL1       -0.0652
      2 C           2.5793    0.0524    0.0601 C.3     1  UNL1       -0.0528
      3 C           3.1267    0.9578   -1.0476 C.3     1  UNL1       -0.0188
      4 C           4.6585    0.9684   -1.0679 C.3     1  UNL1        0.0928
      5 O           5.1339    1.8214   -2.1288 O.3     1  UNL1       -0.4612
      6 C           6.4874    1.8551   -2.2771 C.2     1  UNL1        0.3392
      7 O           7.3053    1.2333   -1.6044 O.2     1  UNL1       -0.2450
      8 C           6.8790    2.7821   -3.3678 C.ar    1  UNL1        0.0591
      9 C           7.9026    2.4975   -4.2883 C.ar    1  UNL1       -0.0460
     10 C           8.2986    3.4585   -5.2593 C.ar    1  UNL1       -0.0397
     11 C           7.6373    4.6935   -5.3491 C.ar    1  UNL1        0.0334
     12 N           7.9097    5.6227   -6.4131 N.am    1  UNL1       -0.2852
     13 C           7.2196    6.8365   -6.5720 C.2     1  UNL1        0.2230
     14 O           6.4238    7.2716   -5.7405 O.2     1  UNL1       -0.2751
     15 C           7.5299    7.6845   -7.8103 C.3     1  UNL1        0.0671
     16 C           6.6709    8.9420   -7.8185 C.ar    1  UNL1        0.0593
     17 C           7.0772   10.2633   -7.7918 C.ar    1  UNL1        0.0007
     18 S           5.6966   11.3115   -7.6753 S.2     1  UNL1       -0.0602
     19 C           4.6665    9.9485   -7.6832 C.ar    1  UNL1        0.1658
     20 N           3.2933   10.1543   -7.5693 N.am    1  UNL1       -0.2485
     21 C           2.4892    9.0369   -7.5221 C.2     1  UNL1        0.3055
     22 O           2.9429    7.9012   -7.5856 O.2     1  UNL1       -0.2524
     23 N           1.1251    9.2515   -7.3886 N.am    1  UNL1       -0.2963
     24 C           0.1201    8.1391   -7.3393 C.3     1  UNL1        0.0246
     25 C           0.7207    6.7176   -7.3514 C.3     1  UNL1       -0.0345
     26 C          -0.2776    5.5872   -7.1878 C.3     1  UNL1       -0.0514
     27 C          -1.1032    5.7785   -5.9292 C.3     1  UNL1       -0.0529
     28 C          -1.7970    7.1351   -5.9575 C.3     1  UNL1       -0.0514
     29 C          -0.7984    8.2917   -6.1107 C.3     1  UNL1       -0.0345
     30 N           5.2932    8.8050   -7.8293 N.ar    1  UNL1       -0.2290
     31 C           6.6638    4.9546   -4.3767 C.ar    1  UNL1       -0.0397
     32 C           6.2808    4.0287   -3.4090 C.ar    1  UNL1       -0.0460
     33 H           0.6862   -0.6116    0.8710 H       1  UNL1        0.0230
     34 H           0.6605   -0.3272   -0.8774 H       1  UNL1        0.0230
     35 H           0.6604    1.0463    0.2468 H       1  UNL1        0.0230
     36 H           2.9422   -0.9728   -0.0802 H       1  UNL1        0.0264
     37 H           2.9426    0.3927    1.0370 H       1  UNL1        0.0264
     38 H           2.7514    1.9800   -0.9128 H       1  UNL1        0.0298
     39 H           2.7485    0.6245   -2.0219 H       1  UNL1        0.0298
     40 H           5.0269   -0.0507   -1.2301 H       1  UNL1        0.0697
     41 H           5.0328    1.3446   -0.1085 H       1  UNL1        0.0697
     42 H           8.3876    1.5226   -4.2633 H       1  UNL1        0.0626
     43 H           9.1268    3.2122   -5.9215 H       1  UNL1        0.0636
     44 H           8.5819    5.3378   -7.1164 H       1  UNL1        0.1548
     45 H           7.3354    7.1117   -8.7234 H       1  UNL1        0.0423
     46 H           8.5901    7.9581   -7.7823 H       1  UNL1        0.0423
     47 H           8.0873   10.6474   -7.8085 H       1  UNL1        0.0712
     48 H           2.9419   11.0936   -7.5005 H       1  UNL1        0.1583
     49 H           0.7584   10.1910   -7.4346 H       1  UNL1        0.1505
     50 H          -0.5001    8.2524   -8.2401 H       1  UNL1        0.0499
     51 H           1.4310    6.6275   -6.5187 H       1  UNL1        0.0283
     52 H           1.2565    6.5499   -8.2929 H       1  UNL1        0.0283
     53 H           0.2684    4.6375   -7.1330 H       1  UNL1        0.0266
     54 H          -0.9279    5.5384   -8.0674 H       1  UNL1        0.0266
     55 H          -0.4571    5.7097   -5.0443 H       1  UNL1        0.0265
     56 H          -1.8403    4.9721   -5.8501 H       1  UNL1        0.0265
     57 H          -2.3747    7.2631   -5.0353 H       1  UNL1        0.0266
     58 H          -2.5126    7.1529   -6.7889 H       1  UNL1        0.0266
     59 H          -0.1802    8.3462   -5.2059 H       1  UNL1        0.0283
     60 H          -1.3538    9.2352   -6.1690 H       1  UNL1        0.0283
     61 H           6.1372    5.8955   -4.3127 H       1  UNL1        0.0636
     62 H           5.5152    4.3168   -2.6950 H       1  UNL1        0.0626
@<TRIPOS>BOND
     1     1     2    1
     2     2     3    1
     3     3     4    1
     4     4     5    1
     5     5     6    1
     6     6     7    2
     7     6     8    1
     8     8     9   ar
     9     9    10   ar
    10    10    11   ar
    11    11    12    1
    12    12    13   am
    13    13    14    2
    14    13    15    1
    15    15    16    1
    16    16    17   ar
    17    17    18   ar
    18    18    19   ar
    19    19    20    1
    20    20    21   am
    21    21    22    2
    22    21    23   am
    23    23    24    1
    24    24    25    1
    25    25    26    1
    26    26    27    1
    27    27    28    1
    28    28    29    1
    29    24    29    1
    30    19    30   ar
    31    16    30   ar
    32    11    31   ar
    33    31    32   ar
    34     8    32   ar
    35     1    33    1
    36     1    34    1
    37     1    35    1
    38     2    36    1
    39     2    37    1
    40     3    38    1
    41     3    39    1
    42     4    40    1
    43     4    41    1
    44     9    42    1
    45    10    43    1
    46    12    44    1
    47    15    45    1
    48    15    46    1
    49    17    47    1
    50    20    48    1
    51    23    49    1
    52    24    50    1
    53    25    51    1
    54    25    52    1
    55    26    53    1
    56    26    54    1
    57    27    55    1
    58    27    56    1
    59    28    57    1
    60    28    58    1
    61    29    59    1
    62    29    60    1
    63    31    61    1
    64    32    62    1
