@<TRIPOS>MOLECULE
*****
 66 68 0 0 0
SMALL
GASTEIGER

@<TRIPOS>ATOM
      1 C           5.9759    5.0678    1.2677 C.3     1  UNL1       -0.0380
      2 C           5.8955    3.9624    0.2225 C.3     1  UNL1        0.0997
      3 N           5.7226    2.6779    0.9029 N.am    1  UNL1       -0.2701
      4 C           6.6821    2.0922    1.6876 C.2     1  UNL1        0.4012
      5 O           7.7800    2.5923    1.9284 O.2     1  UNL1       -0.2265
      6 O           6.2408    0.9122    2.2151 O.3     1  UNL1       -0.4456
      7 C           7.1857    0.2918    3.1242 C.3     1  UNL1        0.1191
      8 C           6.7277   -1.0559    3.6664 C.ar    1  UNL1       -0.0103
      9 C           7.0430   -1.4891    4.9588 C.ar    1  UNL1       -0.0554
     10 C           6.7392   -2.7959    5.3851 C.ar    1  UNL1       -0.0614
     11 C           6.0291   -3.6622    4.5688 C.ar    1  UNL1       -0.0617
     12 C           5.6951   -3.2403    3.3025 C.ar    1  UNL1       -0.0614
     13 C           6.0913   -1.9801    2.8492 C.ar    1  UNL1       -0.0554
     14 C           4.7670    4.2939   -0.8063 C.2     1  UNL1        0.2338
     15 O           4.0773    5.3137   -0.7181 O.2     1  UNL1       -0.2738
     16 N           4.5683    3.5242   -1.9182 N.am    1  UNL1       -0.3002
     17 C           5.0546    2.1750   -2.2365 C.3     1  UNL1        0.1295
     18 C           4.3871    1.0711   -1.3969 C.3     1  UNL1        0.0228
     19 S           4.8341   -0.5722   -2.0162 S.3     1  UNL1       -0.1537
     20 C           4.8274   -1.5357   -0.4622 C.3     1  UNL1        0.0189
     21 C           5.6760   -2.7953   -0.5718 C.ar    1  UNL1       -0.0376
     22 C           5.3735   -3.9518    0.1619 C.ar    1  UNL1       -0.0578
     23 C           6.2368   -5.0589    0.1650 C.ar    1  UNL1       -0.0615
     24 C           7.3254   -5.0931   -0.6986 C.ar    1  UNL1       -0.0617
     25 C           7.6132   -3.9797   -1.4738 C.ar    1  UNL1       -0.0615
     26 C           6.8334   -2.8304   -1.3620 C.ar    1  UNL1       -0.0578
     27 C           6.5948    2.1210   -2.2433 C.2     1  UNL1        0.3288
     28 O           7.2766    1.4821   -1.4524 O.2     1  UNL1       -0.2487
     29 O           7.1163    2.9180   -3.2183 O.3     1  UNL1       -0.4586
     30 C           8.5537    2.9307   -3.2215 C.3     1  UNL1        0.1176
     31 C           9.0230    3.9197   -4.2554 C.ar    1  UNL1       -0.0103
     32 C           9.9055    3.5655   -5.2858 C.ar    1  UNL1       -0.0554
     33 C          10.3565    4.5355   -6.1860 C.ar    1  UNL1       -0.0614
     34 C           9.8747    5.8420   -6.1074 C.ar    1  UNL1       -0.0617
     35 C           8.9994    6.2011   -5.0864 C.ar    1  UNL1       -0.0614
     36 C           8.5930    5.2499   -4.1555 C.ar    1  UNL1       -0.0554
     37 H           6.7896    4.8829    1.9740 H       1  UNL1        0.0252
     38 H           5.0435    5.1129    1.8398 H       1  UNL1        0.0252
     39 H           6.1507    6.0436    0.8057 H       1  UNL1        0.0252
     40 H           6.8435    3.9485   -0.3300 H       1  UNL1        0.0593
     41 H           4.7830    2.3586    1.0833 H       1  UNL1        0.1528
     42 H           7.3261    0.9751    3.9680 H       1  UNL1        0.0749
     43 H           8.1445    0.1382    2.6111 H       1  UNL1        0.0749
     44 H           7.5500   -0.8221    5.6487 H       1  UNL1        0.0621
     45 H           7.0665   -3.1486    6.3571 H       1  UNL1        0.0618
     46 H           5.7482   -4.6616    4.8880 H       1  UNL1        0.0618
     47 H           5.1590   -3.9288    2.6683 H       1  UNL1        0.0618
     48 H           5.9380   -1.7223    1.8236 H       1  UNL1        0.0621
     49 H           3.8576    3.9103   -2.5346 H       1  UNL1        0.1496
     50 H           4.7329    2.0039   -3.2742 H       1  UNL1        0.0623
     51 H           4.6317    1.1408   -0.3465 H       1  UNL1        0.0400
     52 H           3.2963    1.1349   -1.4545 H       1  UNL1        0.0400
     53 H           3.7869   -1.7923   -0.2416 H       1  UNL1        0.0425
     54 H           5.1718   -0.8934    0.3539 H       1  UNL1        0.0425
     55 H           4.4745   -3.9914    0.7726 H       1  UNL1        0.0621
     56 H           6.0662   -5.8951    0.8401 H       1  UNL1        0.0618
     57 H           7.9463   -5.9808   -0.7729 H       1  UNL1        0.0618
     58 H           8.4516   -3.9831   -2.1629 H       1  UNL1        0.0618
     59 H           7.1333   -1.9652   -1.9455 H       1  UNL1        0.0621
     60 H           8.9315    1.9244   -3.4353 H       1  UNL1        0.0749
     61 H           8.9322    3.2571   -2.2431 H       1  UNL1        0.0749
     62 H          10.2480    2.5391   -5.4019 H       1  UNL1        0.0621
     63 H          11.0843    4.2765   -6.9514 H       1  UNL1        0.0618
     64 H          10.1791    6.5812   -6.8432 H       1  UNL1        0.0618
     65 H           8.6347    7.2209   -5.0066 H       1  UNL1        0.0618
     66 H           7.9234    5.5403   -3.3493 H       1  UNL1        0.0621
@<TRIPOS>BOND
     1     1     2    1
     2     2     3    1
     3     3     4   am
     4     4     5    2
     5     4     6    1
     6     6     7    1
     7     7     8    1
     8     8     9   ar
     9     9    10   ar
    10    10    11   ar
    11    11    12   ar
    12    12    13   ar
    13     8    13   ar
    14     2    14    1
    15    14    15    2
    16    14    16   am
    17    18    19    1
    18    19    20    1
    19    20    21    1
    20    21    22   ar
    21    22    23   ar
    22    23    24   ar
    23    24    25   ar
    24    25    26   ar
    25    21    26   ar
    26    17    27    1
    27    27    28    2
    28    27    29    1
    29    29    30    1
    30    30    31    1
    31    31    32   ar
    32    32    33   ar
    33    33    34   ar
    34    34    35   ar
    35    35    36   ar
    36    31    36   ar
    37    17    18    1
    38    17    16    1
    39     1    37    1
    40     1    38    1
    41     1    39    1
    42     2    40    1
    43     3    41    1
    44     7    42    1
    45     7    43    1
    46     9    44    1
    47    10    45    1
    48    11    46    1
    49    12    47    1
    50    13    48    1
    51    16    49    1
    52    17    50    1
    53    18    51    1
    54    18    52    1
    55    20    53    1
    56    20    54    1
    57    22    55    1
    58    23    56    1
    59    24    57    1
    60    25    58    1
    61    26    59    1
    62    30    60    1
    63    30    61    1
    64    32    62    1
    65    33    63    1
    66    34    64    1
    67    35    65    1
    68    36    66    1
