@<TRIPOS>MOLECULE
*****
 65 69 0 0 0
SMALL
GASTEIGER

@<TRIPOS>ATOM
      1 O           1.0505    0.1442    0.1325 O.2     1  UNL1       -0.2749
      2 C           2.2737    0.2096    0.0170 C.2     1  UNL1        0.2233
      3 C           3.0381    0.5966   -1.2621 C.3     1  UNL1        0.0776
      4 S           1.9297    1.3303   -2.4805 S.3     1  UNL1       -0.0768
      5 C           2.7645    1.1193   -3.9847 C.ar    1  UNL1        0.1903
      6 N           2.9975    2.2872   -4.4986 N.ar    1  UNL1       -0.2218
      7 C           3.5939    2.4329   -5.7372 C.ar    1  UNL1        0.0791
      8 C           3.7354    3.7335   -6.2472 C.ar    1  UNL1       -0.0355
      9 C           4.1674    3.9380   -7.5539 C.ar    1  UNL1       -0.0597
     10 C           4.5367    2.8381   -8.3223 C.ar    1  UNL1       -0.0609
     11 C           4.5933    1.5601   -7.7387 C.ar    1  UNL1       -0.0473
     12 C           4.0302    1.3407   -6.4683 C.ar    1  UNL1        0.0665
     13 C           3.8030   -0.0183   -5.8629 C.ar    1  UNL1        0.2796
     14 O           4.2240   -1.0076   -6.4670 O.2     1  UNL1       -0.2653
     15 N           3.1011   -0.0909   -4.6161 N.ar    1  UNL1       -0.1994
     16 N           2.9812   -1.5662   -4.0148 N.am    1  UNL1       -0.2180
     17 C           2.1588   -1.9925   -2.9440 C.2     1  UNL1        0.2315
     18 O           1.2800   -1.2419   -2.4672 O.2     1  UNL1       -0.2741
     19 C           2.2069   -3.4751   -2.2549 C.3     1  UNL1        0.0296
     20 C           1.5921   -3.5216   -0.5915 C.3     1  UNL1       -0.0174
     21 C           1.2075   -4.8940    0.5884 C.ar    1  UNL1       -0.0219
     22 C          -0.1142   -4.5365    0.3965 C.ar    1  UNL1        0.0059
     23 N          -0.5296   -5.8246    0.3506 N.ar    1  UNL1       -0.3604
     24 C          -0.7523   -5.7878    1.6783 C.ar    1  UNL1        0.0467
     25 C          -1.9215   -5.2340    2.3386 C.ar    1  UNL1       -0.0378
     26 C          -2.0898   -5.2426    3.6910 C.ar    1  UNL1       -0.0598
     27 C          -1.1378   -5.9776    4.2997 C.ar    1  UNL1       -0.0611
     28 C           0.1055   -6.2288    3.5212 C.ar    1  UNL1       -0.0523
     29 C           0.6682   -5.8016    2.0984 C.ar    1  UNL1        0.0028
     30 N           3.0147   -0.1111    1.1275 N.am    1  UNL1       -0.3143
     31 C           4.4565   -0.1510    1.2220 C.3     1  UNL1        0.0156
     32 C           4.9636   -0.4451    2.6372 C.3     1  UNL1       -0.0121
     33 C           6.4726   -0.4329    2.6584 C.ar    1  UNL1       -0.0459
     34 C           7.1715    0.7822    2.6590 C.ar    1  UNL1       -0.0585
     35 C           8.5496    0.8003    2.4439 C.ar    1  UNL1       -0.0615
     36 C           9.2567   -0.3967    2.3627 C.ar    1  UNL1       -0.0617
     37 C           8.5865   -1.6095    2.5064 C.ar    1  UNL1       -0.0615
     38 C           7.1941   -1.6308    2.5907 C.ar    1  UNL1       -0.0585
     39 H           3.5692   -0.2863   -1.6314 H       1  UNL1        0.0475
     40 H           3.7847    1.3555   -1.0286 H       1  UNL1        0.0475
     41 H           3.4612    4.5860   -5.6278 H       1  UNL1        0.0639
     42 H           4.2091    4.9457   -7.9637 H       1  UNL1        0.0618
     43 H           4.7652    2.9771   -9.3784 H       1  UNL1        0.0618
     44 H           5.0570    0.7509   -8.2974 H       1  UNL1        0.0626
     45 H           3.3288   -2.2231   -4.7238 H       1  UNL1        0.1758
     46 H           3.2387   -3.8209   -2.3137 H       1  UNL1        0.0362
     47 H           1.5617   -4.0438   -2.9500 H       1  UNL1        0.0362
     48 H           0.5897   -3.1039   -0.8672 H       1  UNL1        0.0318
     49 H           2.0801   -2.7333   -0.0340 H       1  UNL1        0.0318
     50 H          -0.5578   -3.6692    0.9127 H       1  UNL1        0.0810
     51 H           0.0703   -6.5643   -0.0068 H       1  UNL1        0.1653
     52 H          -2.6584   -4.7514    1.7038 H       1  UNL1        0.0638
     53 H          -2.9931   -4.8551    4.1513 H       1  UNL1        0.0618
     54 H          -1.4196   -6.4561    5.2504 H       1  UNL1        0.0618
     55 H           0.4875   -7.2148    3.9048 H       1  UNL1        0.0624
     56 H           2.4424   -0.3484    1.9321 H       1  UNL1        0.1487
     57 H           4.8305    0.8179    0.8758 H       1  UNL1        0.0465
     58 H           4.8101   -0.9119    0.5160 H       1  UNL1        0.0465
     59 H           4.5869   -1.4175    2.9789 H       1  UNL1        0.0328
     60 H           4.5778    0.2964    3.3474 H       1  UNL1        0.0328
     61 H           6.6441    1.7231    2.8009 H       1  UNL1        0.0620
     62 H           9.0728    1.7475    2.3416 H       1  UNL1        0.0618
     63 H          10.3307   -0.3835    2.1976 H       1  UNL1        0.0618
     64 H           9.1474   -2.5397    2.5359 H       1  UNL1        0.0618
     65 H           6.6773   -2.5878    2.5965 H       1  UNL1        0.0620
@<TRIPOS>BOND
     1     1     2    2
     2     2     3    1
     3     3     4    1
     4     4     5    1
     5     5     6   ar
     6     6     7   ar
     7     7     8   ar
     8     8     9   ar
     9     9    10   ar
    10    10    11   ar
    11    11    12   ar
    12     7    12   ar
    13    12    13   ar
    14    13    14    2
    15    13    15   ar
    16     5    15   ar
    17    15    16    1
    18    16    17   am
    19    17    18    2
    20    17    19    1
    21    19    20    1
    22    20    21    1
    23    21    22   ar
    24    22    23   ar
    25    23    24   ar
    26    24    25   ar
    27    25    26   ar
    28    26    27   ar
    29    27    28   ar
    30    28    29   ar
    31    21    29   ar
    32    24    29   ar
    33     2    30   am
    34    30    31    1
    35    31    32    1
    36    32    33    1
    37    33    34   ar
    38    34    35   ar
    39    35    36   ar
    40    36    37   ar
    41    37    38   ar
    42    33    38   ar
    43     3    39    1
    44     3    40    1
    45     8    41    1
    46     9    42    1
    47    10    43    1
    48    11    44    1
    49    16    45    1
    50    19    46    1
    51    19    47    1
    52    20    48    1
    53    20    49    1
    54    22    50    1
    55    23    51    1
    56    25    52    1
    57    26    53    1
    58    27    54    1
    59    28    55    1
    60    30    56    1
    61    31    57    1
    62    31    58    1
    63    32    59    1
    64    32    60    1
    65    34    61    1
    66    35    62    1
    67    36    63    1
    68    37    64    1
    69    38    65    1
