@<TRIPOS>MOLECULE
*****
 52 55 0 0 0
SMALL
GASTEIGER

@<TRIPOS>ATOM
      1 C           1.8800    1.4844   -0.0153 C.3     1  UNL1       -0.0395
      2 C           0.6029    0.6930    0.0018 C.ar    1  UNL1       -0.0474
      3 C          -0.5976    1.3916    0.0245 C.ar    1  UNL1       -0.0568
      4 C          -1.8099    0.7150    0.0224 C.ar    1  UNL1       -0.0402
      5 C          -1.8863   -0.6777   -0.0190 C.ar    1  UNL1        0.0336
      6 N          -3.1418   -1.3583   -0.0648 N.am    1  UNL1       -0.2855
      7 C          -4.3724   -0.7157   -0.0855 C.2     1  UNL1        0.2177
      8 O          -4.5479    0.5017   -0.0554 O.2     1  UNL1       -0.2755
      9 C          -5.6002   -1.6003   -0.1489 C.3     1  UNL1        0.0327
     10 C          -6.8238   -0.6778   -0.1491 C.3     1  UNL1        0.0348
     11 C          -8.1318   -1.3520   -0.2050 C.ar    1  UNL1        0.2279
     12 N          -9.3064   -0.7736   -0.2456 N.ar    1  UNL1       -0.1952
     13 C         -10.1573   -1.8348   -0.3028 C.ar    1  UNL1        0.1819
     14 C         -11.6291   -1.6484   -0.3675 C.3     1  UNL1        0.0695
     15 S         -12.0518    0.1677   -0.3939 S.3     1  UNL1       -0.0039
     16 C         -13.8498    0.2021   -0.3978 C.3     1  UNL1        0.3955
     17 N         -14.5482   -1.0185    0.0536 N.2     1  UNL1       -0.1660
     18 C         -15.2495   -0.7560    1.0903 C.ar    1  UNL1        0.2782
     19 C         -16.0035   -1.6617    1.9334 C.ar    1  UNL1        0.0162
     20 C         -16.6453   -1.0831    2.9583 C.ar    1  UNL1       -0.0551
     21 C         -16.6149    0.3447    3.2354 C.ar    1  UNL1       -0.0551
     22 C         -15.9317    1.2481    2.5103 C.ar    1  UNL1        0.0162
     23 C         -15.1863    0.7059    1.3768 C.ar    1  UNL1        0.2782
     24 N         -14.4282    1.2569    0.5064 N.2     1  UNL1       -0.1660
     25 N          -9.5711   -3.0362   -0.2670 N.ar    1  UNL1       -0.0605
     26 O          -8.2028   -2.7147   -0.2094 O.2     1  UNL1       -0.3380
     27 C          -0.6779   -1.3931   -0.0194 C.ar    1  UNL1       -0.0373
     28 C           0.5704   -0.7161   -0.0019 C.ar    1  UNL1       -0.0458
     29 C           1.8625   -1.4908    0.0201 C.3     1  UNL1       -0.0394
     30 H           1.6774    2.5623   -0.0266 H       1  UNL1        0.0278
     31 H           2.4575    1.2550   -0.9152 H       1  UNL1        0.0278
     32 H           2.4727    1.2723    0.8783 H       1  UNL1        0.0278
     33 H          -0.6177    2.4785    0.0425 H       1  UNL1        0.0621
     34 H          -2.6812    1.3525    0.0512 H       1  UNL1        0.0636
     35 H          -3.1072   -2.3706   -0.1061 H       1  UNL1        0.1548
     36 H          -5.6251   -2.2610    0.7229 H       1  UNL1        0.0363
     37 H          -5.5785   -2.1996   -1.0643 H       1  UNL1        0.0363
     38 H          -6.7760    0.0150   -1.0026 H       1  UNL1        0.0365
     39 H          -6.8212   -0.0432    0.7494 H       1  UNL1        0.0365
     40 H         -12.0813   -2.1140    0.5169 H       1  UNL1        0.0462
     41 H         -12.0330   -2.1302   -1.2643 H       1  UNL1        0.0462
     42 H         -14.2068    0.4290   -1.4081 H       1  UNL1        0.2074
     43 H         -14.4582   -1.9555   -0.3352 H       1  UNL1        0.4537
     44 H         -16.0329   -2.7307    1.7542 H       1  UNL1        0.0685
     45 H         -17.2326   -1.7023    3.6400 H       1  UNL1        0.0620
     46 H         -17.1966    0.6667    4.1036 H       1  UNL1        0.0620
     47 H         -15.9373    2.3035    2.7649 H       1  UNL1        0.0685
     48 H         -14.2047    2.2561    0.4757 H       1  UNL1        0.4537
     49 H          -0.6770   -2.4811   -0.0316 H       1  UNL1        0.0639
     50 H           1.6894   -2.5704    0.0265 H       1  UNL1        0.0278
     51 H           2.4354   -1.2410    0.9205 H       1  UNL1        0.0278
     52 H           2.4653   -1.2521   -0.8628 H       1  UNL1        0.0278
@<TRIPOS>UNITY_ATOM_ATTR
17 1
charge 1
24 1
charge 1
@<TRIPOS>BOND
     1     1     2    1
     2     2     3   ar
     3     3     4   ar
     4     4     5   ar
     5     5     6    1
     6     6     7   am
     7     7     8    2
     8     7     9    1
     9     9    10    1
    10    10    11    1
    11    11    12   ar
    12    12    13   ar
    13    13    14    1
    14    14    15    1
    15    15    16    1
    16    16    17    1
    17    17    18    2
    18    18    19   ar
    19    19    20   ar
    20    20    21   ar
    21    21    22   ar
    22    22    23   ar
    23    18    23   ar
    24    23    24    2
    25    16    24    1
    26    13    25   ar
    27    25    26   ar
    28    11    26   ar
    29     5    27   ar
    30    27    28   ar
    31     2    28   ar
    32    28    29    1
    33     1    30    1
    34     1    31    1
    35     1    32    1
    36     3    33    1
    37     4    34    1
    38     6    35    1
    39     9    36    1
    40     9    37    1
    41    10    38    1
    42    10    39    1
    43    14    40    1
    44    14    41    1
    45    16    42    1
    46    17    43    1
    47    19    44    1
    48    20    45    1
    49    21    46    1
    50    22    47    1
    51    24    48    1
    52    27    49    1
    53    29    50    1
    54    29    51    1
    55    29    52    1
