REMARK  12 active torsions:
REMARK  status: ('A' for Active; 'I' for Inactive)
REMARK    1  A    between atoms: C_2  and  C_3 
REMARK    2  A    between atoms: C_3  and  C_4 
REMARK    3  A    between atoms: C_4  and  C_5 
REMARK    4  A    between atoms: C_5  and  C_6 
REMARK       I    between atoms: C_6  and  N_8 
REMARK    5  A    between atoms: N_8  and  C_9 
REMARK    6  A    between atoms: C_13  and  N_14 
REMARK    7  A    between atoms: N_14  and  C_15 
REMARK    8  A    between atoms: C_15  and  C_16 
REMARK       I    between atoms: C_16  and  N_18 
REMARK    9  A    between atoms: N_18  and  C_19 
REMARK   10  A    between atoms: C_23  and  C_24 
REMARK       I    between atoms: C_24  and  N_26 
REMARK   11  A    between atoms: N_26  and  C_28 
REMARK   12  A    between atoms: C_28  and  C_29 
ROOT
ATOM      1  C   UNL d   1      11.684  -1.241   3.609  0.00  0.00     0.239 C 
ATOM      2  O   UNL d   1      12.883  -1.507   3.481  0.00  0.00    -0.271 OA
ATOM      3  N   UNL d   1      11.136  -0.510   4.678  0.00  0.00    -0.326 N 
ATOM      4  H   UNL d   1      10.129  -0.403   4.742  0.00  0.00     0.169 HD
ENDROOT
BRANCH   1   5
ATOM      5  C   UNL d   1      10.700  -1.794   2.573  0.00  0.00     0.223 C 
BRANCH   5   6
ATOM      6  N   UNL d   1      11.424  -2.593   1.566  0.00  0.00    -0.381 N 
ATOM      7  H   UNL d   1      12.422  -2.718   1.729  0.00  0.00     0.160 HD
BRANCH   6   8
ATOM      8  C   UNL d   1      10.780  -3.340   0.600  0.00  0.00     0.030 A 
ATOM      9  C   UNL d   1      11.480  -4.179  -0.271  0.00  0.00     0.029 A 
ATOM     10  C   UNL d   1      10.800  -4.953  -1.225  0.00  0.00     0.004 A 
ATOM     11  C   UNL d   1       9.408  -4.865  -1.353  0.00  0.00     0.029 A 
ATOM     12  C   UNL d   1       8.699  -4.013  -0.512  0.00  0.00     0.036 A 
ATOM     13  C   UNL d   1       9.397  -3.268   0.441  0.00  0.00     0.058 A 
BRANCH  12  14
ATOM     14  N   UNL d   1       7.288  -3.924  -0.564  0.00  0.00    -0.327 N 
ATOM     15  C   UNL d   1       6.628  -2.719  -0.367  0.00  0.00     0.222 C 
ATOM     16  O   UNL d   1       7.199  -1.637  -0.218  0.00  0.00    -0.273 OA
ATOM     17  H   UNL d   1       6.774  -4.740  -0.869  0.00  0.00     0.169 HD
BRANCH  15  18
ATOM     18  C   UNL d   1       5.112  -2.795  -0.372  0.00  0.00     0.103 C 
BRANCH  18  19
ATOM     19  C   UNL d   1       4.540  -1.379  -0.213  0.00  0.00     0.009 C 
BRANCH  19  20
ATOM     20  C   UNL d   1       3.019  -1.355  -0.211  0.00  0.00     0.000 C 
BRANCH  20  21
ATOM     21  C   UNL d   1       2.500   0.074  -0.053  0.00  0.00    -0.005 C 
ATOM     22  C   UNL d   1       0.982   0.095  -0.051  0.00  0.00     0.005 C 
ENDBRANCH  20  21
ENDBRANCH  19  20
ENDBRANCH  18  19
ENDBRANCH  15  18
ENDBRANCH  12  14
ENDBRANCH   6   8
ENDBRANCH   5   6
ENDBRANCH   1   5
BRANCH   3  23
ATOM     23  C   UNL d   1      11.925   0.202   5.635  0.00  0.00     0.035 C 
ATOM     24  C   UNL d   1      11.519   0.524   6.917  0.00  0.00     0.029 C 
ATOM     25  C   UNL d   1      12.351   1.342   7.718  0.00  0.00     0.003 C 
ATOM     26  C   UNL d   1      13.545   1.905   7.214  0.00  0.00     0.017 C 
ATOM     27  C   UNL d   1      13.943   1.618   5.914  0.00  0.00     0.034 C 
ATOM     28  C   UNL d   1      13.175   0.664   5.256  0.00  0.00     0.046 C 
BRANCH  27  29
ATOM     29  C   UNL d   1      15.142   2.304   5.264  0.00  0.00     0.253 C 
ATOM     30  O   UNL d   1      15.864   2.978   5.981  0.00  0.00    -0.267 OA
ATOM     31  N   UNL d   1      15.381   2.197   3.866  0.00  0.00    -0.348 N 
ATOM     32  C   UNL d   1      14.504   1.527   2.923  0.00  0.00     0.153 C 
BRANCH  31  33
ATOM     33  C   UNL d   1      16.639   2.761   3.308  0.00  0.00     0.164 C 
BRANCH  33  34
ATOM     34  C   UNL d   1      16.935   2.419   1.841  0.00  0.00    -0.040 C 
ATOM     35  C   UNL d   1      16.779   1.110   1.335  0.00  0.00     0.009 C 
ATOM     36  C   UNL d   1      16.831   0.824  -0.026  0.00  0.00     0.001 C 
ATOM     37  C   UNL d   1      17.201   1.820  -0.910  0.00  0.00     0.000 C 
ATOM     38  C   UNL d   1      17.506   3.093  -0.423  0.00  0.00     0.001 C 
ATOM     39  C   UNL d   1      17.348   3.403   0.937  0.00  0.00     0.009 C 
ENDBRANCH  33  34
ENDBRANCH  31  33
ENDBRANCH  27  29
ENDBRANCH   3  23
TORSDOF 12
