@<TRIPOS>MOLECULE
*****
 63 67 0 0 0
SMALL
GASTEIGER

@<TRIPOS>ATOM
      1 C           0.9956    0.0231    0.0487 C.3     1  UNL1        0.0004
      2 N           2.4383   -0.0307    0.0435 N.am    1  UNL1       -0.3132
      3 C           3.1080   -0.9224   -0.7864 C.2     1  UNL1        0.2623
      4 O           2.5147   -1.7297   -1.5016 O.2     1  UNL1       -0.2685
      5 C           4.6079   -0.8812   -0.7454 C.ar    1  UNL1        0.1288
      6 C           5.2429   -0.7484    0.4808 C.ar    1  UNL1        0.0112
      7 C           6.6349   -0.7633    0.5306 C.ar    1  UNL1        0.1321
      8 O           7.3745   -0.6331    1.6965 O.3     1  UNL1       -0.4558
      9 C           6.7139   -0.5818    2.9141 C.ar    1  UNL1        0.1307
     10 C           5.9086   -1.6444    3.3560 C.ar    1  UNL1       -0.0157
     11 C           5.2033   -1.5729    4.5678 C.ar    1  UNL1       -0.0136
     12 C           5.4084   -0.4250    5.3275 C.ar    1  UNL1        0.1572
     13 O           4.8572   -0.1149    6.5392 O.2     1  UNL1       -0.4243
     14 C           5.3924    1.1109    6.8585 C.ar    1  UNL1        0.2928
     15 N           4.9834    1.7244    7.9954 N.pl3   1  UNL1       -0.2688
     16 C           4.1294    1.1885    8.9768 C.ar    1  UNL1        0.0385
     17 C           4.4307   -0.0246    9.5921 C.ar    1  UNL1       -0.0388
     18 C           3.5330   -0.6044   10.4814 C.ar    1  UNL1       -0.0381
     19 C           2.3183    0.0157   10.7990 C.ar    1  UNL1        0.0826
     20 CL          1.3463   -0.9537   11.8614 Cl      1  UNL1       -0.0798
     21 C           2.0070    1.2864   10.2624 C.ar    1  UNL1        0.1405
     22 O           0.8891    2.0887   10.4943 O.3     1  UNL1       -0.4902
     23 C          -0.1219    1.5251   11.3313 C.3     1  UNL1        0.0928
     24 C          -1.4550    2.2967   11.4513 C.3     1  UNL1        0.0028
     25 C          -1.7473    3.2870   10.3277 C.3     1  UNL1       -0.0065
     26 C          -1.1622    4.6735   10.5467 C.3     1  UNL1       -0.0333
     27 N          -1.5179    5.1800   11.9059 N.4     1  UNL1        0.2270
     28 C          -1.0602    4.2864   13.0078 C.3     1  UNL1       -0.0333
     29 C          -1.7057    2.9252   12.8343 C.3     1  UNL1       -0.0065
     30 C           2.9410    1.8566    9.3563 C.ar    1  UNL1        0.0028
     31 N           6.2167    1.5877    5.9436 N.ar    1  UNL1       -0.1951
     32 C           6.2378    0.6211    4.9593 C.ar    1  UNL1        0.1147
     33 C           6.9145    0.5508    3.7252 C.ar    1  UNL1        0.0098
     34 C           7.3446   -0.8897   -0.6659 C.ar    1  UNL1       -0.0012
     35 C           6.6262   -1.0148   -1.8498 C.ar    1  UNL1        0.0319
     36 N           5.2762   -1.0178   -1.9154 N.ar    1  UNL1       -0.2501
     37 H           0.6686    0.8212    0.7203 H       1  UNL1        0.0426
     38 H           0.6026   -0.9359    0.3976 H       1  UNL1        0.0426
     39 H           0.6292    0.2176   -0.9631 H       1  UNL1        0.0426
     40 H           2.9502    0.6916    0.5337 H       1  UNL1        0.1487
     41 H           4.6394   -0.6730    1.3723 H       1  UNL1        0.0677
     42 H           5.7936   -2.5308    2.7328 H       1  UNL1        0.0655
     43 H           4.5414   -2.3666    4.8927 H       1  UNL1        0.0656
     44 H           5.3825    2.6330    8.1939 H       1  UNL1        0.1565
     45 H           5.3654   -0.5397    9.3816 H       1  UNL1        0.0637
     46 H           3.7810   -1.5683   10.9228 H       1  UNL1        0.0634
     47 H           0.2910    1.3843   12.3350 H       1  UNL1        0.0699
     48 H          -0.4192    0.5722   10.8801 H       1  UNL1        0.0699
     49 H          -2.2162    1.5044   11.3845 H       1  UNL1        0.0337
     50 H          -2.8388    3.3793   10.2507 H       1  UNL1        0.0321
     51 H          -1.4054    2.8869    9.3673 H       1  UNL1        0.0321
     52 H          -1.5814    5.3854    9.8292 H       1  UNL1        0.0814
     53 H          -0.0718    4.6864   10.4756 H       1  UNL1        0.0814
     54 H          -2.5345    5.3361   11.9739 H       1  UNL1        0.2013
     55 H          -1.0937    6.1094   12.0346 H       1  UNL1        0.2013
     56 H          -1.3703    4.7551   13.9475 H       1  UNL1        0.0814
     57 H           0.0314    4.2411   12.9654 H       1  UNL1        0.0814
     58 H          -2.7927    3.0412   12.9528 H       1  UNL1        0.0321
     59 H          -1.3869    2.2524   13.6389 H       1  UNL1        0.0321
     60 H           2.7205    2.8180    8.8951 H       1  UNL1        0.0673
     61 H           7.5663    1.3581    3.4105 H       1  UNL1        0.0677
     62 H           8.4304   -0.8914   -0.6931 H       1  UNL1        0.0669
     63 H           7.1316   -1.1185   -2.8087 H       1  UNL1        0.0831
@<TRIPOS>UNITY_ATOM_ATTR
27 1
charge 1
@<TRIPOS>BOND
     1     1     2    1
     2     2     3   am
     3     3     4    2
     4     3     5    1
     5     5     6   ar
     6     6     7   ar
     7     7     8    1
     8     8     9    1
     9     9    10   ar
    10    10    11   ar
    11    11    12   ar
    12    12    13   ar
    13    13    14   ar
    14    14    15    1
    15    15    16    1
    16    16    17   ar
    17    17    18   ar
    18    18    19   ar
    19    19    20    1
    20    19    21   ar
    21    21    22    1
    22    22    23    1
    23    23    24    1
    24    24    25    1
    25    25    26    1
    26    26    27    1
    27    27    28    1
    28    28    29    1
    29    24    29    1
    30    21    30   ar
    31    16    30   ar
    32    14    31   ar
    33    31    32   ar
    34    12    32   ar
    35    32    33   ar
    36     9    33   ar
    37     7    34   ar
    38    34    35   ar
    39    35    36   ar
    40     5    36   ar
    41     1    37    1
    42     1    38    1
    43     1    39    1
    44     2    40    1
    45     6    41    1
    46    10    42    1
    47    11    43    1
    48    15    44    1
    49    17    45    1
    50    18    46    1
    51    23    47    1
    52    23    48    1
    53    24    49    1
    54    25    50    1
    55    25    51    1
    56    26    52    1
    57    26    53    1
    58    27    54    1
    59    27    55    1
    60    28    56    1
    61    28    57    1
    62    29    58    1
    63    29    59    1
    64    30    60    1
    65    33    61    1
    66    34    62    1
    67    35    63    1
