@<TRIPOS>MOLECULE
*****
 57 61 0 0 0
SMALL
GASTEIGER

@<TRIPOS>ATOM
      1 C           0.9042   -0.0694    0.0557 C.3     1  UNL1        0.0790
      2 O           2.3227   -0.0596    0.0931 O.3     1  UNL1       -0.4915
      3 C           2.9265    1.1663   -0.0230 C.ar    1  UNL1        0.1613
      4 C           4.3208    1.0927   -0.0778 C.ar    1  UNL1       -0.0160
      5 C           5.0888    2.2486   -0.2163 C.ar    1  UNL1       -0.0540
      6 C           4.4812    3.5188   -0.2917 C.ar    1  UNL1       -0.0315
      7 C           5.3732    4.7345   -0.0125 C.3     1  UNL1        0.0475
      8 C           4.9257    5.3577    1.3147 C.2     1  UNL1        0.0240
      9 C           4.7986    6.6960    1.4346 C.2     1  UNL1        0.0166
     10 C           4.2750    7.3338    2.7014 C.3     1  UNL1       -0.0137
     11 C           3.4081    6.3748    3.5134 C.3     1  UNL1       -0.0409
     12 C           4.1753    5.1008    3.7753 C.3     1  UNL1        0.0106
     13 C           4.5510    4.4624    2.4760 C.2     1  UNL1        0.1616
     14 O           4.5813    3.2363    2.4329 O.2     1  UNL1       -0.2923
     15 N           5.1177    7.5322    0.3719 N.pl3   1  UNL1       -0.3035
     16 C           5.5507    7.1043   -0.8756 C.ar    1  UNL1        0.1120
     17 N           5.9905    7.9754   -1.8517 N.ar    1  UNL1       -0.3153
     18 C           6.4216    7.5603   -3.0816 C.ar    1  UNL1        0.2002
     19 N           6.7143    8.5887   -3.9702 N.pl3   1  UNL1       -0.3010
     20 C           6.1626    8.6099   -5.3329 C.3     1  UNL1        0.0148
     21 C           7.2337    8.4048   -6.4053 C.3     1  UNL1       -0.0371
     22 C           8.3882    9.3901   -6.2504 C.3     1  UNL1       -0.0502
     23 C           8.9243    9.3523   -4.8212 C.3     1  UNL1       -0.0371
     24 C           7.8116    9.5456   -3.7787 C.3     1  UNL1        0.0148
     25 N           6.4682    6.3014   -3.3953 N.ar    1  UNL1       -0.1768
     26 C           6.1637    5.3483   -2.4373 C.ar    1  UNL1        0.2804
     27 O           6.3678    4.1478   -2.6345 O.2     1  UNL1       -0.2654
     28 C           5.5998    5.7734   -1.1193 C.ar    1  UNL1        0.0688
     29 C           3.0751    3.5936   -0.2177 C.ar    1  UNL1       -0.0124
     30 C           2.3112    2.4275   -0.0645 C.ar    1  UNL1        0.1587
     31 O           0.9574    2.5547    0.1157 O.3     1  UNL1       -0.5033
     32 H           0.5673   -1.1084    0.0420 H       1  UNL1        0.0660
     33 H           0.5250    0.4031   -0.8577 H       1  UNL1        0.0660
     34 H           0.4964    0.3897    0.9620 H       1  UNL1        0.0660
     35 H           4.8219    0.1358    0.0497 H       1  UNL1        0.0655
     36 H           6.1708    2.1628   -0.1199 H       1  UNL1        0.0622
     37 H           6.3880    4.3509    0.1734 H       1  UNL1        0.0450
     38 H           3.6801    8.2219    2.4655 H       1  UNL1        0.0326
     39 H           5.1302    7.6552    3.3078 H       1  UNL1        0.0326
     40 H           2.4847    6.1486    2.9613 H       1  UNL1        0.0273
     41 H           3.1170    6.8283    4.4652 H       1  UNL1        0.0273
     42 H           3.5539    4.3970    4.3415 H       1  UNL1        0.0345
     43 H           5.1045    5.2713    4.3267 H       1  UNL1        0.0345
     44 H           5.0584    8.5321    0.5270 H       1  UNL1        0.1532
     45 H           5.8763    8.9638   -1.6969 H       1  UNL1        0.1698
     46 H           5.7083    9.5982   -5.4862 H       1  UNL1        0.0464
     47 H           5.3588    7.8770   -5.4530 H       1  UNL1        0.0464
     48 H           6.7885    8.5306   -7.4004 H       1  UNL1        0.0280
     49 H           7.6235    7.3822   -6.3529 H       1  UNL1        0.0280
     50 H           8.0534   10.4056   -6.4992 H       1  UNL1        0.0266
     51 H           9.1877    9.1448   -6.9617 H       1  UNL1        0.0266
     52 H           9.6833   10.1359   -4.7052 H       1  UNL1        0.0280
     53 H           9.4265    8.3915   -4.6576 H       1  UNL1        0.0280
     54 H           7.4042   10.5587   -3.8892 H       1  UNL1        0.0464
     55 H           8.2370    9.4761   -2.7729 H       1  UNL1        0.0464
     56 H           2.5930    4.5625   -0.1211 H       1  UNL1        0.0658
     57 H           0.7019    3.4879    0.1047 H       1  UNL1        0.2923
@<TRIPOS>BOND
     1     1     2    1
     2     2     3    1
     3     3     4   ar
     4     4     5   ar
     5     5     6   ar
     6     6     7    1
     7     7     8    1
     8     8     9    2
     9     9    10    1
    10    10    11    1
    11    11    12    1
    12    12    13    1
    13     8    13    1
    14    13    14    2
    15     9    15    1
    16    15    16    1
    17    16    17   ar
    18    17    18   ar
    19    18    19    1
    20    19    20    1
    21    20    21    1
    22    21    22    1
    23    22    23    1
    24    23    24    1
    25    19    24    1
    26    18    25   ar
    27    25    26   ar
    28    26    27    2
    29    26    28   ar
    30    16    28   ar
    31     7    28    1
    32     6    29   ar
    33    29    30   ar
    34     3    30   ar
    35    30    31    1
    36     1    32    1
    37     1    33    1
    38     1    34    1
    39     4    35    1
    40     5    36    1
    41     7    37    1
    42    10    38    1
    43    10    39    1
    44    11    40    1
    45    11    41    1
    46    12    42    1
    47    12    43    1
    48    15    44    1
    49    17    45    1
    50    20    46    1
    51    20    47    1
    52    21    48    1
    53    21    49    1
    54    22    50    1
    55    22    51    1
    56    23    52    1
    57    23    53    1
    58    24    54    1
    59    24    55    1
    60    29    56    1
    61    31    57    1
