@<TRIPOS>MOLECULE
*****
 59 62 0 0 0
SMALL
GASTEIGER

@<TRIPOS>ATOM
      1 C           1.2764    0.0408    0.0675 C.3     1  UNL1       -0.0377
      2 C           2.7912   -0.0410    0.0462 C.ar    1  UNL1       -0.0168
      3 C           3.5408   -1.2470    0.0505 C.ar    1  UNL1        0.0807
      4 C           3.2091   -2.6987    0.0816 C.2     1  UNL1        0.2643
      5 O           2.0700   -3.1637    0.0730 O.2     1  UNL1       -0.2683
      6 N           4.3380   -3.5606    0.1271 N.am    1  UNL1       -0.2491
      7 N           4.2487   -4.9666    0.0192 N.3     1  UNL1       -0.2541
      8 S           5.2197   -0.9105   -0.0184 S.2     1  UNL1       -0.0653
      9 C           5.0076    0.7354   -0.0427 C.ar    1  UNL1        0.0979
     10 C           3.7028    1.1541    0.0111 C.ar    1  UNL1        0.0741
     11 C           3.4966    2.6343    0.0188 C.ar    1  UNL1        0.2651
     12 O           2.3750    3.1349    0.0446 O.2     1  UNL1       -0.2668
     13 N           4.6969    3.3964    0.0523 N.ar    1  UNL1       -0.2601
     14 C           4.6608    4.8932    0.0582 C.3     1  UNL1        0.0333
     15 C           6.0447    5.6365   -0.0377 C.3     1  UNL1       -0.0284
     16 C           6.8094    5.2668   -1.3097 C.3     1  UNL1       -0.0610
     17 C           5.9594    7.1617    0.0332 C.3     1  UNL1       -0.0610
     18 C           5.8561    2.7891    0.5182 C.ar    1  UNL1        0.3332
     19 O           6.6101    3.3006    1.3630 O.2     1  UNL1       -0.2462
     20 N           6.1399    1.5360   -0.0014 N.ar    1  UNL1       -0.2784
     21 C           7.5261    1.0074    0.0923 C.3     1  UNL1        0.1051
     22 C           8.6538    2.0458   -0.0528 C.2     1  UNL1        0.2372
     23 O           8.4762    3.1261   -0.6096 O.2     1  UNL1       -0.2735
     24 N           9.9263    1.6745    0.3355 N.am    1  UNL1       -0.2835
     25 C          10.9314    2.6941    0.2844 C.ar    1  UNL1        0.0412
     26 C          12.0063    2.4473   -0.6098 C.ar    1  UNL1       -0.0399
     27 C          13.0013    3.4000   -0.7817 C.ar    1  UNL1       -0.0594
     28 C          12.9799    4.5405    0.0080 C.ar    1  UNL1       -0.0539
     29 C          11.9619    4.7660    0.9511 C.ar    1  UNL1       -0.0161
     30 C          12.1111    5.8331    1.8369 C.ar    1  UNL1       -0.0540
     31 C          11.2312    6.0235    2.8737 C.ar    1  UNL1       -0.0612
     32 C           9.9526    5.8244    2.4785 C.ar    1  UNL1       -0.0611
     33 C           9.7619    4.5614    1.8912 C.ar    1  UNL1       -0.0523
     34 C          10.8245    3.9463    1.0600 C.ar    1  UNL1        0.0033
     35 H           0.8000   -0.9471    0.0684 H       1  UNL1        0.0278
     36 H           0.9004    0.5707   -0.8157 H       1  UNL1        0.0278
     37 H           0.9107    0.5706    0.9550 H       1  UNL1        0.0278
     38 H           5.2632   -3.1406    0.0417 H       1  UNL1        0.1690
     39 H           3.2550   -5.2201    0.0389 H       1  UNL1        0.1405
     40 H           4.6544   -5.3897    0.8591 H       1  UNL1        0.1405
     41 H           4.1367    5.2081    0.9676 H       1  UNL1        0.0497
     42 H           4.0396    5.2155   -0.7889 H       1  UNL1        0.0497
     43 H           6.6529    5.3872    0.8369 H       1  UNL1        0.0313
     44 H           6.3409    5.6883   -2.1998 H       1  UNL1        0.0233
     45 H           6.8326    4.1922   -1.4751 H       1  UNL1        0.0233
     46 H           7.8448    5.6294   -1.2590 H       1  UNL1        0.0233
     47 H           5.4451    7.5790   -0.8356 H       1  UNL1        0.0233
     48 H           6.9746    7.5857    0.0551 H       1  UNL1        0.0233
     49 H           5.4574    7.4891    0.9471 H       1  UNL1        0.0233
     50 H           7.6550    0.3346   -0.7679 H       1  UNL1        0.0589
     51 H           7.6305    0.4364    1.0197 H       1  UNL1        0.0589
     52 H          10.2088    0.7603   -0.0080 H       1  UNL1        0.1549
     53 H          12.0391    1.5641   -1.2478 H       1  UNL1        0.0636
     54 H          13.8039    3.2581   -1.5035 H       1  UNL1        0.0618
     55 H          13.7920    5.2590   -0.0911 H       1  UNL1        0.0624
     56 H          12.8586    6.5989    1.7019 H       1  UNL1        0.0624
     57 H          11.4251    5.3301    3.7304 H       1  UNL1        0.0618
     58 H           9.2947    6.5961    2.8788 H       1  UNL1        0.0618
     59 H           8.8173    4.0464    2.0495 H       1  UNL1        0.0624
@<TRIPOS>BOND
     1     1     2    1
     2     2     3   ar
     3     3     4    1
     4     4     5    2
     5     4     6   am
     6     6     7    1
     7     3     8   ar
     8     8     9   ar
     9     9    10   ar
    10     2    10   ar
    11    10    11   ar
    12    11    12    2
    13    11    13   ar
    14    13    14    1
    15    14    15    1
    16    15    16    1
    17    15    17    1
    18    13    18   ar
    19    18    19    2
    20    18    20   ar
    21     9    20   ar
    22    20    21    1
    23    21    22    1
    24    22    23    2
    25    22    24   am
    26    24    25    1
    27    25    26   ar
    28    26    27   ar
    29    27    28   ar
    30    28    29   ar
    31    29    30   ar
    32    30    31   ar
    33    31    32   ar
    34    32    33   ar
    35    33    34   ar
    36    25    34   ar
    37    29    34   ar
    38     1    35    1
    39     1    36    1
    40     1    37    1
    41     6    38    1
    42     7    39    1
    43     7    40    1
    44    14    41    1
    45    14    42    1
    46    15    43    1
    47    16    44    1
    48    16    45    1
    49    16    46    1
    50    17    47    1
    51    17    48    1
    52    17    49    1
    53    21    50    1
    54    21    51    1
    55    24    52    1
    56    26    53    1
    57    27    54    1
    58    28    55    1
    59    30    56    1
    60    31    57    1
    61    32    58    1
    62    33    59    1
