@<TRIPOS>MOLECULE
*****
 71 73 0 0 0
SMALL
GASTEIGER

@<TRIPOS>ATOM
      1 C          16.1557   13.7369    0.9144 C.2     1  UNL1       -0.1023
      2 C          15.7449   12.4716    1.0622 C.2     1  UNL1       -0.0867
      3 C          16.4888   11.3767    0.3916 C.3     1  UNL1       -0.0061
      4 C          15.9282    9.9780    0.4053 C.ar    1  UNL1        0.0023
      5 C          15.1916    9.5713    1.5396 C.ar    1  UNL1       -0.0459
      6 C          14.7521    8.2625    1.6723 C.ar    1  UNL1       -0.0015
      7 C          14.2296    7.8107    2.9868 C.2     1  UNL1        0.0529
      8 N          13.9286    6.6137    3.4061 N.2     1  UNL1       -0.1877
      9 N          14.1381    5.5443    2.5962 N.am    1  UNL1       -0.2070
     10 C          13.7450    4.2743    2.9352 C.2     1  UNL1        0.2323
     11 O          13.2760    3.9382    4.0261 O.2     1  UNL1       -0.2741
     12 C          13.9461    3.3097    1.7806 C.3     1  UNL1        0.0282
     13 C          13.6287    1.8925    2.2399 C.3     1  UNL1       -0.0144
     14 C          14.0552    0.8234    1.2411 C.3     1  UNL1        0.0806
     15 O          13.1157   -0.2530    1.3484 O.3     1  UNL1       -0.3872
     16 C          15.4754    0.3303    1.4656 C.ar    1  UNL1       -0.0189
     17 C          16.5587    1.2135    1.6083 C.ar    1  UNL1       -0.0527
     18 C          17.8727    0.7570    1.6714 C.ar    1  UNL1       -0.0196
     19 C          18.1303   -0.6046    1.7104 C.ar    1  UNL1        0.1205
     20 O          19.4434   -0.9429    1.8788 O.3     1  UNL1       -0.4922
     21 C          19.6914   -2.3344    2.0618 C.3     1  UNL1        0.0868
     22 C          21.1656   -2.5294    2.3408 C.3     1  UNL1       -0.0307
     23 C          17.0679   -1.4998    1.6012 C.ar    1  UNL1       -0.0196
     24 C          15.7591   -1.0383    1.4656 C.ar    1  UNL1       -0.0527
     25 C          14.9064    7.4147    0.5915 C.ar    1  UNL1       -0.0076
     26 C          15.7617    7.7089   -0.4532 C.ar    1  UNL1        0.1624
     27 O          16.0180    6.5905   -1.2082 O.3     1  UNL1       -0.4914
     28 C          16.8503    6.7468   -2.3420 C.3     1  UNL1        0.0790
     29 C          16.2499    9.0132   -0.5859 C.ar    1  UNL1        0.1658
     30 O          16.9905    9.2028   -1.7123 O.3     1  UNL1       -0.4834
     31 C          17.3546   10.4924   -2.1250 C.3     1  UNL1        0.1148
     32 C          18.1092   10.5061   -3.4027 C.ar    1  UNL1       -0.0104
     33 C          17.9529    9.5102   -4.3592 C.ar    1  UNL1       -0.0554
     34 C          18.7700    9.5025   -5.4717 C.ar    1  UNL1       -0.0614
     35 C          19.6380   10.5699   -5.6917 C.ar    1  UNL1       -0.0617
     36 C          19.7277   11.6207   -4.7791 C.ar    1  UNL1       -0.0614
     37 C          18.9665   11.5868   -3.6270 C.ar    1  UNL1       -0.0554
     38 H          15.5760   14.5475    1.3321 H       1  UNL1        0.0532
     39 H          17.0503   13.9766    0.3419 H       1  UNL1        0.0532
     40 H          14.7998   12.2715    1.5479 H       1  UNL1        0.0570
     41 H          17.5347   11.3280    0.7206 H       1  UNL1        0.0357
     42 H          16.4456   11.7624   -0.6159 H       1  UNL1        0.0357
     43 H          14.9549   10.2850    2.3254 H       1  UNL1        0.0628
     44 H          14.1113    8.6108    3.7419 H       1  UNL1        0.0851
     45 H          14.8809    5.5922    1.9148 H       1  UNL1        0.1772
     46 H          14.9636    3.4240    1.4048 H       1  UNL1        0.0360
     47 H          13.2992    3.5819    0.9369 H       1  UNL1        0.0360
     48 H          12.5467    1.8344    2.4177 H       1  UNL1        0.0298
     49 H          14.0979    1.6907    3.2121 H       1  UNL1        0.0298
     50 H          13.9748    1.1915    0.2119 H       1  UNL1        0.0643
     51 H          13.2016   -0.6162    2.2470 H       1  UNL1        0.2102
     52 H          16.4353    2.2829    1.6875 H       1  UNL1        0.0622
     53 H          18.6869    1.4770    1.6987 H       1  UNL1        0.0654
     54 H          19.4270   -2.8753    1.1465 H       1  UNL1        0.0694
     55 H          19.1155   -2.7224    2.9116 H       1  UNL1        0.0694
     56 H          21.7676   -2.1074    1.5305 H       1  UNL1        0.0262
     57 H          21.3953   -3.5936    2.4409 H       1  UNL1        0.0262
     58 H          21.4555   -2.0154    3.2628 H       1  UNL1        0.0262
     59 H          17.2174   -2.5726    1.6015 H       1  UNL1        0.0654
     60 H          14.9636   -1.7727    1.3628 H       1  UNL1        0.0622
     61 H          14.3565    6.4919    0.4954 H       1  UNL1        0.0662
     62 H          16.9885    5.7824   -2.8332 H       1  UNL1        0.0660
     63 H          17.8475    7.1114   -2.0671 H       1  UNL1        0.0660
     64 H          16.3293    7.3884   -3.0520 H       1  UNL1        0.0660
     65 H          18.0599   10.8749   -1.3815 H       1  UNL1        0.0748
     66 H          16.4638   11.0986   -2.3141 H       1  UNL1        0.0748
     67 H          17.2075    8.7369   -4.2357 H       1  UNL1        0.0621
     68 H          18.7261    8.6617   -6.1556 H       1  UNL1        0.0618
     69 H          20.2411   10.5866   -6.5911 H       1  UNL1        0.0618
     70 H          20.4017   12.4530   -4.9490 H       1  UNL1        0.0618
     71 H          19.0379   12.3905   -2.8953 H       1  UNL1        0.0621
@<TRIPOS>BOND
     1     1     2    2
     2     2     3    1
     3     3     4    1
     4     4     5   ar
     5     5     6   ar
     6     6     7    1
     7     7     8    2
     8     8     9    1
     9     9    10   am
    10    10    11    2
    11    10    12    1
    12    12    13    1
    13    14    16    1
    14    16    17   ar
    15    17    18   ar
    16    18    19   ar
    17    19    20    1
    18    20    21    1
    19    21    22    1
    20    19    23   ar
    21    23    24   ar
    22    16    24   ar
    23     6    25   ar
    24    25    26   ar
    25    26    27    1
    26    27    28    1
    27    26    29   ar
    28     4    29   ar
    29    29    30    1
    30    30    31    1
    31    31    32    1
    32    32    33   ar
    33    33    34   ar
    34    34    35   ar
    35    35    36   ar
    36    36    37   ar
    37    32    37   ar
    38    14    15    1
    39    14    13    1
    40     1    38    1
    41     1    39    1
    42     2    40    1
    43     3    41    1
    44     3    42    1
    45     5    43    1
    46     7    44    1
    47     9    45    1
    48    12    46    1
    49    12    47    1
    50    13    48    1
    51    13    49    1
    52    14    50    1
    53    15    51    1
    54    17    52    1
    55    18    53    1
    56    21    54    1
    57    21    55    1
    58    22    56    1
    59    22    57    1
    60    22    58    1
    61    23    59    1
    62    24    60    1
    63    25    61    1
    64    28    62    1
    65    28    63    1
    66    28    64    1
    67    31    65    1
    68    31    66    1
    69    33    67    1
    70    34    68    1
    71    35    69    1
    72    36    70    1
    73    37    71    1
