@<TRIPOS>MOLECULE
*****
 36 37 0 0 0
SMALL
GASTEIGER

@<TRIPOS>ATOM
      1 C           0.9832    0.2255    0.0206 C.3     1  UNL1       -0.0190
      2 C           2.5104    0.0804   -0.0645 C.3     1  UNL1        0.1741
      3 O           2.9711   -0.9934   -0.9194 O.3     1  UNL1       -0.4798
      4 C           2.5914   -2.2912   -0.6596 C.ar    1  UNL1        0.1217
      5 C           1.2774   -2.7038   -0.4332 C.ar    1  UNL1       -0.0187
      6 C           0.9286   -4.0374   -0.2170 C.ar    1  UNL1       -0.0409
      7 C           1.8838   -5.0285   -0.3643 C.ar    1  UNL1        0.0520
      8 C           1.4695   -6.4028   -0.3089 C.1     1  UNL1        0.0992
      9 N           1.0883   -7.4934   -0.2899 N.1     1  UNL1       -0.1909
     10 C           3.2010   -4.6588   -0.6513 C.ar    1  UNL1       -0.0409
     11 C           3.5539   -3.2980   -0.7906 C.ar    1  UNL1       -0.0187
     12 C           3.0467    1.4771   -0.5610 C.2     1  UNL1        0.2695
     13 O           2.2881    2.4198   -0.8157 O.2     1  UNL1       -0.2702
     14 N           4.4290    1.6253   -0.6709 N.am    1  UNL1       -0.2334
     15 N           4.9227    2.9172   -0.9470 N.pl3   1  UNL1       -0.2616
     16 C           6.2980    3.1724   -1.0836 C.ar    1  UNL1        0.0826
     17 C           7.1870    2.2411   -1.6404 C.ar    1  UNL1       -0.0337
     18 C           8.5578    2.5263   -1.7638 C.ar    1  UNL1       -0.0216
     19 C           9.0589    3.7436   -1.3157 C.ar    1  UNL1        0.1614
     20 F          10.3640    4.0149   -1.4611 F       1  UNL1       -0.2024
     21 C           8.2119    4.6682   -0.7287 C.ar    1  UNL1        0.1952
     22 F           8.7058    5.8298   -0.2735 F       1  UNL1       -0.1994
     23 C           6.8496    4.3846   -0.6119 C.ar    1  UNL1        0.1834
     24 F           6.0556    5.2877   -0.0130 F       1  UNL1       -0.2004
     25 H           0.5251   -0.5897    0.5772 H       1  UNL1        0.0270
     26 H           0.5458    0.2742   -0.9853 H       1  UNL1        0.0270
     27 H           0.6686    1.1020    0.5910 H       1  UNL1        0.0270
     28 H           2.9056   -0.0851    0.9463 H       1  UNL1        0.0829
     29 H           0.4282   -2.0448   -0.5007 H       1  UNL1        0.0654
     30 H          -0.1113   -4.2758    0.0014 H       1  UNL1        0.0631
     31 H           3.9569   -5.4293   -0.7909 H       1  UNL1        0.0631
     32 H           4.5832   -3.0484   -1.0384 H       1  UNL1        0.0654
     33 H           5.0782    0.9344   -0.3148 H       1  UNL1        0.1728
     34 H           4.2436    3.6654   -1.1198 H       1  UNL1        0.1701
     35 H           6.8114    1.3047   -2.0440 H       1  UNL1        0.0638
     36 H           9.2361    1.8100   -2.2196 H       1  UNL1        0.0648
@<TRIPOS>BOND
     1     1     2    1
     2     2     3    1
     3     3     4    1
     4     4     5   ar
     5     5     6   ar
     6     6     7   ar
     7     7     8    1
     8     8     9    3
     9     7    10   ar
    10    10    11   ar
    11     4    11   ar
    12     2    12    1
    13    12    13    2
    14    12    14   am
    15    14    15    1
    16    15    16    1
    17    16    17   ar
    18    17    18   ar
    19    18    19   ar
    20    19    20    1
    21    19    21   ar
    22    21    22    1
    23    21    23   ar
    24    16    23   ar
    25    23    24    1
    26     1    25    1
    27     1    26    1
    28     1    27    1
    29     2    28    1
    30     5    29    1
    31     6    30    1
    32    10    31    1
    33    11    32    1
    34    14    33    1
    35    15    34    1
    36    17    35    1
    37    18    36    1
