REMARK  4 active torsions:
REMARK  status: ('A' for Active; 'I' for Inactive)
REMARK       I    between atoms: C_2  and  N_3 
REMARK    1  A    between atoms: C_2  and  C_18 
REMARK    2  A    between atoms: N_3  and  C_4 
REMARK    3  A    between atoms: C_9  and  N_10 
REMARK       I    between atoms: N_10  and  C_11 
REMARK       I    between atoms: C_11  and  N_13 
REMARK    4  A    between atoms: C_22  and  N_23 
ROOT
ATOM      1  O   UNL d   1       1.094   0.058  -0.898  0.00  0.00    -0.266 OA
ATOM      2  C   UNL d   1       2.266   0.127  -0.578  0.00  0.00     0.272 C 
ATOM      3  N   UNL d   1       2.817   1.252   0.096  0.00  0.00    -0.320 N 
ATOM      4  H   UNL d   1       3.798   1.222   0.320  0.00  0.00     0.169 HD
ENDROOT
BRANCH   3   5
ATOM      5  C   UNL d   1       2.168   2.262   0.874  0.00  0.00     0.062 A 
ATOM      6  C   UNL d   1       2.728   3.562   0.770  0.00  0.00     0.032 A 
ATOM      7  C   UNL d   1       2.215   4.656   1.479  0.00  0.00     0.002 A 
ATOM      8  C   UNL d   1       1.119   4.471   2.309  0.00  0.00     0.002 A 
ATOM      9  C   UNL d   1       0.583   3.180   2.474  0.00  0.00     0.032 A 
ATOM     10  C   UNL d   1       1.109   2.055   1.785  0.00  0.00     0.063 A 
BRANCH  10  11
ATOM     11  N   UNL d   1       0.543   0.774   2.070  0.00  0.00    -0.307 N 
ATOM     12  C   UNL d   1       1.249  -0.408   2.017  0.00  0.00     0.322 C 
ATOM     13  O   UNL d   1       2.473  -0.465   2.141  0.00  0.00    -0.247 OA
ATOM     14  N   UNL d   1       0.525  -1.562   1.812  0.00  0.00    -0.334 N 
ATOM     15  C   UNL d   1      -0.906  -1.777   1.697  0.00  0.00     0.127 C 
ATOM     16  C   UNL d   1       1.206  -2.847   1.852  0.00  0.00     0.127 C 
ATOM     17  C   UNL d   1      -1.077  -2.981   2.613  0.00  0.00     0.022 C 
ATOM     18  C   UNL d   1       0.131  -3.852   2.259  0.00  0.00     0.022 C 
ATOM     19  H   UNL d   1      -0.272   0.757   2.663  0.00  0.00     0.170 HD
ENDBRANCH  10  11
ENDBRANCH   3   5
BRANCH   2  20
ATOM     20  C   UNL d   1       3.267  -0.955  -0.875  0.00  0.00     0.102 C 
ATOM     21  C   UNL d   1       4.550  -0.975  -0.386  0.00  0.00     0.049 C 
ATOM     22  C   UNL d   1       5.144  -2.213  -0.624  0.00  0.00    -0.005 C 
ATOM     23  C   UNL d   1       6.331  -2.736  -0.121  0.00  0.00     0.050 C 
ATOM     24  C   UNL d   1       4.430  -2.843  -1.629  0.00  0.00     0.043 C 
ATOM     25  C   UNL d   1       6.992  -3.744  -0.801  0.00  0.00     0.103 C 
ATOM     26  C   UNL d   1       6.410  -4.295  -1.947  0.00  0.00     0.038 C 
ATOM     27  C   UNL d   1       5.095  -3.879  -2.371  0.00  0.00     0.033 C 
ATOM     28  N   UNL d   1       3.153  -2.217  -1.530  0.00  0.00    -0.351 N 
ATOM     29  H   UNL d   1       2.262  -2.691  -1.654  0.00  0.00     0.166 HD
BRANCH  25  30
ATOM     30  N   UNL d   1       8.343  -4.079  -0.320  0.00  0.00    -0.116 N 
ATOM     31  O   UNL d   1       8.755  -3.484   0.690  0.00  0.00    -0.532 OA
ATOM     32  O   UNL d   1       9.004  -4.913  -0.952  0.00  0.00    -0.532 OA
ENDBRANCH  25  30
ENDBRANCH   2  20
TORSDOF 4
