REMARK  8 active torsions:
REMARK  status: ('A' for Active; 'I' for Inactive)
REMARK    1  A    between atoms: C_2  and  C_3 
REMARK    2  A    between atoms: C_3  and  N_4 
REMARK    3  A    between atoms: N_4  and  C_5 
REMARK    4  A    between atoms: C_5  and  N_7 
REMARK    5  A    between atoms: N_7  and  N_8 
REMARK       I    between atoms: N_8  and  C_9 
REMARK    6  A    between atoms: C_9  and  C_11 
REMARK    7  A    between atoms: C_11  and  O_12 
REMARK    8  A    between atoms: O_12  and  C_13 
ROOT
ATOM      1  N   UNL d   1       7.896  -2.011  -2.013  0.00  0.00    -0.266 N 
ATOM      2  C   UNL d   1       9.248  -1.780  -1.766  0.00  0.00     0.260 C 
ATOM      3  O   UNL d   1       9.605  -0.948  -0.925  0.00  0.00    -0.269 OA
ATOM      4  H   UNL d   1       7.550  -2.685  -2.694  0.00  0.00     0.190 HD
ENDROOT
BRANCH   1   5
ATOM      5  N   UNL d   1       6.875  -1.286  -1.280  0.00  0.00    -0.274 N 
ATOM      6  H   UNL d   1       7.226  -0.618  -0.596  0.00  0.00     0.189 HD
BRANCH   5   7
ATOM      7  C   UNL d   1       5.519  -1.524  -1.521  0.00  0.00     0.186 C 
ATOM      8  S   UNL d   1       5.015  -2.650  -2.668  0.00  0.00    -0.040 SA
BRANCH   7   9
ATOM      9  N   UNL d   1       4.637  -0.764  -0.747  0.00  0.00    -0.363 N 
ATOM     10  H   UNL d   1       5.006  -0.105  -0.075  0.00  0.00     0.162 HD
BRANCH   9  11
ATOM     11  C   UNL d   1       3.172  -0.876  -0.861  0.00  0.00     0.148 C 
BRANCH  11  12
ATOM     12  C   UNL d   1       2.408   0.031   0.063  0.00  0.00    -0.018 C 
ATOM     13  C   UNL d   1       1.062   0.050   0.082  0.00  0.00     0.008 C 
ENDBRANCH  11  12
ENDBRANCH   9  11
ENDBRANCH   7   9
ENDBRANCH   5   7
ENDBRANCH   1   5
BRANCH   2  14
ATOM     14  C   UNL d   1      10.259  -2.617  -2.618  0.00  0.00     0.280 C 
BRANCH  14  15
ATOM     15  O   UNL d   1      11.619  -2.349  -2.234  0.00  0.00    -0.342 OA
BRANCH  15  16
ATOM     16  C   UNL d   1      12.629  -2.943  -2.950  0.00  0.00     0.070 A 
ATOM     17  C   UNL d   1      12.637  -3.080  -4.339  0.00  0.00     0.037 A 
ATOM     18  C   UNL d   1      13.747  -3.637  -4.993  0.00  0.00     0.004 A 
ATOM     19  C   UNL d   1      14.856  -4.064  -4.265  0.00  0.00     0.024 A 
ATOM     20  C   UNL d   1      14.858  -3.915  -2.881  0.00  0.00     0.036 A 
ATOM     21 CL   UNL d   1      16.225  -4.454  -1.980  0.00  0.00    -0.084 Cl
ATOM     22  C   UNL d   1      13.762  -3.340  -2.226  0.00  0.00     0.060 A 
ENDBRANCH  15  16
ENDBRANCH  14  15
ENDBRANCH   2  14
TORSDOF 8
