@<TRIPOS>MOLECULE
*****
 35 36 0 0 0
SMALL
GASTEIGER

@<TRIPOS>ATOM
      1 C           1.1287    0.1306   -0.0146 C.3     1  UNL1        0.0125
      2 C           2.6304    0.0241    0.0181 C.2     1  UNL1        0.2141
      3 O           3.1678   -0.9209    0.5932 O.2     1  UNL1       -0.2758
      4 N           3.3093    1.0647   -0.6032 N.am    1  UNL1       -0.2855
      5 C           4.7275    1.1129   -0.6366 C.ar    1  UNL1        0.0370
      6 C           5.4408   -0.0692   -0.9057 C.ar    1  UNL1       -0.0281
      7 C           6.8360   -0.0930   -0.9281 C.ar    1  UNL1        0.0388
      8 C           7.6224   -1.3445   -1.1763 C.2     1  UNL1        0.2494
      9 O           8.8550   -1.2602   -1.1371 O.2     1  UNL1       -0.2698
     10 N           6.9394   -2.5124   -1.4816 N.am    1  UNL1       -0.2664
     11 C           7.5899   -3.7271   -1.7538 C.ar    1  UNL1        0.1251
     12 C           8.6815   -4.1284   -0.9933 C.ar    1  UNL1       -0.0215
     13 C           9.3247   -5.3234   -1.2989 C.ar    1  UNL1       -0.0571
     14 C           8.8757   -6.0758   -2.3729 C.ar    1  UNL1       -0.0435
     15 C           7.7623   -5.6196   -3.0616 C.ar    1  UNL1        0.0297
     16 N           7.0818   -4.4860   -2.7496 N.ar    1  UNL1       -0.2401
     17 C           7.5239    1.1039   -0.6775 C.ar    1  UNL1       -0.0493
     18 C           6.8274    2.2907   -0.4154 C.ar    1  UNL1       -0.0564
     19 C           5.4218    2.3137   -0.4024 C.ar    1  UNL1       -0.0292
     20 C           4.7181    3.5911   -0.0353 C.3     1  UNL1       -0.0380
     21 H           0.7120   -0.7337    0.5165 H       1  UNL1        0.0323
     22 H           0.7631    0.1042   -1.0434 H       1  UNL1        0.0323
     23 H           0.7883    1.0359    0.4931 H       1  UNL1        0.0323
     24 H           2.8016    1.9159   -0.8083 H       1  UNL1        0.1548
     25 H           4.8761   -0.9712   -1.1050 H       1  UNL1        0.0644
     26 H           5.9807   -2.4916   -1.7947 H       1  UNL1        0.1566
     27 H           9.0128   -3.5352   -0.1485 H       1  UNL1        0.0652
     28 H          10.1720   -5.6493   -0.7038 H       1  UNL1        0.0619
     29 H           9.3777   -6.9938   -2.6586 H       1  UNL1        0.0633
     30 H           7.3841   -6.1746   -3.9168 H       1  UNL1        0.0830
     31 H           8.6141    1.1208   -0.6731 H       1  UNL1        0.0625
     32 H           7.3989    3.1927   -0.1963 H       1  UNL1        0.0621
     33 H           5.4263    4.4028    0.1687 H       1  UNL1        0.0278
     34 H           4.1223    3.4467    0.8726 H       1  UNL1        0.0278
     35 H           4.0683    3.9161   -0.8525 H       1  UNL1        0.0278
@<TRIPOS>BOND
     1     1     2    1
     2     2     3    2
     3     2     4   am
     4     4     5    1
     5     5     6   ar
     6     6     7   ar
     7     7     8    1
     8     8     9    2
     9     8    10   am
    10    10    11    1
    11    11    12   ar
    12    12    13   ar
    13    13    14   ar
    14    14    15   ar
    15    15    16   ar
    16    11    16   ar
    17     7    17   ar
    18    17    18   ar
    19    18    19   ar
    20     5    19   ar
    21    19    20    1
    22     1    21    1
    23     1    22    1
    24     1    23    1
    25     4    24    1
    26     6    25    1
    27    10    26    1
    28    12    27    1
    29    13    28    1
    30    14    29    1
    31    15    30    1
    32    17    31    1
    33    18    32    1
    34    20    33    1
    35    20    34    1
    36    20    35    1
