@<TRIPOS>MOLECULE
*****
 53 54 0 0 0
SMALL
GASTEIGER

@<TRIPOS>ATOM
      1 C           4.0072   -9.6430   -4.1610 C.3     1  UNL1       -0.0466
      2 C           5.5094   -9.7533   -3.8773 C.3     1  UNL1        0.0221
      3 C           5.8152  -11.2398   -3.6693 C.3     1  UNL1       -0.0307
      4 C           7.2185  -11.5201   -3.1534 C.3     1  UNL1       -0.0260
      5 C           7.5007  -12.9748   -2.8751 C.ar    1  UNL1       -0.0473
      6 C           6.4837  -13.9172   -2.6611 C.ar    1  UNL1       -0.0586
      7 C           6.7806  -15.1730   -2.1436 C.ar    1  UNL1       -0.0615
      8 C           8.1055  -15.5355   -1.9283 C.ar    1  UNL1       -0.0617
      9 C           9.1313  -14.6311   -2.1977 C.ar    1  UNL1       -0.0615
     10 C           8.8308  -13.3526   -2.6596 C.ar    1  UNL1       -0.0586
     11 N           5.8803   -8.9156   -2.7355 N.am    1  UNL1       -0.2968
     12 C           5.7398   -7.5555   -2.7791 C.2     1  UNL1        0.2999
     13 O           5.3479   -6.9421   -3.7705 O.2     1  UNL1       -0.2529
     14 N           6.0394   -6.9340   -1.6018 N.am    1  UNL1       -0.2968
     15 C           5.9974   -5.4802   -1.5181 C.3     1  UNL1        0.0423
     16 C           6.6706   -4.9030   -0.2625 C.3     1  UNL1        0.1046
     17 O           6.4318   -3.4956   -0.1509 O.3     1  UNL1       -0.3869
     18 C           8.1840   -5.1722   -0.2585 C.3     1  UNL1        0.1169
     19 O           8.4025   -6.5794   -0.3952 O.3     1  UNL1       -0.4893
     20 C           9.6968   -7.0021   -0.3649 C.ar    1  UNL1        0.1210
     21 C          10.0202   -8.0675   -1.2123 C.ar    1  UNL1       -0.0135
     22 C          11.2753   -8.6763   -1.1294 C.ar    1  UNL1        0.0190
     23 C          12.2278   -8.1602   -0.2422 C.ar    1  UNL1        0.2734
     24 N          13.5933   -8.6983   -0.2399 N.pl3   1  UNL1        0.0796
     25 O          13.8495   -9.6239   -1.0226 O.2     1  UNL1        0.0414
     26 O          14.4155   -8.1765    0.5268 O.co2   1  UNL1       -0.5760
     27 C          11.9050   -7.0955    0.6083 C.ar    1  UNL1        0.0190
     28 C          10.6334   -6.5241    0.5482 C.ar    1  UNL1       -0.0135
     29 H           3.7044   -8.6155   -4.3696 H       1  UNL1        0.0247
     30 H           3.4278   -9.9836   -3.2941 H       1  UNL1        0.0247
     31 H           3.7239  -10.2544   -5.0235 H       1  UNL1        0.0247
     32 H           6.0748   -9.3928   -4.7452 H       1  UNL1        0.0496
     33 H           5.0760  -11.6425   -2.9661 H       1  UNL1        0.0286
     34 H           5.6699  -11.7782   -4.6179 H       1  UNL1        0.0286
     35 H           7.3596  -11.0142   -2.1910 H       1  UNL1        0.0314
     36 H           7.9586  -11.1118   -3.8513 H       1  UNL1        0.0314
     37 H           5.4398  -13.6912   -2.8589 H       1  UNL1        0.0620
     38 H           5.9722  -15.8530   -1.8890 H       1  UNL1        0.0618
     39 H           8.3366  -16.5254   -1.5486 H       1  UNL1        0.0618
     40 H          10.1651  -14.9086   -2.0162 H       1  UNL1        0.0618
     41 H           9.6350  -12.6390   -2.8255 H       1  UNL1        0.0620
     42 H           6.2239   -9.3362   -1.8847 H       1  UNL1        0.1505
     43 H           6.6136   -7.4273   -0.9285 H       1  UNL1        0.1503
     44 H           4.9421   -5.1856   -1.5476 H       1  UNL1        0.0489
     45 H           6.4599   -5.0481   -2.4151 H       1  UNL1        0.0489
     46 H           6.2215   -5.3734    0.6204 H       1  UNL1        0.0643
     47 H           6.8029   -3.0526   -0.9344 H       1  UNL1        0.2100
     48 H           8.5949   -4.7748    0.6758 H       1  UNL1        0.0723
     49 H           8.6590   -4.6395   -1.0925 H       1  UNL1        0.0723
     50 H           9.2984   -8.4220   -1.9462 H       1  UNL1        0.0656
     51 H          11.4930   -9.5407   -1.7535 H       1  UNL1        0.0686
     52 H          12.6201   -6.7085    1.3307 H       1  UNL1        0.0686
     53 H          10.3894   -5.7277    1.2429 H       1  UNL1        0.0656
@<TRIPOS>UNITY_ATOM_ATTR
24 1
charge 1
26 1
charge -1
@<TRIPOS>BOND
     1     3     4    1
     2     4     5    1
     3     5     6   ar
     4     6     7   ar
     5     7     8   ar
     6     8     9   ar
     7     9    10   ar
     8     5    10   ar
     9     2    11    1
    10    11    12   am
    11    12    13    2
    12    12    14   am
    13    14    15    1
    14    16    18    1
    15    18    19    1
    16    19    20    1
    17    20    21   ar
    18    21    22   ar
    19    22    23   ar
    20    23    24    1
    21    24    25    2
    22    24    26    1
    23    23    27   ar
    24    27    28   ar
    25    20    28   ar
    26    16    17    1
    27    16    15    1
    28     2     3    1
    29     2     1    1
    30     1    29    1
    31     1    30    1
    32     1    31    1
    33     2    32    1
    34     3    33    1
    35     3    34    1
    36     4    35    1
    37     4    36    1
    38     6    37    1
    39     7    38    1
    40     8    39    1
    41     9    40    1
    42    10    41    1
    43    11    42    1
    44    14    43    1
    45    15    44    1
    46    15    45    1
    47    16    46    1
    48    17    47    1
    49    18    48    1
    50    18    49    1
    51    21    50    1
    52    22    51    1
    53    27    52    1
    54    28    53    1
