@<TRIPOS>MOLECULE
*****
 31 32 0 0 0
SMALL
GASTEIGER

@<TRIPOS>ATOM
      1 O           0.9893    0.0711    0.1297 O.2     1  UNL1       -0.2683
      2 C           2.2180    0.0323    0.0198 C.2     1  UNL1        0.2668
      3 N           2.9081   -0.7530   -0.9065 N.am    1  UNL1       -0.2029
      4 N           2.2032   -1.5247   -1.8128 N.2     1  UNL1       -0.1875
      5 C           2.8805   -2.3132   -2.5877 C.2     1  UNL1        0.0528
      6 C           2.2182   -3.1898   -3.5958 C.ar    1  UNL1       -0.0041
      7 C           1.0997   -2.7464   -4.3116 C.ar    1  UNL1       -0.0530
      8 C           0.5279   -3.5578   -5.3019 C.ar    1  UNL1       -0.0598
      9 C           1.0496   -4.8265   -5.5576 C.ar    1  UNL1       -0.0434
     10 C           2.1452   -5.2771   -4.8227 C.ar    1  UNL1        0.0416
     11 CL          2.7648   -6.8579   -5.1166 Cl      1  UNL1       -0.0835
     12 C           2.7438   -4.4620   -3.8549 C.ar    1  UNL1       -0.0347
     13 C           3.0309    0.8305    0.9944 C.ar    1  UNL1        0.0799
     14 C           2.5806    0.9126    2.3283 C.ar    1  UNL1       -0.0426
     15 C           3.3130    1.6100    3.3018 C.ar    1  UNL1       -0.0192
     16 C           4.4847    2.2588    2.9328 C.ar    1  UNL1        0.1204
     17 O           5.2572    2.9221    3.8418 O.3     1  UNL1       -0.5066
     18 C           4.9153    2.2441    1.6076 C.ar    1  UNL1        0.0221
     19 C           4.1933    1.5256    0.6429 C.ar    1  UNL1        0.1325
     20 O           4.6319    1.5133   -0.6528 O.3     1  UNL1       -0.5059
     21 H           3.9232   -0.7325   -0.9319 H       1  UNL1        0.1776
     22 H           3.9820   -2.3891   -2.5352 H       1  UNL1        0.0851
     23 H           0.6804   -1.7611   -4.1186 H       1  UNL1        0.0624
     24 H          -0.3249   -3.2010   -5.8763 H       1  UNL1        0.0618
     25 H           0.5991   -5.4552   -6.3236 H       1  UNL1        0.0632
     26 H           3.5967   -4.8345   -3.2957 H       1  UNL1        0.0638
     27 H           1.6544    0.4168    2.6167 H       1  UNL1        0.0627
     28 H           2.9563    1.6303    4.3284 H       1  UNL1        0.0654
     29 H           4.8728    2.8247    4.7299 H       1  UNL1        0.2921
     30 H           5.8200    2.7886    1.3529 H       1  UNL1        0.0691
     31 H           5.3534    2.1602   -0.7464 H       1  UNL1        0.2922
@<TRIPOS>BOND
     1     1     2    2
     2     2     3   am
     3     3     4    1
     4     4     5    2
     5     5     6    1
     6     6     7   ar
     7     7     8   ar
     8     8     9   ar
     9     9    10   ar
    10    10    11    1
    11    10    12   ar
    12     6    12   ar
    13     2    13    1
    14    13    14   ar
    15    14    15   ar
    16    15    16   ar
    17    16    17    1
    18    16    18   ar
    19    18    19   ar
    20    13    19   ar
    21    19    20    1
    22     3    21    1
    23     5    22    1
    24     7    23    1
    25     8    24    1
    26     9    25    1
    27    12    26    1
    28    14    27    1
    29    15    28    1
    30    17    29    1
    31    18    30    1
    32    20    31    1
