@<TRIPOS>MOLECULE
*****
 34 35 0 0 0
SMALL
GASTEIGER

@<TRIPOS>ATOM
      1 O           0.9286   -0.0535    0.1618 O.2     1  UNL1       -0.2645
      2 C           2.1614    0.0493    0.1354 C.2     1  UNL1        0.3333
      3 N           2.9221   -0.2563    1.2675 N.am    1  UNL1       -0.2279
      4 N           2.2235   -0.9392    2.2648 N.pl3   1  UNL1       -0.2454
      5 C           2.9538   -1.3988    3.3930 C.ar    1  UNL1        0.1773
      6 N           4.0219   -0.6906    3.8349 N.ar    1  UNL1       -0.2259
      7 C           4.6665   -1.1669    4.9218 C.ar    1  UNL1        0.0915
      8 C           5.7510   -0.4580    5.4382 C.ar    1  UNL1       -0.0342
      9 C           6.4832   -0.9189    6.5349 C.ar    1  UNL1       -0.0596
     10 C           6.1255   -2.1176    7.1321 C.ar    1  UNL1       -0.0596
     11 C           5.0259   -2.8300    6.6375 C.ar    1  UNL1       -0.0342
     12 C           4.2737   -2.3756    5.5482 C.ar    1  UNL1        0.0915
     13 N           3.2039   -3.0811    5.0988 N.ar    1  UNL1       -0.2259
     14 C           2.5236   -2.5989    4.0256 C.ar    1  UNL1        0.1773
     15 N           1.4649   -3.3897    3.5262 N.pl3   1  UNL1       -0.2454
     16 N           0.6254   -2.9298    2.4960 N.am    1  UNL1       -0.2279
     17 C          -0.4044   -3.7403    2.0231 C.2     1  UNL1        0.3333
     18 O          -0.6888   -4.8195    2.5537 O.2     1  UNL1       -0.2645
     19 C          -1.1476   -3.1368    0.8073 C.3     1  UNL1        0.4709
     20 F          -1.6784   -1.9133    1.0934 F       1  UNL1       -0.1620
     21 F          -0.3140   -2.9462   -0.2557 F       1  UNL1       -0.1620
     22 F          -2.1757   -3.9068    0.3592 F       1  UNL1       -0.1620
     23 C           2.9533    0.5277   -1.0902 C.3     1  UNL1        0.4709
     24 F           2.6768   -0.2003   -2.2075 F       1  UNL1       -0.1620
     25 F           2.6896    1.8266   -1.3984 F       1  UNL1       -0.1620
     26 F           4.3017    0.4411   -0.9038 F       1  UNL1       -0.1620
     27 H           3.9351   -0.3890    1.2375 H       1  UNL1        0.1730
     28 H           1.3604   -0.4689    2.5630 H       1  UNL1        0.1716
     29 H           6.0376    0.4816    4.9712 H       1  UNL1        0.0639
     30 H           7.3289   -0.3458    6.9107 H       1  UNL1        0.0618
     31 H           6.6950   -2.4972    7.9789 H       1  UNL1        0.0618
     32 H           4.7549   -3.7692    7.1162 H       1  UNL1        0.0639
     33 H           1.2185   -4.2349    4.0381 H       1  UNL1        0.1716
     34 H           1.0439   -2.2622    1.8424 H       1  UNL1        0.1730
@<TRIPOS>BOND
     1     1     2    2
     2     2     3   am
     3     3     4    1
     4     4     5    1
     5     5     6   ar
     6     6     7   ar
     7     7     8   ar
     8     8     9   ar
     9     9    10   ar
    10    10    11   ar
    11    11    12   ar
    12     7    12   ar
    13    12    13   ar
    14    13    14   ar
    15     5    14   ar
    16    14    15    1
    17    15    16    1
    18    16    17   am
    19    17    18    2
    20    17    19    1
    21    19    20    1
    22    19    21    1
    23    19    22    1
    24     2    23    1
    25    23    24    1
    26    23    25    1
    27    23    26    1
    28     3    27    1
    29     4    28    1
    30     8    29    1
    31     9    30    1
    32    10    31    1
    33    11    32    1
    34    15    33    1
    35    16    34    1
