@<TRIPOS>MOLECULE
*****
 49 51 0 0 0
SMALL
GASTEIGER

@<TRIPOS>ATOM
      1 C           0.8776   -0.4428   -0.5348 C.3     1  UNL1        0.0789
      2 O           2.2880   -0.3504   -0.3789 O.3     1  UNL1       -0.4933
      3 C           2.8805    0.7859   -0.8587 C.ar    1  UNL1        0.1412
      4 C           4.0297    0.5132   -1.6337 C.ar    1  UNL1       -0.0181
      5 C           4.7146    1.5271   -2.2937 C.ar    1  UNL1       -0.0582
      6 C           4.2081    2.8186   -2.2301 C.ar    1  UNL1       -0.0598
      7 C           3.0892    3.1088   -1.4130 C.ar    1  UNL1       -0.0369
      8 C           2.4419    2.1095   -0.6496 C.ar    1  UNL1        0.0768
      9 N           1.3495    2.4780    0.2343 N.am    1  UNL1       -0.2661
     10 C           0.9605    1.7322    1.3762 C.2     1  UNL1        0.3097
     11 O           1.7457    0.9813    1.9586 O.2     1  UNL1       -0.2521
     12 N          -0.4167    1.7916    1.6351 N.am    1  UNL1       -0.2482
     13 C          -1.0662    0.7512    2.2985 C.ar    1  UNL1        0.1658
     14 N          -0.5450   -0.2275    2.9828 N.ar    1  UNL1       -0.2290
     15 C          -1.4751   -1.1174    3.5105 C.ar    1  UNL1        0.0593
     16 C          -1.0176   -2.2522    4.4233 C.3     1  UNL1        0.0671
     17 C           0.4904   -2.2249    4.7102 C.2     1  UNL1        0.2230
     18 O           1.2380   -1.3743    4.2453 O.2     1  UNL1       -0.2751
     19 N           1.0057   -3.2363    5.5225 N.am    1  UNL1       -0.2852
     20 C           2.3891   -3.2240    5.8614 C.ar    1  UNL1        0.0344
     21 C           3.1305   -4.4012    5.9118 C.ar    1  UNL1       -0.0404
     22 C           4.4784   -4.3500    6.2895 C.ar    1  UNL1       -0.0590
     23 C           5.0907   -3.1244    6.5854 C.ar    1  UNL1       -0.0482
     24 C           4.3605   -1.9345    6.5437 C.ar    1  UNL1        0.0094
     25 S           5.1761   -0.4128    7.0193 S.3     1  UNL1       -0.1285
     26 C           3.8513    0.8328    6.8948 C.3     1  UNL1       -0.0135
     27 C           3.0188   -2.0080    6.1768 C.ar    1  UNL1       -0.0271
     28 C          -2.7644   -0.8356    3.0922 C.ar    1  UNL1        0.0007
     29 S          -2.7729    0.6351    2.1580 S.2     1  UNL1       -0.0602
     30 H           0.5042   -1.1005    0.2556 H       1  UNL1        0.0660
     31 H           0.6308   -0.8486   -1.5141 H       1  UNL1        0.0660
     32 H           0.3241    0.4911   -0.4742 H       1  UNL1        0.0660
     33 H           4.3722   -0.5148   -1.7403 H       1  UNL1        0.0655
     34 H           5.6152    1.3026   -2.8639 H       1  UNL1        0.0619
     35 H           4.6981    3.6006   -2.8101 H       1  UNL1        0.0618
     36 H           2.7693    4.1461   -1.3745 H       1  UNL1        0.0637
     37 H           0.9934    3.4167    0.1399 H       1  UNL1        0.1565
     38 H          -0.9804    2.5539    1.3020 H       1  UNL1        0.1583
     39 H          -1.2778   -3.2165    3.9703 H       1  UNL1        0.0423
     40 H          -1.5532   -2.1805    5.3804 H       1  UNL1        0.0423
     41 H           0.4731   -4.0721    5.7161 H       1  UNL1        0.1548
     42 H           2.7069   -5.3486    5.5932 H       1  UNL1        0.0636
     43 H           5.0633   -5.2643    6.3548 H       1  UNL1        0.0618
     44 H           6.1460   -3.1067    6.8498 H       1  UNL1        0.0629
     45 H           4.2517    1.8035    7.1997 H       1  UNL1        0.0344
     46 H           3.0169    0.5940    7.5625 H       1  UNL1        0.0344
     47 H           3.4910    0.9234    5.8660 H       1  UNL1        0.0344
     48 H           2.4265   -1.1015    6.1417 H       1  UNL1        0.0647
     49 H          -3.6729   -1.3871    3.3045 H       1  UNL1        0.0712
@<TRIPOS>BOND
     1     1     2    1
     2     2     3    1
     3     3     4   ar
     4     4     5   ar
     5     5     6   ar
     6     6     7   ar
     7     7     8   ar
     8     3     8   ar
     9     8     9    1
    10     9    10   am
    11    10    11    2
    12    10    12   am
    13    12    13    1
    14    13    14   ar
    15    14    15   ar
    16    15    16    1
    17    16    17    1
    18    17    18    2
    19    17    19   am
    20    19    20    1
    21    20    21   ar
    22    21    22   ar
    23    22    23   ar
    24    23    24   ar
    25    24    25    1
    26    25    26    1
    27    24    27   ar
    28    20    27   ar
    29    15    28   ar
    30    28    29   ar
    31    13    29   ar
    32     1    30    1
    33     1    31    1
    34     1    32    1
    35     4    33    1
    36     5    34    1
    37     6    35    1
    38     7    36    1
    39     9    37    1
    40    12    38    1
    41    16    39    1
    42    16    40    1
    43    19    41    1
    44    21    42    1
    45    22    43    1
    46    23    44    1
    47    26    45    1
    48    26    46    1
    49    26    47    1
    50    27    48    1
    51    28    49    1
