REMARK  9 active torsions:
REMARK  status: ('A' for Active; 'I' for Inactive)
REMARK    1  A    between atoms: C_2  and  C_3 
REMARK    2  A    between atoms: C_3  and  O_4 
REMARK    3  A    between atoms: O_4  and  C_5 
REMARK    4  A    between atoms: C_9  and  C_10 
REMARK       I    between atoms: C_10  and  N_12 
REMARK    5  A    between atoms: N_12  and  C_13 
REMARK    6  A    between atoms: C_13  and  N_15 
REMARK    7  A    between atoms: N_15  and  C_16 
REMARK    8  A    between atoms: C_20  and  O_21 
REMARK    9  A    between atoms: C_22  and  C_23 
ROOT
ATOM      1  C   UNL d   1       1.687  -2.231   8.847  0.00  0.00     0.035 A 
ATOM      2  C   UNL d   1       1.029  -3.467   8.921  0.00  0.00     0.039 A 
ATOM      3  C   UNL d   1       0.372  -3.861  10.117  0.00  0.00    -0.026 A 
ATOM      4  C   UNL d   1      -0.559  -5.043  10.120  0.00  0.00     0.051 C 
ATOM      5  C   UNL d   1       0.482  -3.060  11.269  0.00  0.00     0.086 A 
ATOM      6  C   UNL d   1       1.134  -1.829  11.214  0.00  0.00     0.053 A 
ATOM      7  C   UNL d   1       1.681  -1.419   9.992  0.00  0.00     0.048 A 
ENDROOT
BRANCH   1   8
ATOM      8  N   UNL d   1       2.300  -1.752   7.630  0.00  0.00    -0.333 N 
ATOM      9  H   UNL d   1       1.880  -2.089   6.772  0.00  0.00     0.168 HD
BRANCH   8  10
ATOM     10  C   UNL d   1       3.549  -1.081   7.592  0.00  0.00     0.179 C 
ATOM     11  S   UNL d   1       4.598  -1.031   8.920  0.00  0.00    -0.040 SA
BRANCH  10  12
ATOM     12  N   UNL d   1       3.867  -0.497   6.343  0.00  0.00    -0.299 N 
ATOM     13  C   UNL d   1       5.022   0.276   6.086  0.00  0.00     0.257 C 
ATOM     14  O   UNL d   1       5.830   0.626   6.956  0.00  0.00    -0.267 OA
ATOM     15  H   UNL d   1       3.244  -0.689   5.574  0.00  0.00     0.171 HD
BRANCH  13  16
ATOM     16  C   UNL d   1       5.375   0.764   4.726  0.00  0.00     0.035 A 
ATOM     17  C   UNL d   1       6.590   1.471   4.579  0.00  0.00     0.017 A 
ATOM     18  C   UNL d   1       7.032   1.904   3.332  0.00  0.00     0.004 A 
ATOM     19  C   UNL d   1       6.237   1.672   2.215  0.00  0.00     0.037 A 
ATOM     20  C   UNL d   1       5.040   0.959   2.341  0.00  0.00     0.069 A 
ATOM     21  C   UNL d   1       4.606   0.513   3.595  0.00  0.00     0.053 A 
BRANCH  20  22
ATOM     22  O   UNL d   1       4.411   0.642   1.166  0.00  0.00    -0.351 OA
BRANCH  22  23
ATOM     23  C   UNL d   1       2.990   0.548   1.236  0.00  0.00     0.175 C 
BRANCH  23  24
ATOM     24  C   UNL d   1       2.473  -0.021  -0.078  0.00  0.00     0.022 C 
ATOM     25  C   UNL d   1       0.955  -0.046  -0.086  0.00  0.00     0.007 C 
ENDBRANCH  23  24
ENDBRANCH  22  23
ENDBRANCH  20  22
ENDBRANCH  13  16
ENDBRANCH  10  12
ENDBRANCH   8  10
ENDBRANCH   1   8
BRANCH   6  26
ATOM     26  C   UNL d   1       1.239  -0.963  12.382  0.00  0.00     0.185 A 
ATOM     27  N   UNL d   1       1.761  -1.221  13.568  0.00  0.00    -0.201 NA
ATOM     28  C   UNL d   1       1.557  -0.067  14.262  0.00  0.00     0.186 A 
ATOM     29  N   UNL d   1       1.915   0.169  15.545  0.00  0.00    -0.239 NA
ATOM     30  C   UNL d   1       0.912   0.867  13.467  0.00  0.00     0.125 A 
ATOM     31  C   UNL d   1       1.584   1.405  15.986  0.00  0.00     0.119 A 
ATOM     32  C   UNL d   1       0.928   2.388  15.244  0.00  0.00     0.022 A 
ATOM     33  C   UNL d   1       0.564   2.131  13.920  0.00  0.00     0.043 A 
ATOM     34  O   UNL d   1       0.713   0.304  12.240  0.00  0.00    -0.287 OA
ENDBRANCH   6  26
BRANCH   5  35
ATOM     35  O   UNL d   1      -0.112  -3.415  12.452  0.00  0.00    -0.359 OA
ATOM     36  H   UNL d   1      -0.349  -4.354  12.456  0.00  0.00     0.217 HD
ENDBRANCH   5  35
TORSDOF 9
