REMARK  7 active torsions:
REMARK  status: ('A' for Active; 'I' for Inactive)
REMARK    1  A    between atoms: C_8  and  C_7 
REMARK    2  A    between atoms: C_8  and  N_16 
REMARK    3  A    between atoms: C_8  and  C_9 
REMARK       I    between atoms: C_9  and  N_11 
REMARK    4  A    between atoms: N_11  and  C_12 
REMARK       I    between atoms: N_16  and  C_17 
REMARK    5  A    between atoms: N_16  and  C_28 
REMARK    6  A    between atoms: C_17  and  C_19 
REMARK    7  A    between atoms: C_23  and  N_24 
ROOT
ATOM      1  N   UNL d   1       2.524   2.144   0.005  0.00  0.00    -0.296 N 
ATOM      2  C   UNL d   1       3.047   0.859  -0.100  0.00  0.00     0.259 C 
ATOM      3  O   UNL d   1       3.976   0.476   0.632  0.00  0.00    -0.267 OA
ENDROOT
BRANCH   1   4
ATOM      4  C   UNL d   1       1.042   2.421   0.114  0.00  0.00     0.219 C 
BRANCH   4   5
ATOM      5  C   UNL d   1      -0.083   1.306  -0.107  0.00  0.00     0.246 C 
ATOM      6  O   UNL d   1      -1.151   1.689  -0.598  0.00  0.00    -0.271 OA
ATOM      7  N   UNL d   1       0.040  -0.014   0.368  0.00  0.00    -0.351 N 
ATOM      8  H   UNL d   1       0.897  -0.336   0.809  0.00  0.00     0.163 HD
BRANCH   7   9
ATOM      9  C   UNL d   1      -1.142  -0.919   0.472  0.00  0.00     0.022 C 
ATOM     10  C   UNL d   1      -2.257  -0.319   1.351  0.00  0.00     0.037 C 
ATOM     11  C   UNL d   1      -1.708  -1.176  -0.920  0.00  0.00     0.037 C 
ATOM     12  C   UNL d   1      -0.781  -2.287   1.094  0.00  0.00     0.037 C 
ENDBRANCH   7   9
ENDBRANCH   4   5
BRANCH   4  13
ATOM     13  C   UNL d   1       0.614   3.303   1.310  0.00  0.00    -0.020 C 
ATOM     14  C   UNL d   1       0.591   4.707   1.184  0.00  0.00     0.010 C 
ATOM     15  C   UNL d   1       0.496   5.508   2.330  0.00  0.00     0.001 C 
ATOM     16  C   UNL d   1       0.244   4.937   3.574  0.00  0.00     0.001 C 
ATOM     17  C   UNL d   1       0.093   3.570   3.683  0.00  0.00     0.007 C 
ATOM     18  C   UNL d   1       0.329   2.760   2.581  0.00  0.00    -0.053 C 
ATOM     19  C   UNL d   1       0.134   1.311   2.792  0.00  0.00     0.049 C 
ENDBRANCH   4  13
ENDBRANCH   1   4
BRANCH   1  20
ATOM     20  C   UNL d   1       3.496   3.236   0.044  0.00  0.00     0.040 A 
ATOM     21  C   UNL d   1       4.614   3.238  -0.802  0.00  0.00     0.030 A 
ATOM     22  C   UNL d   1       5.590   4.253  -0.716  0.00  0.00     0.004 A 
ATOM     23  C   UNL d   1       5.413   5.351   0.125  0.00  0.00     0.024 A 
ATOM     24  C   UNL d   1       4.312   5.374   0.952  0.00  0.00     0.036 A 
ATOM     25 CL   UNL d   1       4.056   6.684   2.041  0.00  0.00    -0.084 Cl
ATOM     26  C   UNL d   1       3.432   4.292   0.954  0.00  0.00     0.053 A 
ENDBRANCH   1  20
BRANCH   2  27
ATOM     27  C   UNL d   1       2.516  -0.108  -1.114  0.00  0.00     0.035 A 
ATOM     28  C   UNL d   1       2.871  -1.463  -1.001  0.00  0.00     0.017 A 
ATOM     29  C   UNL d   1       2.293  -2.421  -1.841  0.00  0.00     0.003 A 
ATOM     30  C   UNL d   1       1.322  -2.047  -2.773  0.00  0.00     0.036 A 
ATOM     31  C   UNL d   1       0.967  -0.699  -2.890  0.00  0.00     0.103 A 
ATOM     32  C   UNL d   1       1.612   0.272  -2.116  0.00  0.00     0.053 A 
BRANCH  31  33
ATOM     33  N   UNL d   1      -0.190  -0.304  -3.716  0.00  0.00    -0.116 N 
ATOM     34  O   UNL d   1      -0.742  -1.183  -4.392  0.00  0.00    -0.532 OA
ATOM     35  O   UNL d   1      -0.560   0.877  -3.659  0.00  0.00    -0.532 OA
ENDBRANCH  31  33
ENDBRANCH   2  27
TORSDOF 7
