@<TRIPOS>MOLECULE
*****
 60 62 0 0 0
SMALL
GASTEIGER

@<TRIPOS>ATOM
      1 CG2         4.0973    1.4145    5.1660 C.3     1  THR1       -0.0368
      2 CB          2.9229    0.4804    4.9082 C.3     1  THR1        0.0759
      3 OG1         3.1851   -0.6520    5.7393 O.3     1  THR1       -0.3899
      4 CA          1.5479    1.1359    5.1680 C.3     1  THR1        0.0881
      5 N           1.4229    2.4161    4.4046 N.am    1  THR1       -0.3048
      6 C           2.0194    3.6061    4.7479 C.2     0  UNK0        0.2142
      7 O           2.7369    3.7585    5.7411 O.2     0  UNK0       -0.2758
      8 C           1.9055    4.7557    3.7728 C.3     0  UNK0        0.0322
      9 C           0.8112    4.6130    2.7193 C.3     0  UNK0        0.0079
     10 C           1.3564    3.9751    1.4248 C.3     0  UNK0        0.0189
     11 N           2.1121    2.7535    1.6235 N.am    0  UNK0       -0.3134
     12 C           2.5760    2.0368    0.5397 C.2     0  UNK0        0.2304
     13 O           2.6516    2.5336   -0.5867 O.2     0  UNK0       -0.2741
     14 C           2.9255    0.5709    0.8495 C.3     0  UNK0        0.0890
     15 C           4.4505    0.3534    0.8565 C.3     0  UNK0       -0.0034
     16 C           4.7283   -1.1240    0.9976 C.ar    0  UNK0       -0.0410
     17 C           5.7348   -1.6398    1.8162 C.ar    0  UNK0       -0.0582
     18 C           5.8872   -3.0229    1.9359 C.ar    0  UNK0       -0.0615
     19 C           5.0405   -3.8885    1.2407 C.ar    0  UNK0       -0.0614
     20 C           4.0500   -3.3768    0.4034 C.ar    0  UNK0       -0.0571
     21 C           3.8922   -1.9949    0.2765 C.ar    0  UNK0       -0.0303
     22 C           2.8763   -1.3872   -0.6534 C.3     0  UNK0        0.0222
     23 N           2.1256   -0.2836   -0.0668 N.3     0  UNK0       -0.3014
     24 C           0.1792    5.9537    2.4136 C.ar    0  UNK0       -0.0423
     25 C          -1.2179    6.0680    2.3944 C.ar    0  UNK0       -0.0569
     26 C          -1.8116    7.2775    2.0472 C.ar    0  UNK0       -0.0431
     27 C          -1.0100    8.3741    1.7353 C.ar    0  UNK0        0.0410
     28 CL         -1.7396    9.8539    1.2519 Cl      0  UNK0       -0.0835
     29 C           0.3786    8.2833    1.7959 C.ar    0  UNK0       -0.0431
     30 C           0.9729    7.0740    2.1338 C.ar    0  UNK0       -0.0569
     31 C           0.3603    0.1653    4.7831 C.2     1  THR1        0.0644
     32 O           0.6459   -0.9236    4.2216 O.co2   1  THR1       -0.5478
     33 OXT        -0.7857    0.6775    4.9782 O.co2   1  THR1       -0.5478
     34 HG21        5.0500    0.8906    5.0723 H       1  THR1        0.0255
     35 HG22        4.0482    1.7909    6.1949 H       1  THR1        0.0255
     36 HG23        4.1243    2.2447    4.4564 H       1  THR1        0.0255
     37 HB          2.9813    0.1550    3.8683 H       1  THR1        0.0613
     38 HG1         2.8971   -0.4234    6.6355 H       1  THR1        0.2099
     39 HA          1.4284    1.3769    6.2322 H       1  THR1        0.0586
     40 H           0.5502    2.4121    3.8829 H       1  THR1        0.1494
     41 H           2.8839    4.8956    3.2875 H       0  UNK0        0.0365
     42 H           1.7399    5.6432    4.3966 H       0  UNK0        0.0365
     43 H           0.0027    3.9881    3.1085 H       0  UNK0        0.0369
     44 H           0.5181    3.7329    0.7587 H       0  UNK0        0.0468
     45 H           1.9998    4.6741    0.8771 H       0  UNK0        0.0468
     46 H           2.1471    2.3167    2.5417 H       0  UNK0        0.1487
     47 H           2.5568    0.3342    1.8531 H       0  UNK0        0.0560
     48 H           4.9040    0.9076    1.6882 H       0  UNK0        0.0333
     49 H           4.9082    0.7218   -0.0693 H       0  UNK0        0.0333
     50 H           6.3800   -0.9779    2.3870 H       0  UNK0        0.0620
     51 H           6.6527   -3.4287    2.5915 H       0  UNK0        0.0618
     52 H           5.1438   -4.9632    1.3607 H       0  UNK0        0.0618
     53 H           3.3922   -4.0560   -0.1317 H       0  UNK0        0.0621
     54 H           2.1598   -2.1450   -0.9880 H       0  UNK0        0.0474
     55 H           3.3981   -1.0347   -1.5519 H       0  UNK0        0.0474
     56 H           1.3433   -0.6554    0.4751 H       0  UNK0        0.1230
     57 H          -1.8479    5.2131    2.6407 H       0  UNK0        0.0621
     58 H          -2.8944    7.3496    2.0118 H       0  UNK0        0.0632
     59 H           1.0072    9.1384    1.5699 H       0  UNK0        0.0632
     60 H           2.0583    7.0054    2.1729 H       0  UNK0        0.0621
@<TRIPOS>UNITY_ATOM_ATTR
33 1
charge -1
@<TRIPOS>BOND
     1     1     2    1
     2     2     3    1
     3     2     4    1
     4     4     5    1
     5     5     6   am
     6     6     7    2
     7     6     8    1
     8    10    11    1
     9    11    12   am
    10    12    13    2
    11    14    15    1
    12    15    16    1
    13    16    17   ar
    14    17    18   ar
    15    18    19   ar
    16    19    20   ar
    17    20    21   ar
    18    16    21   ar
    19    21    22    1
    20    22    23    1
    21    14    23    1
    22     9    24    1
    23    24    25   ar
    24    25    26   ar
    25    26    27   ar
    26    27    28    1
    27    27    29   ar
    28    29    30   ar
    29    24    30   ar
    30     4    31    1
    31    31    32   ar
    32    31    33   ar
    33     9    10    1
    34     9     8    1
    35    14    12    1
    36     1    34    1
    37     1    35    1
    38     1    36    1
    39     2    37    1
    40     3    38    1
    41     4    39    1
    42     5    40    1
    43     8    41    1
    44     8    42    1
    45     9    43    1
    46    10    44    1
    47    10    45    1
    48    11    46    1
    49    14    47    1
    50    15    48    1
    51    15    49    1
    52    17    50    1
    53    18    51    1
    54    19    52    1
    55    20    53    1
    56    22    54    1
    57    22    55    1
    58    23    56    1
    59    25    57    1
    60    26    58    1
    61    29    59    1
    62    30    60    1
