@<TRIPOS>MOLECULE
*****
 60 63 0 0 0
SMALL
GASTEIGER

@<TRIPOS>ATOM
      1 C           1.1863    0.6153    0.0277 C.3     1  UNL1        0.0790
      2 O           2.5823    0.3374   -0.0045 O.3     1  UNL1       -0.4914
      3 C           3.1713   -0.7146    0.6498 C.ar    1  UNL1        0.1617
      4 C           4.3947   -0.4362    1.3007 C.ar    1  UNL1       -0.0131
      5 C           5.2898   -1.4563    1.7867 C.ar    1  UNL1       -0.0195
      6 C           5.0359   -2.7986    1.5445 C.ar    1  UNL1        0.1035
      7 N           5.6940   -3.9093    2.1858 N.pl3   1  UNL1       -0.2449
      8 C           5.2754   -5.2569    2.2866 C.2     1  UNL1        0.3842
      9 N           4.1964   -5.8562    1.8603 N.am    1  UNL1        0.0006
     10 C           3.0493   -5.1120    1.7666 C.2     1  UNL1        0.3406
     11 O           2.6940   -4.3439    2.6283 O.2     1  UNL1       -0.2484
     12 C           2.0298   -5.5547    0.7546 C.ar    1  UNL1        0.0577
     13 C           1.7902   -5.1127   -0.5730 C.ar    1  UNL1       -0.0453
     14 C           0.5010   -5.2297   -1.1203 C.ar    1  UNL1       -0.0242
     15 C          -0.4693   -5.9276   -0.4169 C.ar    1  UNL1        0.1417
     16 F          -1.6767   -6.0928   -0.9710 F       1  UNL1       -0.2040
     17 C          -0.1901   -6.4484    0.8425 C.ar    1  UNL1        0.0768
     18 CL         -1.3508   -7.3219    1.7479 Cl      1  UNL1       -0.0806
     19 C           1.0412   -6.2415    1.4305 C.ar    1  UNL1       -0.0269
     20 N           6.1498   -6.1344    2.9531 N.pl3   1  UNL1       -0.2767
     21 C           5.6960   -7.5299    3.2132 C.3     1  UNL1        0.0684
     22 C           6.6694   -8.3787    4.0168 C.3     1  UNL1        0.0059
     23 C           6.3516   -9.8469    4.1995 C.2     1  UNL1        0.0106
     24 C           7.2385  -10.6444    4.7982 C.ar    1  UNL1        0.0510
     25 C           8.5222  -10.3505    5.3227 C.ar    1  UNL1       -0.0482
     26 C           9.3083  -11.3697    5.6776 C.ar    1  UNL1       -0.0608
     27 C           8.8067  -12.7343    5.6941 C.ar    1  UNL1       -0.0555
     28 C           7.5648  -13.0849    5.2930 C.ar    1  UNL1        0.0098
     29 C           6.6898  -12.0044    4.7789 C.ar    1  UNL1        0.2086
     30 N           5.5104  -12.0197    4.2821 N.2     1  UNL1       -0.2369
     31 C           5.1543  -10.6527    3.7615 C.3     1  UNL1        0.1661
     32 C           4.0066   -2.9616    0.6341 C.ar    1  UNL1        0.0222
     33 C           2.9331   -2.0471    0.4365 C.ar    1  UNL1        0.1647
     34 O           1.7717   -2.7057    0.1821 O.3     1  UNL1       -0.4913
     35 C           0.6542   -2.0812   -0.3716 C.3     1  UNL1        0.0790
     36 H           1.0217    1.6168   -0.3719 H       1  UNL1        0.0660
     37 H           0.7653    0.5241    1.0318 H       1  UNL1        0.0660
     38 H           0.5880    0.0706   -0.7004 H       1  UNL1        0.0660
     39 H           4.6643    0.6071    1.4457 H       1  UNL1        0.0656
     40 H           6.2054   -1.1506    2.2838 H       1  UNL1        0.0653
     41 H           6.4313   -3.6146    2.8116 H       1  UNL1        0.2646
     42 H           2.4810   -4.4906   -1.1478 H       1  UNL1        0.0626
     43 H           0.2150   -4.6925   -2.0276 H       1  UNL1        0.0647
     44 H           1.2378   -6.5301    2.4586 H       1  UNL1        0.0641
     45 H           6.8566   -5.7652    3.5803 H       1  UNL1        0.2577
     46 H           5.5645   -8.0187    2.2431 H       1  UNL1        0.0658
     47 H           4.7340   -7.5492    3.7439 H       1  UNL1        0.0658
     48 H           6.7821   -7.9479    5.0216 H       1  UNL1        0.0343
     49 H           7.6548   -8.3112    3.5357 H       1  UNL1        0.0343
     50 H           8.8583   -9.3214    5.3685 H       1  UNL1        0.0626
     51 H          10.3373  -11.1699    5.9634 H       1  UNL1        0.0618
     52 H           9.5045  -13.4703    6.0907 H       1  UNL1        0.0620
     53 H           7.2480  -14.1211    5.3311 H       1  UNL1        0.0683
     54 H           4.9345  -12.8624    4.2651 H       1  UNL1        0.4459
     55 H           4.2164  -10.3275    4.2179 H       1  UNL1        0.1077
     56 H           5.0614  -10.7240    2.6718 H       1  UNL1        0.1077
     57 H           3.9705   -3.9059    0.1169 H       1  UNL1        0.0690
     58 H          -0.1344   -2.7627   -0.6982 H       1  UNL1        0.0660
     59 H           0.9967   -1.6060   -1.2914 H       1  UNL1        0.0660
     60 H           0.1636   -1.4947    0.4060 H       1  UNL1        0.0660
@<TRIPOS>UNITY_ATOM_ATTR
30 1
charge 1
@<TRIPOS>BOND
     1     1     2    1
     2     2     3    1
     3     3     4   ar
     4     4     5   ar
     5     5     6   ar
     6     6     7    1
     7     7     8    1
     8     8     9    2
     9     9    10    1
    10    10    11    2
    11    10    12    1
    12    12    13   ar
    13    13    14   ar
    14    14    15   ar
    15    15    16    1
    16    15    17   ar
    17    17    18    1
    18    17    19   ar
    19    12    19   ar
    20     8    20    1
    21    20    21    1
    22    21    22    1
    23    22    23    1
    24    23    24    2
    25    24    25   ar
    26    25    26   ar
    27    26    27   ar
    28    27    28   ar
    29    28    29   ar
    30    24    29   ar
    31    29    30    2
    32    30    31    1
    33    23    31    1
    34     6    32   ar
    35    32    33   ar
    36     3    33   ar
    37    33    34    1
    38    34    35    1
    39     1    36    1
    40     1    37    1
    41     1    38    1
    42     4    39    1
    43     5    40    1
    44     7    41    1
    45    13    42    1
    46    14    43    1
    47    19    44    1
    48    20    45    1
    49    21    46    1
    50    21    47    1
    51    22    48    1
    52    22    49    1
    53    25    50    1
    54    26    51    1
    55    27    52    1
    56    28    53    1
    57    30    54    1
    58    31    55    1
    59    31    56    1
    60    32    57    1
    61    35    58    1
    62    35    59    1
    63    35    60    1
