REMARK  8 active torsions:
REMARK  status: ('A' for Active; 'I' for Inactive)
REMARK    1  A    between atoms: N_2  and  C_4 
REMARK    2  A    between atoms: C_7  and  C_8 
REMARK    3  A    between atoms: N_9  and  N_10 
REMARK       I    between atoms: N_10  and  C_11 
REMARK    4  A    between atoms: C_11  and  C_13 
REMARK    5  A    between atoms: C_13  and  C_14 
REMARK    6  A    between atoms: C_14  and  C_15 
REMARK    7  A    between atoms: C_15  and  O_16 
REMARK    8  A    between atoms: C_15  and  C_17 
ROOT
ATOM      1  N   UNL d   1       5.740   3.257   6.432  0.00  0.00    -0.247 N 
ATOM      2  C   UNL d   1       5.206   3.266   7.718  0.00  0.00     0.237 C 
ATOM      3  O   UNL d   1       4.139   2.717   8.016  0.00  0.00    -0.272 OA
ATOM      4  H   UNL d   1       6.609   3.729   6.206  0.00  0.00     0.192 HD
ENDROOT
BRANCH   1   5
ATOM      5  N   UNL d   1       5.032   2.605   5.452  0.00  0.00    -0.184 NA
ATOM      6  C   UNL d   1       5.489   2.580   4.240  0.00  0.00     0.150 C 
BRANCH   6   7
ATOM      7  C   UNL d   1       4.719   1.913   3.148  0.00  0.00    -0.017 A 
ATOM      8  C   UNL d   1       5.180   1.928   1.831  0.00  0.00     0.015 A 
ATOM      9  C   UNL d   1       4.390   1.381   0.799  0.00  0.00     0.030 A 
ATOM     10  C   UNL d   1       3.161   0.745   1.052  0.00  0.00     0.029 A 
ATOM     11  C   UNL d   1       2.724   0.748   2.383  0.00  0.00     0.030 A 
ATOM     12  C   UNL d   1       3.490   1.310   3.419  0.00  0.00     0.015 A 
BRANCH  10  13
ATOM     13  N   UNL d   1       2.446   0.132   0.027  0.00  0.00    -0.390 N 
ATOM     14  C   UNL d   1       0.995   0.012   0.089  0.00  0.00     0.149 C 
ATOM     15  C   UNL d   1       3.172  -0.764  -0.870  0.00  0.00     0.149 C 
ENDBRANCH  10  13
ENDBRANCH   6   7
ENDBRANCH   1   5
BRANCH   2  16
ATOM     16  C   UNL d   1       6.029   4.004   8.768  0.00  0.00     0.107 C 
BRANCH  16  17
ATOM     17  C   UNL d   1       5.328   3.926  10.136  0.00  0.00     0.046 C 
BRANCH  17  18
ATOM     18  C   UNL d   1       6.085   4.650  11.253  0.00  0.00     0.151 C 
BRANCH  18  19
ATOM     19  O   UNL d   1       6.272   6.011  10.867  0.00  0.00    -0.391 OA
ATOM     20  H   UNL d   1       5.386   6.406  10.804  0.00  0.00     0.210 HD
ENDBRANCH  18  19
BRANCH  18  21
ATOM     21  C   UNL d   1       5.378   4.537  12.595  0.00  0.00    -0.030 A 
ATOM     22  C   UNL d   1       4.985   5.662  13.336  0.00  0.00     0.010 A 
ATOM     23  C   UNL d   1       4.459   5.523  14.621  0.00  0.00     0.001 A 
ATOM     24  C   UNL d   1       4.247   4.256  15.158  0.00  0.00     0.000 A 
ATOM     25  C   UNL d   1       4.594   3.126  14.424  0.00  0.00     0.001 A 
ATOM     26  C   UNL d   1       5.167   3.266  13.159  0.00  0.00     0.010 A 
ENDBRANCH  18  21
ENDBRANCH  17  18
ENDBRANCH  16  17
ENDBRANCH   2  16
TORSDOF 8
