@<TRIPOS>MOLECULE
*****
 64 69 0 0 0
SMALL
GASTEIGER

@<TRIPOS>ATOM
      1 O           1.0590    0.4922    0.0383 O.2     1  UNL1       -0.2865
      2 C           2.2425    0.2622    0.0075 C.2     1  UNL1        0.1963
      3 C           3.0613    1.4807    0.0030 C.ar    1  UNL1        0.0331
      4 C           2.3521    2.6861   -0.0028 C.ar    1  UNL1       -0.0502
      5 C           3.0447    3.8704   -0.0042 C.ar    1  UNL1       -0.0610
      6 C           4.4393    3.8317   -0.0017 C.ar    1  UNL1       -0.0610
      7 C           5.1540    2.6130    0.0027 C.ar    1  UNL1       -0.0503
      8 C           4.4599    1.4122    0.0057 C.ar    1  UNL1        0.0314
      9 C           4.9937    0.0682   -0.0063 C.ar    1  UNL1        0.1764
     10 O           6.3111   -0.2416   -0.0007 O.2     1  UNL1       -0.3534
     11 N           6.4445   -1.6405   -0.0474 N.ar    1  UNL1       -0.0757
     12 C           5.1912   -2.1631   -0.0874 C.ar    1  UNL1        0.1357
     13 C           4.7143   -3.5102   -0.1486 C.ar    1  UNL1        0.0615
     14 N           5.5078   -4.6325   -0.0734 N.pl3   1  UNL1       -0.3180
     15 C           5.5219   -5.8087   -0.9424 C.3     1  UNL1        0.0525
     16 C           5.4111   -7.0904   -0.0742 C.3     1  UNL1       -0.0155
     17 N           6.4577   -7.1107    1.0864 N.4     1  UNL1        0.2396
     18 C           6.2441   -8.3439    2.0483 C.3     1  UNL1       -0.0208
     19 C           7.2984   -8.3808    3.1680 C.3     1  UNL1       -0.0096
     20 C           7.1324   -7.2258    4.1416 C.3     1  UNL1       -0.0480
     21 C           5.6807   -6.9827    4.5742 C.3     1  UNL1       -0.0527
     22 C           4.5635   -7.1864    3.5284 C.3     1  UNL1       -0.0480
     23 C           4.8364   -8.3981    2.6633 C.3     1  UNL1       -0.0096
     24 C           6.6696   -5.6958    1.7041 C.3     1  UNL1       -0.0155
     25 C           6.6873   -4.5270    0.7488 C.3     1  UNL1        0.0525
     26 C           3.2748   -3.5534   -0.1087 C.ar    1  UNL1       -0.0169
     27 C           2.3592   -2.4058   -0.0527 C.ar    1  UNL1        0.0407
     28 N           0.9886   -2.7130    0.0436 N.pl3   1  UNL1       -0.3410
     29 C          -0.0229   -1.6631   -0.0036 C.3     1  UNL1        0.0323
     30 C          -1.4804   -2.0671    0.0013 C.3     1  UNL1        0.0596
     31 O          -2.3223   -0.9075   -0.0009 O.3     1  UNL1       -0.3935
     32 C           2.8950   -1.0853   -0.0289 C.ar    1  UNL1        0.0561
     33 C           4.2785   -1.0895   -0.0384 C.ar    1  UNL1        0.0634
     34 H           1.2621    2.6936   -0.0077 H       1  UNL1        0.0625
     35 H           2.4832    4.8000   -0.0085 H       1  UNL1        0.0618
     36 H           4.9716    4.7779   -0.0058 H       1  UNL1        0.0618
     37 H           6.2388    2.6356   -0.0002 H       1  UNL1        0.0625
     38 H           6.4950   -5.8465   -1.4541 H       1  UNL1        0.0516
     39 H           4.7520   -5.7771   -1.7164 H       1  UNL1        0.0516
     40 H           5.5810   -7.9968   -0.6689 H       1  UNL1        0.0830
     41 H           4.4179   -7.1264    0.3761 H       1  UNL1        0.0830
     42 H           7.3611   -7.3072    0.6385 H       1  UNL1        0.2037
     43 H           6.3810   -9.2344    1.4171 H       1  UNL1        0.0851
     44 H           8.3083   -8.3918    2.7415 H       1  UNL1        0.0320
     45 H           7.2043   -9.3143    3.7458 H       1  UNL1        0.0320
     46 H           7.5163   -6.3260    3.6997 H       1  UNL1        0.0267
     47 H           7.8170   -7.3015    4.9917 H       1  UNL1        0.0267
     48 H           5.6089   -5.9695    4.9845 H       1  UNL1        0.0265
     49 H           5.4859   -7.6851    5.3883 H       1  UNL1        0.0265
     50 H           4.3905   -6.3384    2.8622 H       1  UNL1        0.0267
     51 H           3.5990   -7.2627    4.0388 H       1  UNL1        0.0267
     52 H           4.0688   -8.5064    1.8909 H       1  UNL1        0.0320
     53 H           4.7335   -9.2925    3.2944 H       1  UNL1        0.0320
     54 H           7.6628   -5.6445    2.1339 H       1  UNL1        0.0830
     55 H           5.8848   -5.4730    2.4170 H       1  UNL1        0.0830
     56 H           7.6086   -4.5431    0.1626 H       1  UNL1        0.0516
     57 H           6.6976   -3.6391    1.3936 H       1  UNL1        0.0516
     58 H           2.8130   -4.5414   -0.0553 H       1  UNL1        0.0655
     59 H           0.6662   -3.6634   -0.0672 H       1  UNL1        0.1462
     60 H           0.1031   -1.0859   -0.9286 H       1  UNL1        0.0484
     61 H           0.0876   -1.0761    0.9149 H       1  UNL1        0.0484
     62 H          -1.7105   -2.6510    0.8920 H       1  UNL1        0.0573
     63 H          -1.7074   -2.6420   -0.8970 H       1  UNL1        0.0573
     64 H          -2.0452   -0.3182    0.7263 H       1  UNL1        0.2095
@<TRIPOS>UNITY_ATOM_ATTR
17 1
charge 1
@<TRIPOS>BOND
     1     1     2    2
     2     2     3    1
     3     3     4   ar
     4     4     5   ar
     5     5     6   ar
     6     6     7   ar
     7     7     8   ar
     8     3     8   ar
     9     8     9    1
    10     9    10   ar
    11    10    11   ar
    12    11    12   ar
    13    12    13   ar
    14    13    14    1
    15    14    15    1
    16    15    16    1
    17    16    17    1
    18    17    18    1
    19    18    19    1
    20    19    20    1
    21    20    21    1
    22    21    22    1
    23    22    23    1
    24    18    23    1
    25    17    24    1
    26    24    25    1
    27    14    25    1
    28    13    26   ar
    29    26    27   ar
    30    27    28    1
    31    28    29    1
    32    29    30    1
    33    30    31    1
    34    27    32   ar
    35     2    32    1
    36    32    33   ar
    37     9    33   ar
    38    12    33   ar
    39     4    34    1
    40     5    35    1
    41     6    36    1
    42     7    37    1
    43    15    38    1
    44    15    39    1
    45    16    40    1
    46    16    41    1
    47    17    42    1
    48    18    43    1
    49    19    44    1
    50    19    45    1
    51    20    46    1
    52    20    47    1
    53    21    48    1
    54    21    49    1
    55    22    50    1
    56    22    51    1
    57    23    52    1
    58    23    53    1
    59    24    54    1
    60    24    55    1
    61    25    56    1
    62    25    57    1
    63    26    58    1
    64    28    59    1
    65    29    60    1
    66    29    61    1
    67    30    62    1
    68    30    63    1
    69    31    64    1
