@<TRIPOS>MOLECULE
*****
 40 40 0 0 0
SMALL
GASTEIGER

@<TRIPOS>ATOM
      1 C           0.9903   -0.0428    0.1372 C.3     1  UNL1       -0.0622
      2 C           2.5208    0.0043    0.1434 C.3     1  UNL1       -0.0385
      3 C           2.9626    1.1778   -0.7477 C.3     1  UNL1       -0.0622
      4 C           3.1229    0.1001    1.5895 C.3     1  UNL1        0.0266
      5 C           4.6589    0.0038    1.5352 C.2     1  UNL1        0.2187
      6 O           5.1764   -0.2735    0.4467 O.2     1  UNL1       -0.2754
      7 N           5.4211    0.1732    2.6998 N.am    1  UNL1       -0.2667
      8 C           6.8383    0.1930    2.7443 C.2     1  UNL1        0.1530
      9 S           7.8694    0.1019    1.4023 S.2     1  UNL1       -0.0170
     10 N           7.4131    0.3038    4.0204 N.am    1  UNL1       -0.2455
     11 N           8.8681    0.3063    4.1345 N.am    1  UNL1       -0.2323
     12 C           9.5000    0.3981    5.3666 C.2     1  UNL1        0.2667
     13 O           8.8394    0.4941    6.4048 O.2     1  UNL1       -0.2705
     14 C          11.0618    0.3848    5.3322 C.3     1  UNL1        0.1666
     15 O          11.5951    0.3750    6.6621 O.3     1  UNL1       -0.4827
     16 C          12.9480    0.5064    6.8360 C.ar    1  UNL1        0.1212
     17 C          13.4877   -0.1586    7.9457 C.ar    1  UNL1       -0.0199
     18 C          14.8311    0.0091    8.3043 C.ar    1  UNL1       -0.0583
     19 C          15.6628    0.8060    7.5237 C.ar    1  UNL1       -0.0615
     20 C          15.1360    1.4688    6.4159 C.ar    1  UNL1       -0.0583
     21 C          13.7802    1.3306    6.0796 C.ar    1  UNL1       -0.0199
     22 H           0.6131   -0.1413   -0.8901 H       1  UNL1        0.0232
     23 H           0.5666    0.8757    0.5549 H       1  UNL1        0.0232
     24 H           0.6115   -0.8953    0.7074 H       1  UNL1        0.0232
     25 H           2.8728   -0.9287   -0.3209 H       1  UNL1        0.0300
     26 H           2.6092    2.1285   -0.3384 H       1  UNL1        0.0232
     27 H           2.5659    1.0680   -1.7633 H       1  UNL1        0.0232
     28 H           4.0476    1.2504   -0.8517 H       1  UNL1        0.0232
     29 H           2.7431   -0.7406    2.1841 H       1  UNL1        0.0361
     30 H           2.7989    1.0332    2.0616 H       1  UNL1        0.0361
     31 H           4.9132    0.2762    3.5690 H       1  UNL1        0.1565
     32 H           6.9157    0.3680    4.9078 H       1  UNL1        0.1718
     33 H           9.3707    0.2248    3.2490 H       1  UNL1        0.1729
     34 H          11.3919    1.2650    4.7697 H       1  UNL1        0.0795
     35 H          11.4003   -0.5255    4.8227 H       1  UNL1        0.0795
     36 H          12.8581   -0.8116    8.5455 H       1  UNL1        0.0654
     37 H          15.2232   -0.4687    9.1994 H       1  UNL1        0.0619
     38 H          16.7132    0.9190    7.7834 H       1  UNL1        0.0618
     39 H          15.7784    2.1194    5.8267 H       1  UNL1        0.0619
     40 H          13.4013    1.9125    5.2483 H       1  UNL1        0.0654
@<TRIPOS>BOND
     1     1     2    1
     2     2     3    1
     3     2     4    1
     4     4     5    1
     5     5     6    2
     6     5     7   am
     7     7     8    1
     8     8     9    2
     9     8    10    1
    10    10    11    1
    11    11    12   am
    12    12    13    2
    13    12    14    1
    14    14    15    1
    15    15    16    1
    16    16    17   ar
    17    17    18   ar
    18    18    19   ar
    19    19    20   ar
    20    20    21   ar
    21    16    21   ar
    22     1    22    1
    23     1    23    1
    24     1    24    1
    25     2    25    1
    26     3    26    1
    27     3    27    1
    28     3    28    1
    29     4    29    1
    30     4    30    1
    31     7    31    1
    32    10    32    1
    33    11    33    1
    34    14    34    1
    35    14    35    1
    36    17    36    1
    37    18    37    1
    38    19    38    1
    39    20    39    1
    40    21    40    1
