REMARK  10 active torsions:
REMARK  status: ('A' for Active; 'I' for Inactive)
REMARK    1  A    between atoms: C_2  and  O_3 
REMARK    2  A    between atoms: O_3  and  C_4 
REMARK    3  A    between atoms: C_9  and  N_10 
REMARK       I    between atoms: N_10  and  C_11 
REMARK    4  A    between atoms: C_22  and  N_10 
REMARK    5  A    between atoms: C_11  and  C_13 
REMARK    6  A    between atoms: C_16  and  C_17 
REMARK       I    between atoms: C_17  and  N_18 
REMARK    7  A    between atoms: C_20  and  N_21 
REMARK    8  A    between atoms: C_22  and  C_25 
REMARK    9  A    between atoms: C_22  and  C_23 
REMARK       I    between atoms: C_25  and  N_27 
REMARK   10  A    between atoms: N_27  and  C_28 
ROOT
ATOM      1  N   UNL d   1       2.447  -0.595  -2.110  0.00  0.00    -0.297 N 
ATOM      2  C   UNL d   1       2.405   0.823  -2.245  0.00  0.00     0.269 C 
ATOM      3  O   UNL d   1       3.051   1.546  -1.488  0.00  0.00    -0.266 OA
ENDROOT
BRANCH   1   4
ATOM      4  C   UNL d   1       1.738  -1.726  -2.885  0.00  0.00     0.071 C 
ATOM      5  C   UNL d   1       0.983  -1.299  -3.966  0.00  0.00     0.033 C 
ATOM      6  C   UNL d   1      -0.099  -1.944  -4.529  0.00  0.00     0.002 C 
ATOM      7  C   UNL d   1      -0.284  -3.248  -4.220  0.00  0.00     0.003 C 
ATOM      8  C   UNL d   1       0.551  -3.860  -3.287  0.00  0.00     0.039 C 
ATOM      9  C   UNL d   1       1.632  -3.212  -2.595  0.00  0.00     0.095 C 
BRANCH   9  10
ATOM     10  O   UNL d   1       2.412  -4.085  -1.224  0.00  0.00    -0.349 OA
BRANCH  10  11
ATOM     11  C   UNL d   1       2.729  -3.435   0.565  0.00  0.00     0.171 C 
ATOM     12  C   UNL d   1       3.894  -3.844   1.355  0.00  0.00     0.034 C 
ENDBRANCH  10  11
ENDBRANCH   9  10
ENDBRANCH   1   4
BRANCH   1  13
ATOM     13  C   UNL d   1       3.278  -0.889  -0.996  0.00  0.00     0.185 C 
BRANCH  13  14
ATOM     14  C   UNL d   1       2.920  -2.272  -1.057  0.00  0.00     0.241 C 
ATOM     15  O   UNL d   1       3.942  -2.992  -1.389  0.00  0.00    -0.271 OA
ATOM     16  N   UNL d   1       1.262  -2.776  -0.493  0.00  0.00    -0.355 N 
ATOM     17  H   UNL d   1       0.495  -2.127  -0.240  0.00  0.00     0.162 HD
BRANCH  16  18
ATOM     18  C   UNL d   1       0.916  -4.597   0.038  0.00  0.00     0.084 C 
ATOM     19  C   UNL d   1       0.242  -5.362  -1.046  0.00  0.00     0.025 C 
ATOM     20  C   UNL d   1       0.267  -6.853  -0.970  0.00  0.00     0.002 C 
ATOM     21  C   UNL d   1       1.580  -7.203  -0.315  0.00  0.00     0.002 C 
ATOM     22  C   UNL d   1       2.207  -5.888   0.126  0.00  0.00     0.025 C 
ENDBRANCH  16  18
ENDBRANCH  13  14
BRANCH  13  23
ATOM     23  C   UNL d   1       4.833  -0.958  -1.217  0.00  0.00     0.031 C 
ATOM     24  C   UNL d   1       5.538   0.248  -0.732  0.00  0.00     0.007 C 
ENDBRANCH  13  23
ENDBRANCH   1  13
BRANCH   2  25
ATOM     25  C   UNL d   1       1.558   1.434  -3.205  0.00  0.00     0.115 C 
ATOM     26  S   UNL d   1       2.211   2.319  -4.506  0.00  0.00     0.019 SA
ATOM     27  N   UNL d   1       0.775   2.424  -5.362  0.00  0.00    -0.203 NA
ATOM     28  C   UNL d   1      -0.200   1.845  -4.638  0.00  0.00     0.155 C 
ATOM     29  C   UNL d   1       0.198   1.339  -3.344  0.00  0.00     0.065 C 
BRANCH  28  30
ATOM     30  C   UNL d   1      -1.559   1.617  -5.152  0.00  0.00     0.270 C 
ATOM     31  N   UNL d   1      -1.933   2.250  -6.298  0.00  0.00    -0.365 N 
ATOM     32  H   UNL d   1      -1.305   2.854  -6.808  0.00  0.00     0.159 HD
ATOM     33  H   UNL d   1      -2.901   2.156  -6.574  0.00  0.00     0.159 HD
ATOM     34  O   UNL d   1      -2.361   0.868  -4.593  0.00  0.00    -0.266 OA
ENDBRANCH  28  30
BRANCH  29  35
ATOM     35  N   UNL d   1      -0.607   0.592  -2.526  0.00  0.00    -0.299 NA
ATOM     36  H   UNL d   1      -1.426   0.180  -2.997  0.00  0.00     0.124 HD
ATOM     37  H   UNL d   1      -0.184  -0.147  -1.961  0.00  0.00     0.124 HD
ENDBRANCH  29  35
ENDBRANCH   2  25
TORSDOF 10
