REMARK  6 active torsions:
REMARK  status: ('A' for Active; 'I' for Inactive)
REMARK    1  A    between atoms: S_2  and  C_3 
REMARK    2  A    between atoms: C_7  and  N_8 
REMARK       I    between atoms: N_8  and  C_9 
REMARK    3  A    between atoms: C_9  and  C_11 
REMARK    4  A    between atoms: C_11  and  N_13 
REMARK    5  A    between atoms: N_13  and  C_14 
REMARK    6  A    between atoms: C_19  and  C_20 
REMARK       I    between atoms: C_20  and  N_21 
ROOT
ATOM      1  C   UNL d   1       2.717   6.815   0.236  0.00  0.00     0.170 C 
ATOM      2  C   UNL d   1       4.006   7.494   0.652  0.00  0.00     0.042 C 
ENDROOT
BRANCH   1   3
ATOM      3  C   UNL d   1       2.892   5.285   0.392  0.00  0.00     0.244 C 
ATOM      4  N   UNL d   1       3.256   4.811   1.656  0.00  0.00    -0.325 N 
ATOM      5  H   UNL d   1       3.348   5.471   2.419  0.00  0.00     0.169 HD
ATOM      6  O   UNL d   1       2.678   4.583  -0.601  0.00  0.00    -0.271 OA
BRANCH   4   7
ATOM      7  C   UNL d   1       3.463   3.439   1.972  0.00  0.00     0.036 A 
ATOM      8  C   UNL d   1       3.775   3.046   3.279  0.00  0.00     0.029 A 
ATOM      9  C   UNL d   1       3.926   1.681   3.581  0.00  0.00     0.004 A 
ATOM     10  C   UNL d   1       3.785   0.708   2.585  0.00  0.00     0.018 A 
ATOM     11  C   UNL d   1       3.411   1.086   1.304  0.00  0.00     0.002 A 
ATOM     12  C   UNL d   1       3.316   2.441   1.005  0.00  0.00     0.048 A 
BRANCH  11  13
ATOM     13  S   UNL d   1       2.994  -0.107   0.046  0.00  0.00    -0.134 SA
ATOM     14  C   UNL d   1       1.174   0.065   0.051  0.00  0.00     0.095 C 
ENDBRANCH  11  13
ENDBRANCH   4   7
ENDBRANCH   1   3
BRANCH   1  15
ATOM     15  N   UNL d   1       2.388   7.074  -1.184  0.00  0.00    -0.377 N 
ATOM     16  H   UNL d   1       2.195   6.222  -1.719  0.00  0.00     0.160 HD
BRANCH  15  17
ATOM     17  C   UNL d   1       2.082   8.280  -1.767  0.00  0.00     0.029 A 
ATOM     18  C   UNL d   1       0.974   8.398  -2.600  0.00  0.00     0.029 A 
ATOM     19  C   UNL d   1       0.682   9.612  -3.227  0.00  0.00     0.010 A 
ATOM     20  C   UNL d   1       1.426  10.775  -2.957  0.00  0.00    -0.046 A 
ATOM     21  C   UNL d   1       0.940  12.054  -3.552  0.00  0.00     0.049 C 
ATOM     22  C   UNL d   1       2.555  10.685  -2.132  0.00  0.00     0.039 A 
ATOM     23  C   UNL d   1       2.855   9.429  -1.574  0.00  0.00     0.046 A 
BRANCH  22  24
ATOM     24  C   UNL d   1       3.529  11.785  -1.795  0.00  0.00     0.249 C 
ATOM     25  N   UNL d   1       3.390  13.037  -2.314  0.00  0.00    -0.366 N 
ATOM     26  H   UNL d   1       2.649  13.363  -2.905  0.00  0.00     0.159 HD
ATOM     27  H   UNL d   1       4.090  13.725  -2.074  0.00  0.00     0.159 HD
ATOM     28  O   UNL d   1       4.489  11.581  -1.043  0.00  0.00    -0.268 OA
ENDBRANCH  22  24
ENDBRANCH  15  17
ENDBRANCH   1  15
TORSDOF 6
