REMARK  13 active torsions:
REMARK  status: ('A' for Active; 'I' for Inactive)
REMARK    1  A    between atoms: C_2  and  C_3 
REMARK    2  A    between atoms: C_3  and  C_4 
REMARK    3  A    between atoms: C_4  and  N_5 
REMARK       I    between atoms: N_5  and  C_6 
REMARK    4  A    between atoms: C_8  and  C_6 
REMARK    5  A    between atoms: C_8  and  N_18 
REMARK    6  A    between atoms: C_8  and  C_9 
REMARK    7  A    between atoms: C_10  and  O_11 
REMARK    8  A    between atoms: C_13  and  O_14 
REMARK    9  A    between atoms: C_16  and  O_17 
REMARK       I    between atoms: N_18  and  C_19 
REMARK   10  A    between atoms: N_18  and  C_30 
REMARK   11  A    between atoms: C_19  and  C_21 
REMARK   12  A    between atoms: C_21  and  O_22 
REMARK   13  A    between atoms: C_21  and  C_24 
ROOT
ATOM      1  C   UNL d   1       7.032  -2.366  -3.613  0.00  0.00     0.219 C 
ENDROOT
BRANCH   1   2
ATOM      2  N   UNL d   1       8.655  -2.499  -3.684  0.00  0.00    -0.324 N 
ATOM      3  C   UNL d   1       9.477  -1.909  -2.675  0.00  0.00     0.255 C 
ATOM      4  O   UNL d   1      10.694  -1.827  -2.641  0.00  0.00    -0.270 OA
BRANCH   3   5
ATOM      5  C   UNL d   1       8.720  -1.482  -1.498  0.00  0.00     0.245 C 
BRANCH   5   6
ATOM      6  O   UNL d   1       8.317  -2.900  -1.069  0.00  0.00    -0.377 OA
ATOM      7  C   UNL d   1       7.318  -3.910  -1.640  0.00  0.00     0.203 C 
ENDBRANCH   5   6
BRANCH   5   8
ATOM      8  C   UNL d   1       9.508  -0.576  -0.518  0.00  0.00    -0.020 A 
ATOM      9  C   UNL d   1      10.390  -1.168   0.373  0.00  0.00     0.010 A 
ATOM     10  C   UNL d   1      11.069  -0.403   1.321  0.00  0.00     0.001 A 
ATOM     11  C   UNL d   1      10.964   0.989   1.333  0.00  0.00     0.000 A 
ATOM     12  C   UNL d   1      10.136   1.626   0.415  0.00  0.00     0.001 A 
ATOM     13  C   UNL d   1       9.410   0.852  -0.507  0.00  0.00     0.010 A 
ENDBRANCH   5   8
ENDBRANCH   3   5
BRANCH   2  14
ATOM     14  C   UNL d   1       9.408  -3.547  -4.548  0.00  0.00     0.025 C 
ATOM     15  C   UNL d   1       8.941  -5.013  -4.330  0.00  0.00     0.037 C 
ATOM     16  C   UNL d   1       9.415  -3.189  -6.024  0.00  0.00     0.037 C 
ATOM     17  C   UNL d   1      10.936  -3.572  -4.308  0.00  0.00     0.037 C 
ENDBRANCH   2  14
ENDBRANCH   1   2
BRANCH   1  18
ATOM     18  C   UNL d   1       6.218  -1.544  -2.249  0.00  0.00     0.040 A 
ATOM     19  C   UNL d   1       5.943  -0.210  -2.529  0.00  0.00     0.080 A 
ATOM     20  C   UNL d   1       5.371   0.558  -1.510  0.00  0.00     0.073 A 
ATOM     21  C   UNL d   1       5.073   0.081  -0.203  0.00  0.00     0.071 A 
ATOM     22  C   UNL d   1       5.330  -1.168   0.232  0.00  0.00     0.073 A 
ATOM     23  C   UNL d   1       5.933  -1.951  -0.704  0.00  0.00     0.080 A 
BRANCH  19  24
ATOM     24  O   UNL d   1       6.370   0.497  -3.623  0.00  0.00    -0.360 OA
ATOM     25  H   UNL d   1       6.654  -0.045  -4.376  0.00  0.00     0.217 HD
ENDBRANCH  19  24
BRANCH  21  26
ATOM     26  O   UNL d   1       4.552   0.877   0.764  0.00  0.00    -0.361 OA
ATOM     27  H   UNL d   1       4.450   1.740   0.351  0.00  0.00     0.217 HD
ENDBRANCH  21  26
BRANCH  23  28
ATOM     28  O   UNL d   1       6.550  -2.865   0.201  0.00  0.00    -0.360 OA
ATOM     29  H   UNL d   1       6.005  -3.582   0.569  0.00  0.00     0.217 HD
ENDBRANCH  23  28
ENDBRANCH   1  18
BRANCH   1  30
ATOM     30  C   UNL d   1       6.272  -2.066  -4.960  0.00  0.00     0.245 C 
ATOM     31  N   UNL d   1       6.770  -2.745  -6.050  0.00  0.00    -0.359 N 
ATOM     32  H   UNL d   1       7.017  -3.708  -5.880  0.00  0.00     0.162 HD
ATOM     33  O   UNL d   1       5.259  -1.427  -5.053  0.00  0.00    -0.271 OA
BRANCH  31  34
ATOM     34  C   UNL d   1       6.571  -2.254  -7.394  0.00  0.00     0.122 C 
BRANCH  34  35
ATOM     35  C   UNL d   1       7.514  -2.843  -8.456  0.00  0.00     0.019 C 
BRANCH  35  36
ATOM     36  C   UNL d   1       7.125  -2.348  -9.838  0.00  0.00    -0.003 C 
ATOM     37  C   UNL d   1       8.008  -2.959 -10.911  0.00  0.00     0.005 C 
ENDBRANCH  35  36
ENDBRANCH  34  35
ENDBRANCH  31  34
ENDBRANCH   1  30
TORSDOF 13
