REMARK  5 active torsions:
REMARK  status: ('A' for Active; 'I' for Inactive)
REMARK    1  A    between atoms: C_2  and  N_4 
REMARK       I    between atoms: N_4  and  C_5 
REMARK       I    between atoms: C_5  and  N_7 
REMARK    2  A    between atoms: N_7  and  N_8 
REMARK       I    between atoms: N_8  and  C_9 
REMARK    3  A    between atoms: C_9  and  C_11 
REMARK    4  A    between atoms: C_11  and  O_13 
REMARK    5  A    between atoms: O_13  and  C_14 
ROOT
ATOM      1  N   UNL d   1       6.391  -2.954  -1.498  0.00  0.00    -0.264 N 
ATOM      2  C   UNL d   1       6.806  -4.174  -2.044  0.00  0.00     0.265 C 
ATOM      3  O   UNL d   1       5.976  -4.994  -2.443  0.00  0.00    -0.269 OA
ATOM      4  H   UNL d   1       7.019  -2.238  -1.133  0.00  0.00     0.190 HD
ENDROOT
BRANCH   2   5
ATOM      5  C   UNL d   1       8.370  -4.424  -2.118  0.00  0.00     0.218 C 
ATOM      6  C   UNL d   1       8.922  -4.264  -0.702  0.00  0.00     0.050 C 
BRANCH   5   7
ATOM      7  O   UNL d   1       8.655  -5.727  -2.708  0.00  0.00    -0.337 OA
BRANCH   7   8
ATOM      8  C   UNL d   1       9.955  -6.122  -2.932  0.00  0.00     0.071 C 
ATOM      9  C   UNL d   1      10.936  -6.145  -1.939  0.00  0.00     0.037 C 
ATOM     10  C   UNL d   1      12.247  -6.558  -2.189  0.00  0.00     0.004 C 
ATOM     11  C   UNL d   1      12.576  -7.078  -3.429  0.00  0.00     0.024 C 
ATOM     12  C   UNL d   1      11.587  -7.169  -4.407  0.00  0.00     0.036 C 
ATOM     13 CL   UNL d   1      11.994  -7.883  -5.921  0.00  0.00    -0.084 Cl
ATOM     14  C   UNL d   1      10.282  -6.697  -4.167  0.00  0.00     0.060 C 
ENDBRANCH   7   8
ENDBRANCH   5   7
ENDBRANCH   2   5
BRANCH   1  15
ATOM     15  N   UNL d   1       4.991  -2.674  -1.320  0.00  0.00    -0.249 N 
ATOM     16  C   UNL d   1       4.616  -1.456  -0.775  0.00  0.00     0.335 C 
ATOM     17  N   UNL d   1       3.255  -1.271  -0.617  0.00  0.00    -0.338 N 
ATOM     18  O   UNL d   1       5.460  -0.621  -0.437  0.00  0.00    -0.246 OA
ATOM     19  H   UNL d   1       2.618  -1.966  -0.979  0.00  0.00     0.164 HD
ATOM     20  H   UNL d   1       4.343  -3.382  -1.651  0.00  0.00     0.192 HD
BRANCH  17  21
ATOM     21  C   UNL d   1       2.684  -0.038  -0.034  0.00  0.00     0.078 C 
ATOM     22  C   UNL d   1       1.147  -0.011  -0.066  0.00  0.00     0.032 C 
ATOM     23  C   UNL d   1       3.127   0.150   1.419  0.00  0.00     0.032 C 
ENDBRANCH  17  21
ENDBRANCH   1  15
TORSDOF 5
