REMARK  9 active torsions:
REMARK  status: ('A' for Active; 'I' for Inactive)
REMARK    1  A    between atoms: C_2  and  C_3 
REMARK       I    between atoms: C_2  and  N_30 
REMARK    2  A    between atoms: C_3  and  S_4 
REMARK    3  A    between atoms: S_4  and  C_5 
REMARK    4  A    between atoms: N_15  and  N_16 
REMARK       I    between atoms: N_16  and  C_17 
REMARK    5  A    between atoms: C_17  and  C_19 
REMARK    6  A    between atoms: C_19  and  C_20 
REMARK    7  A    between atoms: C_20  and  C_21 
REMARK    8  A    between atoms: N_30  and  C_31 
REMARK    9  A    between atoms: C_32  and  C_31 
ROOT
ATOM      1  C   UNL d   1      11.693  -0.074  -3.952  0.00  0.00     0.274 C 
ATOM      2  N   UNL d   1      12.754  -0.250  -2.977  0.00  0.00    -0.358 N 
ATOM      3  C   UNL d   1      14.088  -0.204  -3.355  0.00  0.00     0.046 A 
ATOM      4  C   UNL d   1      15.117  -0.175  -2.409  0.00  0.00     0.030 A 
ATOM      5  C   UNL d   1      16.463  -0.039  -2.799  0.00  0.00     0.002 A 
ATOM      6  C   UNL d   1      16.810   0.049  -4.144  0.00  0.00     0.001 A 
ATOM      7  C   UNL d   1      15.804   0.043  -5.093  0.00  0.00     0.019 A 
ATOM      8  C   UNL d   1      14.464  -0.048  -4.686  0.00  0.00     0.060 A 
ATOM      9  C   UNL d   1      13.422  -0.015  -5.708  0.00  0.00     0.277 C 
ATOM     10  O   UNL d   1      13.761   0.365  -6.830  0.00  0.00    -0.266 OA
ATOM     11  N   UNL d   1      12.156  -0.442  -5.302  0.00  0.00    -0.221 N 
ATOM     12  H   UNL d   1      12.516  -0.781  -2.147  0.00  0.00     0.162 HD
ENDROOT
BRANCH  11  13
ATOM     13  N   UNL d   1      11.116  -0.618  -6.313  0.00  0.00    -0.262 N 
ATOM     14  C   UNL d   1      11.471  -1.171  -7.543  0.00  0.00     0.236 C 
ATOM     15  O   UNL d   1      12.603  -1.402  -7.954  0.00  0.00    -0.272 OA
ATOM     16  H   UNL d   1      10.231  -0.929  -5.914  0.00  0.00     0.190 HD
BRANCH  14  17
ATOM     17  C   UNL d   1      10.320  -1.575  -8.424  0.00  0.00     0.109 C 
BRANCH  17  18
ATOM     18  C   UNL d   1      10.908  -1.876  -9.816  0.00  0.00     0.046 C 
BRANCH  18  19
ATOM     19  C   UNL d   1       9.912  -2.317 -10.820  0.00  0.00    -0.050 A 
ATOM     20  C   UNL d   1      10.074  -2.291 -12.145  0.00  0.00    -0.006 A 
ATOM     21  C   UNL d   1      11.142  -1.910 -13.008  0.00  0.00     0.014 A 
ATOM     22  C   UNL d   1       8.791  -2.778 -12.677  0.00  0.00     0.038 A 
ATOM     23  C   UNL d   1      10.945  -1.990 -14.333  0.00  0.00     0.001 A 
ATOM     24  C   UNL d   1       9.678  -2.447 -14.889  0.00  0.00     0.002 A 
ATOM     25  C   UNL d   1       8.628  -2.831 -14.138  0.00  0.00     0.030 A 
ATOM     26  N   UNL d   1       7.964  -3.083 -11.750  0.00  0.00    -0.385 N 
ATOM     27  C   UNL d   1       8.572  -2.849 -10.433  0.00  0.00     0.155 A 
ATOM     28  H   UNL d   1       7.021  -3.419 -11.921  0.00  0.00     0.160 HD
ENDBRANCH  18  19
ENDBRANCH  17  18
ENDBRANCH  14  17
ENDBRANCH  11  13
BRANCH   1  29
ATOM     29  S   UNL d   1      10.304  -1.142  -3.421  0.00  0.00    -0.112 SA
BRANCH  29  30
ATOM     30  C   UNL d   1       8.917   0.045  -3.111  0.00  0.00     0.180 C 
BRANCH  30  31
ATOM     31  C   UNL d   1       7.635  -0.748  -2.755  0.00  0.00     0.227 C 
ATOM     32  O   UNL d   1       7.575  -1.977  -2.731  0.00  0.00    -0.273 OA
ATOM     33  N   UNL d   1       6.484  -0.058  -2.475  0.00  0.00    -0.358 N 
ATOM     34  H   UNL d   1       5.688  -0.653  -2.262  0.00  0.00     0.162 HD
BRANCH  33  35
ATOM     35  C   UNL d   1       6.308   1.383  -2.456  0.00  0.00     0.154 C 
BRANCH  35  36
ATOM     36  C   UNL d   1       4.908   1.841  -2.000  0.00  0.00     0.139 C 
ATOM     37  C   UNL d   1       4.940   3.275  -1.487  0.00  0.00     0.035 C 
ATOM     38  C   UNL d   1       4.610   4.088  -2.711  0.00  0.00     0.029 C 
ATOM     39  C   UNL d   1       3.653   3.187  -3.457  0.00  0.00     0.168 C 
ATOM     40  O   UNL d   1       4.009   1.833  -3.129  0.00  0.00    -0.384 OA
ENDBRANCH  35  36
ENDBRANCH  33  35
ENDBRANCH  30  31
ENDBRANCH  29  30
ENDBRANCH   1  29
TORSDOF 9
