REMARK  7 active torsions:
REMARK  status: ('A' for Active; 'I' for Inactive)
REMARK    1  A    between atoms: C_2  and  C_16 
REMARK    2  A    between atoms: C_2  and  S_3 
REMARK    3  A    between atoms: S_3  and  C_4 
REMARK    4  A    between atoms: C_7  and  C_8 
REMARK       I    between atoms: C_16  and  N_18 
REMARK    5  A    between atoms: N_18  and  C_19 
REMARK    6  A    between atoms: C_19  and  C_20 
REMARK       I    between atoms: C_20  and  N_22 
REMARK    7  A    between atoms: N_22  and  C_23 
ROOT
ATOM      1  C   UNL d   1       3.089  -1.102  -1.092  0.00  0.00     0.232 C 
ATOM      2  O   UNL d   1       2.327  -1.793  -1.780  0.00  0.00    -0.272 OA
ATOM      3  N   UNL d   1       4.460  -1.257  -1.242  0.00  0.00    -0.351 N 
ATOM      4  H   UNL d   1       5.119  -0.691  -0.712  0.00  0.00     0.163 HD
ENDROOT
BRANCH   1   5
ATOM      5  C   UNL d   1       2.589  -0.036  -0.049  0.00  0.00     0.143 C 
ATOM      6  C   UNL d   1       3.119  -0.387   1.339  0.00  0.00     0.031 C 
BRANCH   5   7
ATOM      7  S   UNL d   1       0.721   0.035  -0.059  0.00  0.00    -0.076 SA
BRANCH   7   8
ATOM      8  C   UNL d   1       0.285   1.218   1.127  0.00  0.00     0.190 A 
ATOM      9  N   UNL d   1       1.064   1.934   1.899  0.00  0.00    -0.122 NA
ATOM     10  N   UNL d   1       0.259   2.695   2.723  0.00  0.00    -0.129 NA
ATOM     11  C   UNL d   1      -1.003   2.432   2.439  0.00  0.00     0.165 A 
ATOM     12  N   UNL d   1      -1.023   1.520   1.404  0.00  0.00    -0.316 N 
ATOM     13  H   UNL d   1      -1.841   1.159   0.937  0.00  0.00     0.169 HD
BRANCH  11  14
ATOM     14  C   UNL d   1      -2.181   3.019   3.075  0.00  0.00     0.050 A 
ATOM     15  C   UNL d   1      -2.343   4.413   3.124  0.00  0.00     0.018 A 
ATOM     16  C   UNL d   1      -3.473   4.983   3.728  0.00  0.00     0.001 A 
ATOM     17  C   UNL d   1      -4.440   4.169   4.316  0.00  0.00     0.003 A 
ATOM     18  C   UNL d   1      -4.274   2.785   4.306  0.00  0.00     0.043 A 
ATOM     19  C   UNL d   1      -3.156   2.223   3.685  0.00  0.00     0.130 A 
ATOM     20  F   UNL d   1      -3.027   0.888   3.694  0.00  0.00    -0.205 F 
ENDBRANCH  11  14
ENDBRANCH   7   8
ENDBRANCH   5   7
ENDBRANCH   1   5
BRANCH   3  21
ATOM     21  C   UNL d   1       5.053  -2.244  -2.171  0.00  0.00     0.225 C 
BRANCH  21  22
ATOM     22  C   UNL d   1       6.598  -2.224  -2.113  0.00  0.00     0.239 C 
ATOM     23  O   UNL d   1       7.170  -1.432  -1.355  0.00  0.00    -0.271 OA
ATOM     24  N   UNL d   1       7.276  -3.099  -2.968  0.00  0.00    -0.323 N 
ATOM     25  H   UNL d   1       6.781  -3.490  -3.766  0.00  0.00     0.169 HD
BRANCH  24  26
ATOM     26  C   UNL d   1       8.704  -3.151  -3.012  0.00  0.00     0.077 A 
ATOM     27  C   UNL d   1       9.450  -3.111  -1.826  0.00  0.00     0.036 A 
ATOM     28  C   UNL d   1      10.849  -3.127  -1.852  0.00  0.00     0.048 A 
ATOM     29  C   UNL d   1      11.514  -3.177  -3.070  0.00  0.00     0.158 A 
ATOM     30  F   UNL d   1      12.855  -3.172  -3.083  0.00  0.00    -0.203 F 
ATOM     31  C   UNL d   1      10.796  -3.236  -4.257  0.00  0.00     0.195 A 
ATOM     32  F   UNL d   1      11.452  -3.267  -5.427  0.00  0.00    -0.199 F 
ATOM     33  C   UNL d   1       9.397  -3.245  -4.229  0.00  0.00     0.184 A 
ATOM     34  F   UNL d   1       8.719  -3.273  -5.387  0.00  0.00    -0.200 F 
ENDBRANCH  24  26
ENDBRANCH  21  22
ENDBRANCH   3  21
TORSDOF 7
