@<TRIPOS>MOLECULE
*****
 62 65 0 0 0
SMALL
GASTEIGER

@<TRIPOS>ATOM
      1 C           5.7157    8.3341   -7.3266 C.3     1  UNL1       -0.0597
      2 C           5.5785    6.8940   -6.8746 C.3     1  UNL1       -0.0052
      3 C           5.3044    6.7684   -5.3836 C.3     1  UNL1        0.0394
      4 C           4.1408    7.5463   -4.8091 C.ar    1  UNL1        0.1827
      5 N           3.0139    7.8171   -5.4372 N.ar    1  UNL1       -0.1276
      6 N           2.1391    8.3877   -4.5418 N.ar    1  UNL1       -0.1223
      7 C           2.7278    8.4654   -3.3679 C.ar    1  UNL1        0.1925
      8 S           1.9078    8.9818   -1.9052 S.3     1  UNL1       -0.0783
      9 C           3.0085    8.8070   -0.4736 C.3     1  UNL1        0.0613
     10 C           2.4650    9.2942    0.8427 C.2     1  UNL1        0.1676
     11 O           1.3302    9.7458    0.9549 O.2     1  UNL1       -0.2947
     12 C           3.4267    9.1912    2.0141 C.3     1  UNL1        0.1621
     13 C           2.9604    8.0430    2.8631 C.1     1  UNL1        0.0814
     14 N           2.6222    7.1248    3.4532 N.1     1  UNL1       -0.1954
     15 C           3.4709   10.4693    2.8210 C.ar    1  UNL1        0.1326
     16 N           3.5662   10.4056    4.1228 N.ar    1  UNL1       -0.2307
     17 C           3.5788   11.6767    4.5730 C.ar    1  UNL1        0.0892
     18 C           3.5805   12.0650    5.8966 C.ar    1  UNL1       -0.0342
     19 C           3.4575   13.4126    6.1647 C.ar    1  UNL1       -0.0596
     20 C           3.9234   14.3634    5.3058 C.ar    1  UNL1       -0.0597
     21 C           3.7386   14.0470    3.9234 C.ar    1  UNL1       -0.0363
     22 C           3.5967   12.6357    3.5618 C.ar    1  UNL1        0.0662
     23 N           3.4568   11.8212    2.4190 N.ar    1  UNL1       -0.3404
     24 N           4.0407    8.0333   -3.5067 N.ar    1  UNL1       -0.2971
     25 C           4.9483    7.9728   -2.3488 C.3     1  UNL1        0.0520
     26 C           6.3970    7.5872   -2.4105 C.ar    1  UNL1       -0.0276
     27 C           6.8840    6.4432   -1.7110 C.ar    1  UNL1       -0.0569
     28 C           8.0332    5.8035   -2.1895 C.ar    1  UNL1       -0.0614
     29 C           8.7533    6.3844   -3.2345 C.ar    1  UNL1       -0.0617
     30 C           8.3554    7.6086   -3.7818 C.ar    1  UNL1       -0.0614
     31 C           7.2049    8.2442   -3.3312 C.ar    1  UNL1       -0.0569
     32 N           5.3329    5.2614   -5.0122 N.4     1  UNL1        0.2386
     33 C           6.6897    4.6290   -5.2856 C.3     1  UNL1       -0.0427
     34 C           5.0588    5.0680   -3.5841 C.3     1  UNL1       -0.0427
     35 H           5.8897    8.3573   -8.4045 H       1  UNL1        0.0232
     36 H           6.5675    8.8204   -6.8344 H       1  UNL1        0.0232
     37 H           4.8176    8.9089   -7.0997 H       1  UNL1        0.0232
     38 H           6.5540    6.4371   -7.0929 H       1  UNL1        0.0322
     39 H           4.8266    6.3456   -7.4443 H       1  UNL1        0.0322
     40 H           6.1943    7.1947   -4.9714 H       1  UNL1        0.0935
     41 H           3.8826    9.4437   -0.6116 H       1  UNL1        0.0459
     42 H           3.2769    7.7575   -0.3216 H       1  UNL1        0.0459
     43 H           4.4455    8.9398    1.6728 H       1  UNL1        0.0613
     44 H           3.5603   11.3523    6.7020 H       1  UNL1        0.0639
     45 H           2.3831   13.7142    6.1125 H       1  UNL1        0.0618
     46 H           3.8863   15.2897    5.9138 H       1  UNL1        0.0618
     47 H           3.5948   14.8350    3.1828 H       1  UNL1        0.0639
     48 H           3.4061   12.1308    1.4565 H       1  UNL1        0.1671
     49 H           4.4575    7.2417   -1.7040 H       1  UNL1        0.0542
     50 H           4.9690    8.9940   -1.9909 H       1  UNL1        0.0542
     51 H           6.2122    5.8421   -1.0803 H       1  UNL1        0.0621
     52 H           8.2503    4.7715   -1.9007 H       1  UNL1        0.0618
     53 H           9.5434    5.8179   -3.7263 H       1  UNL1        0.0618
     54 H           8.8406    7.9868   -4.6797 H       1  UNL1        0.0618
     55 H           6.8060    9.0942   -3.8883 H       1  UNL1        0.0621
     56 H           4.5847    4.7898   -5.5288 H       1  UNL1        0.2035
     57 H           7.4667    5.2815   -4.8996 H       1  UNL1        0.0778
     58 H           6.8404    4.5148   -6.3532 H       1  UNL1        0.0778
     59 H           6.7491    3.6717   -4.7617 H       1  UNL1        0.0778
     60 H           5.8732    5.6235   -3.2449 H       1  UNL1        0.0778
     61 H           5.2368    4.0735   -3.1827 H       1  UNL1        0.0778
     62 H           4.1387    5.5292   -3.2321 H       1  UNL1        0.0778
@<TRIPOS>UNITY_ATOM_ATTR
32 1
charge 1
@<TRIPOS>BOND
     1     1     2    1
     2     2     3    1
     3     3     4    1
     4     4     5   ar
     5     5     6   ar
     6     6     7   ar
     7     7     8    1
     8     8     9    1
     9     9    10    1
    10    10    11    2
    11    13    14    3
    12    12    15    1
    13    15    16   ar
    14    16    17   ar
    15    17    18   ar
    16    18    19   ar
    17    19    20   ar
    18    20    21   ar
    19    21    22   ar
    20    17    22   ar
    21    22    23   ar
    22    15    23   ar
    23     7    24   ar
    24     4    24   ar
    25    24    25    1
    26    25    26    1
    27    26    27   ar
    28    27    28   ar
    29    28    29   ar
    30    29    30   ar
    31    30    31   ar
    32    26    31   ar
    33     3    32    1
    34    32    33    1
    35    32    34    1
    36    12    13    1
    37    12    10    1
    38     1    35    1
    39     1    36    1
    40     1    37    1
    41     2    38    1
    42     2    39    1
    43     3    40    1
    44     9    41    1
    45     9    42    1
    46    12    43    1
    47    18    44    1
    48    19    45    1
    49    20    46    1
    50    21    47    1
    51    23    48    1
    52    25    49    1
    53    25    50    1
    54    27    51    1
    55    28    52    1
    56    29    53    1
    57    30    54    1
    58    31    55    1
    59    32    56    1
    60    33    57    1
    61    33    58    1
    62    33    59    1
    63    34    60    1
    64    34    61    1
    65    34    62    1
