@<TRIPOS>MOLECULE
*****
 37 38 0 0 0
SMALL
GASTEIGER

@<TRIPOS>ATOM
      1 O           1.1878   -0.1839   -0.1112 O.2     1  UNL1       -0.2743
      2 C           2.4160   -0.1115   -0.0757 C.2     1  UNL1        0.2294
      3 C           3.1424    1.0657    0.5170 C.3     1  UNL1        0.0294
      4 C           2.1664    2.1113    1.0470 C.3     1  UNL1       -0.0194
      5 C           2.8539    3.3156    1.6399 C.ar    1  UNL1       -0.0469
      6 C           3.7979    3.1892    2.6688 C.ar    1  UNL1       -0.0586
      7 C           4.2730    4.3216    3.3295 C.ar    1  UNL1       -0.0615
      8 C           3.8754    5.5903    2.9136 C.ar    1  UNL1       -0.0617
      9 C           2.9732    5.7279    1.8616 C.ar    1  UNL1       -0.0615
     10 C           2.4586    4.5960    1.2334 C.ar    1  UNL1       -0.0586
     11 N           3.1799   -1.1322   -0.5818 N.am    1  UNL1       -0.2351
     12 N           4.6070   -1.2350   -0.6322 N.am    1  UNL1       -0.2455
     13 C           5.1581   -2.3898   -1.2196 C.2     1  UNL1        0.1530
     14 S           4.1327   -3.5942   -1.8148 S.2     1  UNL1       -0.0170
     15 N           6.5667   -2.4332   -1.2574 N.am    1  UNL1       -0.2665
     16 C           7.3399   -3.4783   -1.7932 C.2     1  UNL1        0.2216
     17 O           6.8952   -4.5147   -2.2777 O.2     1  UNL1       -0.2751
     18 C           8.8360   -3.3567   -1.7611 C.3     1  UNL1        0.0360
     19 C           9.6114   -4.1585   -2.8201 C.3     1  UNL1       -0.0412
     20 C           9.6142   -2.6635   -2.8551 C.3     1  UNL1       -0.0412
     21 H           3.7746    1.5116   -0.2574 H       1  UNL1        0.0362
     22 H           3.7753    0.6893    1.3259 H       1  UNL1        0.0362
     23 H           1.5113    1.6839    1.8185 H       1  UNL1        0.0318
     24 H           1.4983    2.4315    0.2356 H       1  UNL1        0.0318
     25 H           4.1504    2.2124    2.9899 H       1  UNL1        0.0620
     26 H           4.9317    4.2129    4.1871 H       1  UNL1        0.0618
     27 H           4.2630    6.4724    3.4150 H       1  UNL1        0.0618
     28 H           2.6430    6.7144    1.5488 H       1  UNL1        0.0618
     29 H           1.7290    4.7170    0.4354 H       1  UNL1        0.0620
     30 H           2.6628   -1.9223   -0.9757 H       1  UNL1        0.1728
     31 H           5.1475   -0.4646   -0.2554 H       1  UNL1        0.1718
     32 H           7.0815   -1.6559   -0.8682 H       1  UNL1        0.1565
     33 H           9.2674   -3.4223   -0.7660 H       1  UNL1        0.0394
     34 H           9.0570   -4.6832   -3.5968 H       1  UNL1        0.0273
     35 H          10.5175   -4.6866   -2.5411 H       1  UNL1        0.0273
     36 H           9.0697   -2.1938   -3.6658 H       1  UNL1        0.0273
     37 H          10.5463   -2.1682   -2.6060 H       1  UNL1        0.0273
@<TRIPOS>BOND
     1     1     2    2
     2     2     3    1
     3     3     4    1
     4     4     5    1
     5     5     6   ar
     6     6     7   ar
     7     7     8   ar
     8     8     9   ar
     9     9    10   ar
    10     5    10   ar
    11     2    11   am
    12    11    12    1
    13    12    13    1
    14    13    14    2
    15    13    15    1
    16    15    16   am
    17    16    17    2
    18    16    18    1
    19    18    19    1
    20    19    20    1
    21    18    20    1
    22     3    21    1
    23     3    22    1
    24     4    23    1
    25     4    24    1
    26     6    25    1
    27     7    26    1
    28     8    27    1
    29     9    28    1
    30    10    29    1
    31    11    30    1
    32    12    31    1
    33    15    32    1
    34    18    33    1
    35    19    34    1
    36    19    35    1
    37    20    36    1
    38    20    37    1
