REMARK  14 active torsions:
REMARK  status: ('A' for Active; 'I' for Inactive)
REMARK    1  A    between atoms: C_2  and  C_3 
REMARK    2  A    between atoms: C_3  and  C_4 
REMARK    3  A    between atoms: C_4  and  O_5 
REMARK    4  A    between atoms: O_5  and  C_6 
REMARK    5  A    between atoms: C_11  and  C_12 
REMARK       I    between atoms: C_12  and  N_14 
REMARK    6  A    between atoms: N_14  and  C_15 
REMARK    7  A    between atoms: C_15  and  N_17 
REMARK    8  A    between atoms: C_23  and  C_24 
REMARK    9  A    between atoms: C_24  and  C_25 
REMARK   10  A    between atoms: C_25  and  O_27 
REMARK   11  A    between atoms: O_27  and  C_28 
REMARK   12  A    between atoms: C_28  and  C_29 
REMARK   13  A    between atoms: C_29  and  C_30 
REMARK   14  A    between atoms: C_30  and  C_31 
ROOT
ATOM      1  N   UNL d   1       3.257   2.040   1.086  0.00  0.00    -0.343 N 
ATOM      2  C   UNL d   1       2.812   2.991   0.022  0.00  0.00     0.146 C 
ATOM      3  C   UNL d   1       1.835   2.339  -0.952  0.00  0.00     0.142 C 
ATOM      4  N   UNL d   1       0.655   1.932  -0.217  0.00  0.00    -0.358 N 
ATOM      5  C   UNL d   1       0.709   1.430   1.063  0.00  0.00     0.241 C 
ATOM      6  O   UNL d   1      -0.326   0.989   1.574  0.00  0.00    -0.271 OA
ATOM      7  C   UNL d   1       2.054   1.527   1.870  0.00  0.00     0.188 C 
ATOM      8  H   UNL d   1      -0.197   1.702  -0.719  0.00  0.00     0.162 HD
ENDROOT
BRANCH   1   9
ATOM      9  C   UNL d   1       4.669   1.962   1.428  0.00  0.00     0.177 C 
ATOM     10  S   UNL d   1       5.710   3.231   0.983  0.00  0.00    -0.041 SA
BRANCH   9  11
ATOM     11  N   UNL d   1       5.165   0.793   2.094  0.00  0.00    -0.299 N 
ATOM     12  C   UNL d   1       6.548   0.399   2.169  0.00  0.00     0.260 C 
ATOM     13  O   UNL d   1       7.475   1.211   2.193  0.00  0.00    -0.267 OA
ATOM     14  H   UNL d   1       4.508   0.079   2.372  0.00  0.00     0.171 HD
BRANCH  12  15
ATOM     15  C   UNL d   1       7.016  -1.048   2.236  0.00  0.00     0.065 A 
ATOM     16  C   UNL d   1       8.392  -1.269   2.511  0.00  0.00     0.020 A 
ATOM     17  C   UNL d   1       8.947  -2.554   2.636  0.00  0.00     0.001 A 
ATOM     18  C   UNL d   1       8.137  -3.667   2.489  0.00  0.00     0.003 A 
ATOM     19  C   UNL d   1       6.808  -3.483   2.121  0.00  0.00     0.038 A 
ATOM     20  C   UNL d   1       6.258  -2.189   1.989  0.00  0.00     0.084 A 
BRANCH  20  21
ATOM     21  O   UNL d   1       4.929  -2.180   1.753  0.00  0.00    -0.350 OA
BRANCH  21  22
ATOM     22  C   UNL d   1       4.534  -1.550   0.551  0.00  0.00     0.175 C 
BRANCH  22  23
ATOM     23  C   UNL d   1       3.038  -1.575   0.691  0.00  0.00     0.026 C 
BRANCH  23  24
ATOM     24  C   UNL d   1       2.451  -0.729  -0.382  0.00  0.00    -0.002 C 
ATOM     25  C   UNL d   1       0.961  -0.931  -0.411  0.00  0.00     0.005 C 
ENDBRANCH  23  24
ENDBRANCH  22  23
ENDBRANCH  21  22
ENDBRANCH  20  21
ENDBRANCH  12  15
ENDBRANCH   9  11
ENDBRANCH   1   9
BRANCH   7  26
ATOM     26  C   UNL d   1       1.544   2.437   2.974  0.00  0.00     0.146 C 
BRANCH  26  27
ATOM     27  C   UNL d   1       2.675   3.061   3.644  0.00  0.00     0.261 C 
ATOM     28  O   UNL d   1       3.797   2.548   3.729  0.00  0.00    -0.265 OA
BRANCH  27  29
ATOM     29  O   UNL d   1       2.349   4.238   4.181  0.00  0.00    -0.321 OA
BRANCH  29  30
ATOM     30  C   UNL d   1       3.536   4.862   4.632  0.00  0.00     0.179 C 
BRANCH  30  31
ATOM     31  C   UNL d   1       3.109   5.880   5.636  0.00  0.00     0.031 C 
BRANCH  31  32
ATOM     32  C   UNL d   1       4.328   6.634   6.099  0.00  0.00     0.041 C 
BRANCH  32  33
ATOM     33  C   UNL d   1       3.941   7.676   7.096  0.00  0.00    -0.058 C 
ATOM     34  C   UNL d   1       3.898   9.017   6.713  0.00  0.00     0.007 C 
ATOM     35  C   UNL d   1       3.745  10.002   7.680  0.00  0.00     0.001 C 
ATOM     36  C   UNL d   1       3.510   9.644   9.007  0.00  0.00     0.000 C 
ATOM     37  C   UNL d   1       3.457   8.301   9.376  0.00  0.00     0.001 C 
ATOM     38  C   UNL d   1       3.673   7.315   8.421  0.00  0.00     0.007 C 
ENDBRANCH  32  33
ENDBRANCH  31  32
ENDBRANCH  30  31
ENDBRANCH  29  30
ENDBRANCH  27  29
ENDBRANCH  26  27
ENDBRANCH   7  26
TORSDOF 14
