REMARK  3 active torsions:
REMARK  status: ('A' for Active; 'I' for Inactive)
REMARK       I    between atoms: C_2  and  N_3 
REMARK    1  A    between atoms: C_12  and  C_2 
REMARK    2  A    between atoms: N_3  and  N_4 
REMARK    3  A    between atoms: N_4  and  C_5 
ROOT
ATOM      1  O   UNL d   1       4.815   1.327  -2.033  0.00  0.00    -0.271 OA
ATOM      2  C   UNL d   1       4.518   0.355  -1.337  0.00  0.00     0.240 C 
ATOM      3  N   UNL d   1       5.396  -0.242  -0.444  0.00  0.00    -0.269 N 
ATOM      4  H   UNL d   1       5.101  -0.920   0.250  0.00  0.00     0.190 HD
ENDROOT
BRANCH   3   5
ATOM      5  N   UNL d   1       6.713   0.165  -0.414  0.00  0.00    -0.298 N 
ATOM      6  H   UNL d   1       6.991   0.960  -0.988  0.00  0.00     0.187 HD
BRANCH   5   7
ATOM      7  C   UNL d   1       7.626  -0.542   0.371  0.00  0.00     0.048 A 
ATOM      8  C   UNL d   1       7.577  -1.937   0.531  0.00  0.00     0.034 A 
ATOM      9  C   UNL d   1       8.494  -2.600   1.356  0.00  0.00     0.044 A 
ATOM     10  C   UNL d   1       9.447  -1.866   2.050  0.00  0.00     0.116 A 
ATOM     11  F   UNL d   1      10.324  -2.498   2.841  0.00  0.00    -0.206 F 
ATOM     12  C   UNL d   1       9.499  -0.484   1.933  0.00  0.00     0.044 A 
ATOM     13  C   UNL d   1       8.591   0.172   1.096  0.00  0.00     0.034 A 
ENDBRANCH   5   7
ENDBRANCH   3   5
BRANCH   2  14
ATOM     14  C   UNL d   1       3.146  -0.322  -1.363  0.00  0.00     0.083 C 
ATOM     15  C   UNL d   1       3.355  -1.840  -1.510  0.00  0.00     0.041 C 
ATOM     16  C   UNL d   1       2.125  -2.600  -1.882  0.00  0.00    -0.030 C 
ATOM     17  C   UNL d   1       1.023  -2.007  -2.358  0.00  0.00    -0.031 C 
ATOM     18  C   UNL d   1       0.922  -0.528  -2.588  0.00  0.00     0.027 C 
ATOM     19  C   UNL d   1       2.267   0.203  -2.509  0.00  0.00     0.018 C 
ENDBRANCH   2  14
TORSDOF 3
