@<TRIPOS>MOLECULE
*****
 61 63 0 0 0
SMALL
GASTEIGER

@<TRIPOS>ATOM
      1 C           1.0746   -0.0137   -0.0336 C.3     1  UNL1        0.0788
      2 O           2.4898    0.1111    0.0686 O.3     1  UNL1       -0.4951
      3 C           3.1626   -0.8185    0.8090 C.ar    1  UNL1        0.1202
      4 C           4.3775   -0.3743    1.3434 C.ar    1  UNL1       -0.0180
      5 C           5.2183   -1.2416    2.0528 C.ar    1  UNL1       -0.0343
      6 C           4.8099   -2.5533    2.2931 C.ar    1  UNL1        0.0507
      7 N           5.6329   -3.4471    3.0270 N.ar    1  UNL1       -0.2703
      8 C           6.0888   -3.4048    4.3426 C.ar    1  UNL1        0.1966
      9 S           5.7824   -2.3234    5.6730 S.3     1  UNL1       -0.0804
     10 C           4.8122   -0.9254    5.1403 C.3     1  UNL1        0.0413
     11 C           4.5487    0.0470    6.2994 C.3     1  UNL1       -0.0240
     12 N           3.7481    1.2225    5.7840 N.4     1  UNL1        0.2292
     13 C           3.4410    2.2440    6.8342 C.3     1  UNL1       -0.0099
     14 C           2.6149    3.3939    6.2562 C.3     1  UNL1        0.0840
     15 O           2.3655    4.3638    7.2586 O.3     1  UNL1       -0.3898
     16 N           6.7701   -4.5010    4.5982 N.ar    1  UNL1       -0.1218
     17 N           6.7891   -5.2804    3.4812 N.ar    1  UNL1       -0.1279
     18 C           6.1452   -4.6474    2.5286 C.ar    1  UNL1        0.1694
     19 C           6.1032   -5.0801    1.1369 C.ar    1  UNL1        0.0196
     20 C           5.5396   -6.3077    0.7873 C.ar    1  UNL1       -0.0508
     21 C           5.5279   -6.7176   -0.5495 C.ar    1  UNL1       -0.0574
     22 C           6.0350   -5.8916   -1.5697 C.ar    1  UNL1       -0.0419
     23 C           5.8797   -6.2914   -3.0447 C.3     1  UNL1       -0.0127
     24 C           6.6130   -7.6159   -3.3268 C.3     1  UNL1       -0.0560
     25 C           4.3781   -6.4639   -3.3624 C.3     1  UNL1       -0.0560
     26 C           6.4359   -5.2222   -4.0114 C.3     1  UNL1       -0.0560
     27 C           6.6363   -4.6823   -1.1889 C.ar    1  UNL1       -0.0574
     28 C           6.6769   -4.2849    0.1452 C.ar    1  UNL1       -0.0508
     29 C           3.6275   -3.0239    1.7008 C.ar    1  UNL1       -0.0343
     30 C           2.8007   -2.1534    0.9723 C.ar    1  UNL1       -0.0180
     31 H           0.7303    0.7166   -0.7746 H       1  UNL1        0.0660
     32 H           0.6131    0.2429    0.9249 H       1  UNL1        0.0660
     33 H           0.7437   -0.9976   -0.3754 H       1  UNL1        0.0660
     34 H           4.6824    0.6557    1.1672 H       1  UNL1        0.0655
     35 H           6.2051   -0.8930    2.3508 H       1  UNL1        0.0639
     36 H           3.8602   -1.2708    4.7297 H       1  UNL1        0.0433
     37 H           5.3781   -0.3775    4.3897 H       1  UNL1        0.0433
     38 H           5.4781    0.4612    6.7078 H       1  UNL1        0.0822
     39 H           3.9590   -0.4084    7.1022 H       1  UNL1        0.0822
     40 H           2.8676    0.8815    5.3721 H       1  UNL1        0.2014
     41 H           4.2671    1.6823    5.0211 H       1  UNL1        0.2014
     42 H           4.3913    2.6124    7.2349 H       1  UNL1        0.0836
     43 H           2.8908    1.7435    7.6376 H       1  UNL1        0.0836
     44 H           1.6608    3.0417    5.8500 H       1  UNL1        0.0610
     45 H           3.1628    3.8866    5.4455 H       1  UNL1        0.0610
     46 H           1.7591    4.0035    7.9315 H       1  UNL1        0.2096
     47 H           5.0989   -6.9525    1.5445 H       1  UNL1        0.0625
     48 H           5.1041   -7.6921   -0.7861 H       1  UNL1        0.0621
     49 H           6.2183   -8.4428   -2.7263 H       1  UNL1        0.0238
     50 H           7.6834   -7.5309   -3.1079 H       1  UNL1        0.0238
     51 H           6.5078   -7.9047   -4.3793 H       1  UNL1        0.0238
     52 H           3.9158   -7.2546   -2.7607 H       1  UNL1        0.0238
     53 H           4.2242   -6.7290   -4.4142 H       1  UNL1        0.0238
     54 H           3.8244   -5.5380   -3.1649 H       1  UNL1        0.0238
     55 H           7.5107   -5.0662   -3.8583 H       1  UNL1        0.0238
     56 H           5.9304   -4.2583   -3.8707 H       1  UNL1        0.0238
     57 H           6.2952   -5.5106   -5.0579 H       1  UNL1        0.0238
     58 H           7.0858   -4.0120   -1.9155 H       1  UNL1        0.0621
     59 H           7.1655   -3.3455    0.3912 H       1  UNL1        0.0625
     60 H           3.3350   -4.0711    1.7772 H       1  UNL1        0.0639
     61 H           1.9088   -2.5630    0.5062 H       1  UNL1        0.0655
@<TRIPOS>UNITY_ATOM_ATTR
12 1
charge 1
@<TRIPOS>BOND
     1     1     2    1
     2     2     3    1
     3     3     4   ar
     4     4     5   ar
     5     5     6   ar
     6     6     7    1
     7     7     8   ar
     8     8     9    1
     9     9    10    1
    10    10    11    1
    11    11    12    1
    12    12    13    1
    13    13    14    1
    14    14    15    1
    15     8    16   ar
    16    16    17   ar
    17    17    18   ar
    18     7    18   ar
    19    18    19    1
    20    19    20   ar
    21    20    21   ar
    22    21    22   ar
    23    22    23    1
    24    23    24    1
    25    23    25    1
    26    23    26    1
    27    22    27   ar
    28    27    28   ar
    29    19    28   ar
    30     6    29   ar
    31    29    30   ar
    32     3    30   ar
    33     1    31    1
    34     1    32    1
    35     1    33    1
    36     4    34    1
    37     5    35    1
    38    10    36    1
    39    10    37    1
    40    11    38    1
    41    11    39    1
    42    12    40    1
    43    12    41    1
    44    13    42    1
    45    13    43    1
    46    14    44    1
    47    14    45    1
    48    15    46    1
    49    20    47    1
    50    21    48    1
    51    24    49    1
    52    24    50    1
    53    24    51    1
    54    25    52    1
    55    25    53    1
    56    25    54    1
    57    26    55    1
    58    26    56    1
    59    26    57    1
    60    27    58    1
    61    28    59    1
    62    29    60    1
    63    30    61    1
