REMARK  5 active torsions:
REMARK  status: ('A' for Active; 'I' for Inactive)
REMARK    1  A    between atoms: C_2  and  N_3 
REMARK    2  A    between atoms: N_3  and  N_4 
REMARK    3  A    between atoms: N_3  and  C_17 
REMARK       I    between atoms: N_4  and  C_5 
REMARK    4  A    between atoms: C_5  and  C_7 
REMARK    5  A    between atoms: C_7  and  C_8 
ROOT
ATOM      1  N   UNL d   1       1.977  -1.695  -1.877  0.00  0.00    -0.171 NA
ATOM      2  C   UNL d   1       0.632  -1.910  -1.530  0.00  0.00     0.219 C 
ATOM      3  O   UNL d   1       0.120  -1.610  -0.444  0.00  0.00    -0.278 OA
ATOM      4  H   UNL d   1       2.403  -2.497  -2.344  0.00  0.00     0.156 HD
ENDROOT
BRANCH   2   5
ATOM      5  C   UNL d   1      -0.339  -2.604  -2.474  0.00  0.00     0.139 C 
BRANCH   5   6
ATOM      6  C   UNL d   1      -1.783  -2.146  -2.148  0.00  0.00    -0.022 A 
ATOM      7  C   UNL d   1      -2.856  -2.956  -1.806  0.00  0.00     0.096 A 
ATOM      8  N   UNL d   1      -3.917  -2.161  -1.439  0.00  0.00    -0.365 N 
ATOM      9  C   UNL d   1      -3.584  -0.830  -1.534  0.00  0.00     0.042 A 
ATOM     10  H   UNL d   1      -4.815  -2.501  -1.120  0.00  0.00     0.165 HD
ATOM     11  C   UNL d   1      -4.340   0.329  -1.267  0.00  0.00     0.030 A 
ATOM     12  C   UNL d   1      -2.256  -0.783  -1.963  0.00  0.00    -0.001 A 
ATOM     13  C   UNL d   1      -3.717   1.574  -1.417  0.00  0.00     0.002 A 
ATOM     14  C   UNL d   1      -2.381   1.656  -1.784  0.00  0.00     0.001 A 
ATOM     15  C   UNL d   1      -1.656   0.492  -2.067  0.00  0.00     0.014 A 
ENDBRANCH   5   6
ENDBRANCH   2   5
BRANCH   1  16
ATOM     16  N   UNL d   1       2.937  -1.133  -0.881  0.00  0.00    -0.306 N 
BRANCH  16  17
ATOM     17  C   UNL d   1       2.672   0.092  -0.050  0.00  0.00     0.139 C 
ATOM     18  C   UNL d   1       1.241   0.427   0.233  0.00  0.00     0.028 C 
ENDBRANCH  16  17
BRANCH  16  19
ATOM     19  C   UNL d   1       4.343  -1.272  -1.158  0.00  0.00     0.046 A 
ATOM     20  C   UNL d   1       5.255  -1.248  -0.079  0.00  0.00     0.031 A 
ATOM     21  C   UNL d   1       6.639  -1.391  -0.245  0.00  0.00     0.009 A 
ATOM     22  C   UNL d   1       7.181  -1.557  -1.516  0.00  0.00    -0.062 A 
ATOM     23  C   UNL d   1       8.665  -1.711  -1.697  0.00  0.00     0.048 C 
ATOM     24  C   UNL d   1       6.304  -1.568  -2.609  0.00  0.00     0.009 A 
ATOM     25  C   UNL d   1       4.905  -1.430  -2.434  0.00  0.00     0.031 A 
ENDBRANCH  16  19
ENDBRANCH   1  16
TORSDOF 5
