@<TRIPOS>MOLECULE
*****
 51 55 0 0 0
SMALL
GASTEIGER

@<TRIPOS>ATOM
      1 O          -1.5324   -0.1171    0.6151 O.3     1  UNL1       -0.3823
      2 C          -0.7866   -0.0820   -0.6327 C.3     1  UNL1        0.1109
      3 C          -1.7046   -0.1851   -1.8337 C.ar    1  UNL1        0.1142
      4 C          -2.7418    0.6358   -1.9709 C.ar    1  UNL1        0.0515
      5 N          -3.3929    0.5170   -3.1112 N.ar    1  UNL1       -0.2511
      6 C          -4.4199    1.4500   -3.5490 C.3     1  UNL1        0.0461
      7 C          -4.6252    2.7459   -2.5890 C.3     1  UNL1       -0.0185
      8 C          -3.3800    3.6805   -2.5077 C.3     1  UNL1       -0.0326
      9 C          -2.1009    3.3331   -1.4171 C.3     1  UNL1        0.0139
     10 N          -2.4407    2.8301    0.3059 N.pl3   1  UNL1       -0.3133
     11 C          -1.6161    3.0415    1.8755 C.ar    1  UNL1        0.1523
     12 N          -2.8663    2.8526    2.2537 N.ar    1  UNL1       -0.2184
     13 C          -3.1902    3.8874    2.9004 C.ar    1  UNL1        0.1205
     14 N          -3.5578    3.4595    4.0588 N.ar    1  UNL1       -0.2162
     15 C          -2.4083    3.0940    4.6081 C.ar    1  UNL1        0.1627
     16 N          -2.3281    3.1951    5.9927 N.ar    1  UNL1       -0.3292
     17 C          -1.1645    3.8517    6.3035 C.ar    1  UNL1        0.0957
     18 N          -0.4801    3.9392    5.0620 N.ar    1  UNL1       -0.2308
     19 C          -1.2574    3.1146    3.7643 C.ar    1  UNL1        0.1474
     20 C          -4.0670    2.0753    0.1011 C.3     1  UNL1        0.0139
     21 C          -5.0945    2.5613   -1.1090 C.3     1  UNL1       -0.0326
     22 N          -2.8047   -0.5039   -3.7550 N.ar    1  UNL1       -0.0654
     23 N          -1.7760   -0.9539   -2.9671 N.ar    1  UNL1       -0.1316
     24 C           0.1550    1.1512   -0.5486 C.3     1  UNL1       -0.0183
     25 C           1.2589    0.7261    0.4221 C.3     1  UNL1       -0.0500
     26 C           1.2620   -0.7996    0.3951 C.3     1  UNL1       -0.0500
     27 C           0.1946   -1.2198   -0.6059 C.3     1  UNL1       -0.0183
     28 H          -2.0482    0.7129    0.7021 H       1  UNL1        0.2107
     29 H          -2.8744    1.4306   -1.3482 H       1  UNL1        0.0846
     30 H          -5.3611    0.8885   -3.6577 H       1  UNL1        0.0512
     31 H          -4.1593    1.7956   -4.5651 H       1  UNL1        0.0512
     32 H          -5.4586    3.2821   -3.1221 H       1  UNL1        0.0319
     33 H          -3.7166    4.7034   -2.3259 H       1  UNL1        0.0284
     34 H          -3.0237    3.6947   -3.5679 H       1  UNL1        0.0284
     35 H          -1.1927    3.9084   -1.5907 H       1  UNL1        0.0464
     36 H          -1.7327    2.5006   -2.0529 H       1  UNL1        0.0464
     37 H          -2.4102    4.7348    2.8089 H       1  UNL1        0.1048
     38 H          -3.1273    3.0771    6.6190 H       1  UNL1        0.1682
     39 H          -1.0621    4.1449    7.4289 H       1  UNL1        0.1027
     40 H          -4.5473    1.8040    1.0326 H       1  UNL1        0.0464
     41 H          -4.0018    1.0213   -0.2366 H       1  UNL1        0.0464
     42 H          -5.5377    3.5090   -0.7908 H       1  UNL1        0.0284
     43 H          -5.9516    1.8584   -1.1982 H       1  UNL1        0.0284
     44 H          -0.2871    2.0610   -0.1438 H       1  UNL1        0.0297
     45 H           0.5761    1.4306   -1.5193 H       1  UNL1        0.0297
     46 H           1.0421    1.0820    1.4396 H       1  UNL1        0.0266
     47 H           2.2275    1.1493    0.1369 H       1  UNL1        0.0266
     48 H           1.0175   -1.1919    1.3884 H       1  UNL1        0.0266
     49 H           2.2375   -1.2002    0.1114 H       1  UNL1        0.0266
     50 H          -0.3030   -2.1442   -0.3074 H       1  UNL1        0.0297
     51 H           0.6317   -1.3443   -1.6013 H       1  UNL1        0.0297
@<TRIPOS>BOND
     1     1     2    1
     2     2     3    1
     3     3     4   ar
     4     4     5   ar
     5     5     6    1
     6     6     7    1
     7     7     8    1
     8     8     9    1
     9     9    10    1
    10    10    11    1
    11    11    12   ar
    12    12    13   ar
    13    13    14   ar
    14    14    15   ar
    15    15    16   ar
    16    16    17   ar
    17    17    18   ar
    18    18    19   ar
    19    11    19   ar
    20    15    19   ar
    21    10    20    1
    22    20    21    1
    23     7    21    1
    24     5    22   ar
    25    22    23   ar
    26     3    23   ar
    27     2    24    1
    28    24    25    1
    29    25    26    1
    30    26    27    1
    31     2    27    1
    32     1    28    1
    33     4    29    1
    34     6    30    1
    35     6    31    1
    36     7    32    1
    37     8    33    1
    38     8    34    1
    39     9    35    1
    40     9    36    1
    41    13    37    1
    42    16    38    1
    43    17    39    1
    44    20    40    1
    45    20    41    1
    46    21    42    1
    47    21    43    1
    48    24    44    1
    49    24    45    1
    50    25    46    1
    51    25    47    1
    52    26    48    1
    53    26    49    1
    54    27    50    1
    55    27    51    1
