REMARK  5 active torsions:
REMARK  status: ('A' for Active; 'I' for Inactive)
REMARK    1  A    between atoms: C_5  and  N_6 
REMARK       I    between atoms: N_6  and  C_7 
REMARK    2  A    between atoms: C_7  and  C_9 
REMARK    3  A    between atoms: C_9  and  N_10 
REMARK    4  A    between atoms: C_9  and  C_21 
REMARK    5  A    between atoms: N_10  and  C_11 
ROOT
ATOM      1  C   UNL d   1      -5.537   1.313  -0.093  0.00  0.00     0.208 C 
ENDROOT
BRANCH   1   2
ATOM      2  C   UNL d   1      -3.966   1.204  -0.055  0.00  0.00     0.249 C 
ATOM      3  N   UNL d   1      -3.275   0.010  -0.048  0.00  0.00    -0.325 N 
ATOM      4  H   UNL d   1      -3.775  -0.870  -0.058  0.00  0.00     0.169 HD
ATOM      5  O   UNL d   1      -3.306   2.236  -0.017  0.00  0.00    -0.270 OA
BRANCH   3   6
ATOM      6  C   UNL d   1      -1.828  -0.011  -0.014  0.00  0.00     0.034 A 
ATOM      7  C   UNL d   1      -1.148  -1.225  -0.004  0.00  0.00     0.030 A 
ATOM      8  C   UNL d   1       0.264  -1.248   0.004  0.00  0.00     0.009 A 
ATOM      9  C   UNL d   1       1.020  -0.067   0.003  0.00  0.00    -0.062 A 
ATOM     10  C   UNL d   1       2.514  -0.042  -0.013  0.00  0.00     0.048 C 
ATOM     11  C   UNL d   1       0.358   1.141   0.007  0.00  0.00     0.009 A 
ATOM     12  C   UNL d   1      -1.028   1.155   0.003  0.00  0.00     0.030 A 
ENDBRANCH   3   6
ENDBRANCH   1   2
BRANCH   1  13
ATOM     13  N   UNL d   1      -6.045   0.687  -1.361  0.00  0.00    -0.373 N 
ATOM     14  H   UNL d   1      -5.354   0.228  -1.945  0.00  0.00     0.161 HD
BRANCH  13  15
ATOM     15  C   UNL d   1      -7.372   0.481  -1.705  0.00  0.00     0.029 C 
ATOM     16  C   UNL d   1      -8.298   1.543  -1.758  0.00  0.00     0.030 C 
ATOM     17  C   UNL d   1      -9.686   1.403  -1.833  0.00  0.00     0.012 C 
ATOM     18  C   UNL d   1     -10.148   0.155  -2.132  0.00  0.00    -0.025 A 
ATOM     19  C   UNL d   1      -9.233  -0.890  -2.267  0.00  0.00     0.042 A 
ATOM     20  C   UNL d   1     -11.527  -0.300  -2.446  0.00  0.00     0.162 A 
ATOM     21  C   UNL d   1      -7.867  -0.774  -2.030  0.00  0.00     0.046 C 
ATOM     22  C   UNL d   1      -9.978  -2.054  -2.717  0.00  0.00     0.252 A 
ATOM     23  O   UNL d   1      -9.490  -3.149  -2.954  0.00  0.00    -0.268 OA
ATOM     24  N   UNL d   1     -11.296  -1.676  -2.833  0.00  0.00    -0.353 N 
ATOM     25  H   UNL d   1     -11.989  -2.340  -3.150  0.00  0.00     0.163 HD
ENDBRANCH  13  15
ENDBRANCH   1  13
BRANCH   1  26
ATOM     26  C   UNL d   1      -6.002   2.805   0.090  0.00  0.00    -0.026 C 
ATOM     27  C   UNL d   1      -7.339   3.106   0.371  0.00  0.00     0.010 C 
ATOM     28  C   UNL d   1      -7.847   4.401   0.157  0.00  0.00     0.001 C 
ATOM     29  C   UNL d   1      -6.994   5.476  -0.047  0.00  0.00     0.000 C 
ATOM     30  C   UNL d   1      -5.640   5.249  -0.068  0.00  0.00     0.001 C 
ATOM     31  C   UNL d   1      -5.175   3.941  -0.059  0.00  0.00     0.010 C 
ENDBRANCH   1  26
TORSDOF 5
