REMARK  5 active torsions:
REMARK  status: ('A' for Active; 'I' for Inactive)
REMARK    1  A    between atoms: C_2  and  C_4 
REMARK    2  A    between atoms: C_8  and  N_9 
REMARK    3  A    between atoms: N_9  and  C_10 
REMARK    4  A    between atoms: C_10  and  C_12 
REMARK       I    between atoms: C_12  and  N_14 
REMARK       I    between atoms: N_14  and  C_15 
REMARK       I    between atoms: C_15  and  N_17 
REMARK    5  A    between atoms: N_17  and  C_18 
ROOT
ATOM      1  C   UNL d   1       1.988  -4.311   5.123  0.00  0.00     0.247 C 
ATOM      2  O   UNL d   1       2.840  -4.266   6.018  0.00  0.00    -0.271 OA
ATOM      3  N   UNL d   1       0.917  -5.217   5.104  0.00  0.00    -0.277 N 
ATOM      4  C   UNL d   1       0.757  -6.172   6.098  0.00  0.00     0.327 C 
ATOM      5  O   UNL d   1       1.544  -6.273   7.045  0.00  0.00    -0.247 OA
ATOM      6  N   UNL d   1      -0.327  -7.039   5.961  0.00  0.00    -0.309 N 
ATOM      7  H   UNL d   1       0.241  -5.174   4.357  0.00  0.00     0.173 HD
ATOM      8  H   UNL d   1      -0.816  -7.128   5.082  0.00  0.00     0.170 HD
ENDROOT
BRANCH   1   9
ATOM      9  C   UNL d   1       2.108  -3.289   3.946  0.00  0.00     0.170 C 
ATOM     10  C   UNL d   1       2.296  -4.048   2.630  0.00  0.00     0.042 C 
BRANCH   9  11
ATOM     11  N   UNL d   1       3.255  -2.371   4.190  0.00  0.00    -0.377 N 
ATOM     12  H   UNL d   1       3.840  -2.619   4.993  0.00  0.00     0.160 HD
BRANCH  11  13
ATOM     13  C   UNL d   1       3.647  -1.334   3.362  0.00  0.00     0.029 A 
ATOM     14  C   UNL d   1       4.836  -0.626   3.578  0.00  0.00     0.029 A 
ATOM     15  C   UNL d   1       5.275   0.354   2.669  0.00  0.00     0.003 A 
ATOM     16  C   UNL d   1       4.524   0.649   1.530  0.00  0.00     0.015 A 
ATOM     17  C   UNL d   1       3.344  -0.048   1.301  0.00  0.00     0.011 A 
ATOM     18  C   UNL d   1       2.894  -0.975   2.241  0.00  0.00     0.044 A 
BRANCH  17  19
ATOM     19  C   UNL d   1       2.623   0.079   0.009  0.00  0.00     0.155 C 
ATOM     20  C   UNL d   1       1.117   0.013   0.017  0.00  0.00     0.096 C 
ATOM     21  O   UNL d   1       3.264   0.207  -1.032  0.00  0.00    -0.293 OA
ENDBRANCH  17  19
ENDBRANCH  11  13
ENDBRANCH   9  11
ENDBRANCH   1   9
BRANCH   6  22
ATOM     22  C   UNL d   1      -0.642  -8.025   6.959  0.00  0.00     0.036 A 
ATOM     23  C   UNL d   1      -1.169  -9.274   6.604  0.00  0.00     0.030 A 
ATOM     24  C   UNL d   1      -1.564 -10.199   7.595  0.00  0.00     0.009 A 
ATOM     25  C   UNL d   1      -1.398  -9.914   8.955  0.00  0.00    -0.062 A 
ATOM     26  C   UNL d   1      -1.714 -10.929  10.018  0.00  0.00     0.048 C 
ATOM     27  C   UNL d   1      -0.875  -8.670   9.309  0.00  0.00     0.009 A 
ATOM     28  C   UNL d   1      -0.494  -7.746   8.324  0.00  0.00     0.030 A 
ENDBRANCH   6  22
TORSDOF 5
