@<TRIPOS>MOLECULE
*****
 66 69 0 0 0
SMALL
GASTEIGER

@<TRIPOS>ATOM
      1 C           1.1466   -0.3642    0.1153 C.3     1  UNL1       -0.0108
      2 C           2.6318   -0.0352    0.1633 C.3     1  UNL1        0.0878
      3 N           3.0026    1.3908   -0.2719 N.pl3   1  UNL1       -0.3882
      4 C           2.1383    2.6444   -0.0568 C.3     1  UNL1        0.0878
      5 C           0.6311    2.4344   -0.0835 C.3     1  UNL1       -0.0108
      6 C           4.5207    1.6592   -0.1190 C.ar    1  UNL1        0.1449
      7 C           5.4415    0.9545   -0.9176 C.ar    1  UNL1        0.0057
      8 C           6.8655    1.2184   -0.9302 C.ar    1  UNL1       -0.0283
      9 C           7.4318    2.2207   -0.1311 C.ar    1  UNL1        0.0895
     10 N           8.8856    2.5629   -0.1043 N.ar    1  UNL1       -0.1489
     11 N           9.0991    3.5637    0.6988 N.ar    1  UNL1       -0.1471
     12 C          10.3661    3.7957    0.7196 C.ar    1  UNL1        0.1135
     13 C          10.8838    4.7850    1.5207 C.ar    1  UNL1       -0.0277
     14 C          12.2433    5.0224    1.4588 C.ar    1  UNL1       -0.0271
     15 C          12.5876    6.1355    2.3884 C.3     1  UNL1       -0.0379
     16 C          13.1137    4.2948    0.5990 C.ar    1  UNL1        0.0386
     17 N          14.5441    4.6556    0.5474 N.am    1  UNL1       -0.2828
     18 C          15.2917    5.5766    1.3436 C.2     1  UNL1        0.2506
     19 O          14.8851    6.4092    2.1725 O.2     1  UNL1       -0.2722
     20 C          16.8152    5.6340    1.2739 C.3     1  UNL1        0.1592
     21 O          17.1350    6.3419    0.0709 O.3     1  UNL1       -0.3659
     22 C          18.4500    6.8825    0.0684 C.3     1  UNL1        0.0379
     23 C          17.5193    4.3156    1.4720 C.ar    1  UNL1       -0.0099
     24 C          18.9161    4.2923    1.6009 C.ar    1  UNL1       -0.0529
     25 C          19.6061    3.0936    1.5327 C.ar    1  UNL1       -0.0261
     26 C          18.8922    1.9086    1.4587 C.ar    1  UNL1        0.1234
     27 F          19.5472    0.7474    1.3859 F       1  UNL1       -0.2055
     28 C          17.5092    1.9008    1.5025 C.ar    1  UNL1       -0.0261
     29 C          16.8294    3.1029    1.5508 C.ar    1  UNL1       -0.0529
     30 C          12.5403    3.1815   -0.2403 C.ar    1  UNL1       -0.0109
     31 C          11.0734    2.9361   -0.1701 C.ar    1  UNL1        0.1149
     32 N          10.0799    2.0980   -0.7185 N.ar    1  UNL1       -0.1470
     33 C           6.4778    2.9521    0.7126 C.ar    1  UNL1       -0.0173
     34 C           6.7741    4.0998    1.6933 C.3     1  UNL1       -0.0374
     35 C           5.0623    2.6430    0.7035 C.ar    1  UNL1        0.0086
     36 H           0.9433   -1.4379    0.1673 H       1  UNL1        0.0289
     37 H           0.7025   -0.0414   -0.8293 H       1  UNL1        0.0289
     38 H           0.6253    0.0635    0.9736 H       1  UNL1        0.0289
     39 H           3.0932   -0.6768   -0.5980 H       1  UNL1        0.0965
     40 H           3.0730   -0.2756    1.1354 H       1  UNL1        0.0965
     41 H           2.9161    1.3027   -1.2888 H       1  UNL1        0.3743
     42 H           2.3824    3.2848   -0.9131 H       1  UNL1        0.0965
     43 H           2.4110    3.1618    0.8654 H       1  UNL1        0.0965
     44 H           0.3183    1.8724   -0.9654 H       1  UNL1        0.0289
     45 H           0.0767    3.3766   -0.1322 H       1  UNL1        0.0289
     46 H           0.2888    1.9626    0.8403 H       1  UNL1        0.0289
     47 H           5.0707    0.1661   -1.5701 H       1  UNL1        0.0682
     48 H           7.4856    0.6195   -1.5948 H       1  UNL1        0.0641
     49 H          10.2195    5.3594    2.1495 H       1  UNL1        0.0643
     50 H          11.7427    6.5685    2.9257 H       1  UNL1        0.0278
     51 H          12.9635    6.9659    1.7840 H       1  UNL1        0.0278
     52 H          13.2236    5.7261    3.1806 H       1  UNL1        0.0278
     53 H          15.1034    4.1293   -0.1196 H       1  UNL1        0.1549
     54 H          17.1109    6.2604    2.1388 H       1  UNL1        0.0744
     55 H          18.5622    7.5850   -0.7575 H       1  UNL1        0.0524
     56 H          19.1490    6.0717   -0.1328 H       1  UNL1        0.0524
     57 H          18.7006    7.3910    1.0091 H       1  UNL1        0.0524
     58 H          19.4901    5.2087    1.7240 H       1  UNL1        0.0622
     59 H          20.6893    3.0904    1.5248 H       1  UNL1        0.0646
     60 H          16.9529    0.9721    1.4937 H       1  UNL1        0.0646
     61 H          15.7523    3.0474    1.6566 H       1  UNL1        0.0622
     62 H          13.1695    2.5680   -0.8812 H       1  UNL1        0.0659
     63 H           7.7767    4.4821    1.8310 H       1  UNL1        0.0278
     64 H           6.4944    3.7910    2.7044 H       1  UNL1        0.0278
     65 H           6.2193    4.9942    1.3918 H       1  UNL1        0.0278
     66 H           4.4333    3.2358    1.3685 H       1  UNL1        0.0684
@<TRIPOS>UNITY_ATOM_ATTR
3 1
charge 1
@<TRIPOS>BOND
     1     1     2    1
     2     2     3    1
     3     3     4    1
     4     4     5    1
     5     3     6    1
     6     6     7   ar
     7     7     8   ar
     8     8     9   ar
     9     9    10    1
    10    10    11   ar
    11    11    12   ar
    12    12    13   ar
    13    13    14   ar
    14    14    15    1
    15    14    16   ar
    16    16    17    1
    17    17    18   am
    18    18    19    2
    19    18    20    1
    20    20    21    1
    21    21    22    1
    22    20    23    1
    23    23    24   ar
    24    24    25   ar
    25    25    26   ar
    26    26    27    1
    27    26    28   ar
    28    28    29   ar
    29    23    29   ar
    30    16    30   ar
    31    30    31   ar
    32    12    31   ar
    33    31    32   ar
    34    10    32   ar
    35     9    33   ar
    36    33    34    1
    37    33    35   ar
    38     6    35   ar
    39     1    36    1
    40     1    37    1
    41     1    38    1
    42     2    39    1
    43     2    40    1
    44     3    41    1
    45     4    42    1
    46     4    43    1
    47     5    44    1
    48     5    45    1
    49     5    46    1
    50     7    47    1
    51     8    48    1
    52    13    49    1
    53    15    50    1
    54    15    51    1
    55    15    52    1
    56    17    53    1
    57    20    54    1
    58    22    55    1
    59    22    56    1
    60    22    57    1
    61    24    58    1
    62    25    59    1
    63    28    60    1
    64    29    61    1
    65    30    62    1
    66    34    63    1
    67    34    64    1
    68    34    65    1
    69    35    66    1
