REMARK  9 active torsions:
REMARK  status: ('A' for Active; 'I' for Inactive)
REMARK    1  A    between atoms: O_2  and  C_3 
REMARK    2  A    between atoms: C_6  and  N_7 
REMARK    3  A    between atoms: N_7  and  C_8 
REMARK    4  A    between atoms: C_9  and  C_10 
REMARK    5  A    between atoms: C_10  and  C_12 
REMARK    6  A    between atoms: C_15  and  C_16 
REMARK    7  A    between atoms: C_16  and  N_17 
REMARK    8  A    between atoms: N_17  and  C_18 
REMARK    9  A    between atoms: C_21  and  C_22 
ROOT
ATOM      1  C   UNL d   1       5.942  -6.675  -7.188  0.00  0.00     0.114 C 
ATOM      2  N   UNL d   1       6.213  -6.632  -8.451  0.00  0.00    -0.134 NA
ATOM      3  O   UNL d   1       6.793  -7.869  -8.807  0.00  0.00    -0.249 OA
ATOM      4  C   UNL d   1       6.708  -8.769  -7.692  0.00  0.00     0.178 C 
ATOM      5  C   UNL d   1       6.298  -7.930  -6.493  0.00  0.00     0.102 C 
ENDROOT
BRANCH   4   6
ATOM      6  C   UNL d   1       5.728  -9.933  -7.982  0.00  0.00     0.156 C 
BRANCH   6   7
ATOM      7  N   UNL d   1       5.431 -10.108  -9.403  0.00  0.00    -0.372 N 
ATOM      8  H   UNL d   1       6.089  -9.662 -10.051  0.00  0.00     0.161 HD
BRANCH   7   9
ATOM      9  C   UNL d   1       4.708 -11.173  -9.890  0.00  0.00     0.123 A 
ATOM     10  N   UNL d   1       3.546 -11.486  -9.289  0.00  0.00    -0.350 N 
ATOM     11  C   UNL d   1       2.814 -12.572  -9.590  0.00  0.00     0.106 A 
ATOM     12  H   UNL d   1       3.208 -10.830  -8.590  0.00  0.00     0.166 HD
ATOM     13  C   UNL d   1       3.200 -13.406 -10.635  0.00  0.00     0.065 A 
ATOM     14  C   UNL d   1       4.334 -13.060 -11.374  0.00  0.00     0.045 A 
ATOM     15  C   UNL d   1       5.116 -11.978 -10.971  0.00  0.00     0.078 A 
ATOM     16 CL   UNL d   1       6.619 -11.704 -11.765  0.00  0.00    -0.080 Cl
BRANCH  13  17
ATOM     17  C   UNL d   1       2.430 -14.673 -10.896  0.00  0.00     0.418 C 
ATOM     18  F   UNL d   1       2.464 -15.489  -9.810  0.00  0.00    -0.166 F 
ATOM     19  F   UNL d   1       1.122 -14.427 -11.148  0.00  0.00    -0.166 F 
ATOM     20  F   UNL d   1       2.911 -15.391 -11.938  0.00  0.00    -0.166 F 
ENDBRANCH  13  17
ENDBRANCH   7   9
ENDBRANCH   6   7
ENDBRANCH   4   6
BRANCH   1  21
ATOM     21  C   UNL d   1       5.258  -5.545  -6.457  0.00  0.00     0.200 C 
ATOM     22  O   UNL d   1       4.311  -4.988  -7.013  0.00  0.00    -0.286 OA
BRANCH  21  23
ATOM     23  C   UNL d   1       5.713  -5.208  -5.080  0.00  0.00     0.074 C 
ATOM     24  C   UNL d   1       5.088  -4.242  -4.389  0.00  0.00     0.092 C 
BRANCH  24  25
ATOM     25  N   UNL d   1       5.359  -3.792  -3.116  0.00  0.00    -0.366 N 
ATOM     26  H   UNL d   1       6.100  -4.262  -2.606  0.00  0.00     0.165 HD
BRANCH  25  27
ATOM     27  C   UNL d   1       4.644  -2.828  -2.369  0.00  0.00     0.032 A 
ATOM     28  C   UNL d   1       5.002  -2.562  -1.037  0.00  0.00     0.032 A 
ATOM     29  C   UNL d   1       4.244  -1.682  -0.245  0.00  0.00     0.039 A 
ATOM     30  C   UNL d   1       3.147  -1.012  -0.781  0.00  0.00     0.068 A 
ATOM     31  C   UNL d   1       2.823  -1.208  -2.117  0.00  0.00     0.039 A 
ATOM     32  C   UNL d   1       3.564  -2.107  -2.895  0.00  0.00     0.032 A 
BRANCH  30  33
ATOM     33  O   UNL d   1       2.523  -0.110   0.035  0.00  0.00    -0.356 OA
ATOM     34  C   UNL d   1       1.101  -0.098  -0.053  0.00  0.00     0.210 C 
ENDBRANCH  30  33
ENDBRANCH  25  27
ENDBRANCH  24  25
ENDBRANCH  21  23
ENDBRANCH   1  21
TORSDOF 9
