REMARK  6 active torsions:
REMARK  status: ('A' for Active; 'I' for Inactive)
REMARK    1  A    between atoms: C_9  and  O_10 
REMARK    2  A    between atoms: C_12  and  O_13 
REMARK    3  A    between atoms: C_16  and  C_17 
REMARK    4  A    between atoms: N_18  and  N_19 
REMARK       I    between atoms: N_19  and  C_20 
REMARK       I    between atoms: C_20  and  N_21 
REMARK    5  A    between atoms: C_23  and  O_24 
REMARK    6  A    between atoms: C_27  and  C_28 
ROOT
ATOM      1  C   UNL d   1       0.761   0.186   0.067  0.00  0.00     0.019 C 
ATOM      2  C   UNL d   1       2.350   0.097   0.151  0.00  0.00    -0.005 C 
ATOM      3  C   UNL d   1       2.658   1.219  -0.816  0.00  0.00     0.013 C 
ATOM      4  C   UNL d   1       4.092   1.232  -1.128  0.00  0.00     0.007 C 
ATOM      5  C   UNL d   1       4.621  -0.158  -1.628  0.00  0.00     0.009 C 
ATOM      6  C   UNL d   1       4.139  -1.462  -0.611  0.00  0.00     0.026 C 
ATOM      7  C   UNL d   1       4.586  -2.838  -1.153  0.00  0.00     0.011 C 
ATOM      8  C   UNL d   1       6.086  -2.893  -1.191  0.00  0.00     0.039 C 
ATOM      9  C   UNL d   1       6.505  -1.825  -2.069  0.00  0.00     0.073 C 
ATOM     10  C   UNL d   1       5.763  -1.938  -3.399  0.00  0.00     0.070 C 
ATOM     11  C   UNL d   1       6.771  -2.940  -3.961  0.00  0.00     0.121 C 
ATOM     12  C   UNL d   1       7.141  -1.565  -4.525  0.00  0.00     0.033 C 
ATOM     13  C   UNL d   1       7.425  -0.422  -2.843  0.00  0.00     0.021 C 
ATOM     14  C   UNL d   1       6.225  -0.140  -1.926  0.00  0.00     0.031 C 
ATOM     15  C   UNL d   1       2.576  -1.372  -0.130  0.00  0.00     0.070 C 
ATOM     16  C   UNL d   1       1.866  -1.685   1.470  0.00  0.00     0.040 C 
ATOM     17  C   UNL d   1       3.003  -1.257   2.286  0.00  0.00     0.013 C 
ATOM     18  C   UNL d   1       3.319   0.122   1.609  0.00  0.00     0.028 C 
ENDROOT
BRANCH  14  19
ATOM     19  C   UNL d   1       6.774   1.369  -2.530  0.00  0.00     0.124 C 
ATOM     20  N   UNL d   1       8.008   1.632  -2.566  0.00  0.00    -0.186 NA
BRANCH  20  21
ATOM     21  N   UNL d   1       8.544   2.578  -3.413  0.00  0.00    -0.230 N 
ATOM     22  C   UNL d   1       9.872   2.675  -3.709  0.00  0.00     0.334 C 
ATOM     23  N   UNL d   1      10.750   1.752  -3.252  0.00  0.00    -0.351 N 
ATOM     24  O   UNL d   1      10.283   3.617  -4.420  0.00  0.00    -0.246 OA
ATOM     25  H   UNL d   1      10.454   0.947  -2.713  0.00  0.00     0.160 HD
ATOM     26  H   UNL d   1      11.730   1.870  -3.457  0.00  0.00     0.160 HD
ATOM     27  H   UNL d   1       7.923   3.206  -3.874  0.00  0.00     0.194 HD
ENDBRANCH  20  21
ENDBRANCH  14  19
BRANCH   9  28
ATOM     28  O   UNL d   1       8.114  -2.361  -2.047  0.00  0.00    -0.389 OA
ATOM     29  H   UNL d   1       8.576  -2.551  -2.901  0.00  0.00     0.210 HD
ENDBRANCH   9  28
BRANCH  11  30
ATOM     30  O   UNL d   1       6.008  -4.040  -4.272  0.00  0.00    -0.395 OA
ATOM     31  H   UNL d   1       5.256  -4.064  -3.650  0.00  0.00     0.210 HD
ENDBRANCH  11  30
BRANCH  15  32
ATOM     32  O   UNL d   1       1.849  -1.826  -1.257  0.00  0.00    -0.389 OA
ATOM     33  H   UNL d   1       2.397  -1.612  -2.040  0.00  0.00     0.210 HD
ENDBRANCH  15  32
BRANCH  18  34
ATOM     34  C   UNL d   1       4.916   0.160   1.695  0.00  0.00    -0.045 C 
ATOM     35  C   UNL d   1       5.705  -0.833   2.154  0.00  0.00     0.087 C 
ATOM     36  C   UNL d   1       7.088  -0.554   1.801  0.00  0.00     0.283 C 
ATOM     37  O   UNL d   1       7.990  -1.380   1.795  0.00  0.00    -0.260 OA
ATOM     38  O   UNL d   1       7.184   0.745   1.473  0.00  0.00    -0.314 OA
ATOM     39  C   UNL d   1       5.881   1.153   1.119  0.00  0.00     0.213 C 
ENDBRANCH  18  34
TORSDOF 6
