@<TRIPOS>MOLECULE
*****
 53 56 0 0 0
SMALL
GASTEIGER

@<TRIPOS>ATOM
      1 C           3.0858    1.1361    0.8895 C.3     1  UNL1       -0.0190
      2 C           2.6129   -0.1221    0.1543 C.3     1  UNL1        0.1743
      3 O           1.1797   -0.0398    0.0402 O.3     1  UNL1       -0.4798
      4 C           0.4888   -1.1489   -0.3880 C.ar    1  UNL1        0.1217
      5 C           1.0707   -2.3296   -0.8575 C.ar    1  UNL1       -0.0189
      6 C           0.3029   -3.4699   -1.0946 C.ar    1  UNL1       -0.0443
      7 C          -1.0772   -3.4066   -0.9732 C.ar    1  UNL1        0.0181
      8 BR         -2.1081   -4.9423   -1.3571 Br      1  UNL1       -0.0503
      9 C          -1.6903   -2.2160   -0.5889 C.ar    1  UNL1       -0.0443
     10 C          -0.9060   -1.0929   -0.2819 C.ar    1  UNL1       -0.0189
     11 C           3.1861   -1.3451    0.9317 C.2     1  UNL1        0.2726
     12 O           2.4595   -2.0887    1.6056 O.2     1  UNL1       -0.2700
     13 N           4.5438   -1.6010    0.7760 N.am    1  UNL1       -0.2039
     14 N           5.0038   -2.8183    1.2310 N.2     1  UNL1       -0.1875
     15 C           6.2776   -2.9781    1.3387 C.2     1  UNL1        0.0564
     16 C           6.8045   -4.2137    1.8802 C.ar    1  UNL1        0.0403
     17 C           6.3757   -5.5145    1.7057 C.ar    1  UNL1        0.0405
     18 N           7.1954   -6.3189    2.4707 N.ar    1  UNL1       -0.2387
     19 C           7.2256   -7.7373    2.4907 C.ar    1  UNL1        0.0654
     20 C           7.2176   -8.4344    3.7064 C.ar    1  UNL1       -0.0363
     21 C           7.3274   -9.8314    3.7070 C.ar    1  UNL1       -0.0598
     22 C           7.4316  -10.5294    2.5027 C.ar    1  UNL1       -0.0616
     23 C           7.4462   -9.8324    1.2943 C.ar    1  UNL1       -0.0598
     24 C           7.3314   -8.4381    1.2828 C.ar    1  UNL1       -0.0363
     25 N           8.1214   -5.5948    3.1469 N.ar    1  UNL1       -0.1657
     26 C           7.9053   -4.3247    2.7710 C.ar    1  UNL1        0.1017
     27 C           8.6420   -3.2096    3.3534 C.ar    1  UNL1        0.0027
     28 C          10.0185   -3.0594    3.1663 C.ar    1  UNL1       -0.0525
     29 C          10.6983   -2.0341    3.8304 C.ar    1  UNL1       -0.0611
     30 C           9.9961   -1.1149    4.6132 C.ar    1  UNL1       -0.0617
     31 C           8.6147   -1.2254    4.7507 C.ar    1  UNL1       -0.0611
     32 C           7.9408   -2.2722    4.1267 C.ar    1  UNL1       -0.0525
     33 H           4.1789    1.2038    0.9076 H       1  UNL1        0.0270
     34 H           2.7358    1.1193    1.9282 H       1  UNL1        0.0270
     35 H           2.6904    2.0512    0.4352 H       1  UNL1        0.0270
     36 H           3.0206   -0.0914   -0.8659 H       1  UNL1        0.0829
     37 H           2.1402   -2.4398   -0.9824 H       1  UNL1        0.0654
     38 H           0.8068   -4.3978   -1.3501 H       1  UNL1        0.0630
     39 H          -2.7721   -2.1600   -0.5057 H       1  UNL1        0.0630
     40 H          -1.3932   -0.1832    0.0612 H       1  UNL1        0.0654
     41 H           5.1954   -0.9012    0.4331 H       1  UNL1        0.1773
     42 H           7.0016   -2.1806    1.0981 H       1  UNL1        0.0852
     43 H           5.5493   -5.9360    1.1515 H       1  UNL1        0.0837
     44 H           7.0820   -7.9117    4.6508 H       1  UNL1        0.0639
     45 H           7.3408  -10.3801    4.6467 H       1  UNL1        0.0618
     46 H           7.5058  -11.6153    2.5059 H       1  UNL1        0.0618
     47 H           7.5693  -10.3767    0.3609 H       1  UNL1        0.0618
     48 H           7.3951   -7.9111    0.3349 H       1  UNL1        0.0639
     49 H          10.5681   -3.7404    2.5204 H       1  UNL1        0.0624
     50 H          11.7810   -1.9653    3.7592 H       1  UNL1        0.0618
     51 H          10.5275   -0.3170    5.1257 H       1  UNL1        0.0618
     52 H           8.0643   -0.5216    5.3694 H       1  UNL1        0.0618
     53 H           6.8655   -2.3700    4.2666 H       1  UNL1        0.0624
@<TRIPOS>BOND
     1     3     4    1
     2     4     5   ar
     3     5     6   ar
     4     6     7   ar
     5     7     8    1
     6     7     9   ar
     7     9    10   ar
     8     4    10   ar
     9     2    11    1
    10    11    12    2
    11    11    13   am
    12    13    14    1
    13    14    15    2
    14    15    16    1
    15    16    17   ar
    16    17    18   ar
    17    18    19    1
    18    19    20   ar
    19    20    21   ar
    20    21    22   ar
    21    22    23   ar
    22    23    24   ar
    23    19    24   ar
    24    18    25   ar
    25    25    26   ar
    26    16    26   ar
    27    26    27    1
    28    27    28   ar
    29    28    29   ar
    30    29    30   ar
    31    30    31   ar
    32    31    32   ar
    33    27    32   ar
    34     2     3    1
    35     2     1    1
    36     1    33    1
    37     1    34    1
    38     1    35    1
    39     2    36    1
    40     5    37    1
    41     6    38    1
    42     9    39    1
    43    10    40    1
    44    13    41    1
    45    15    42    1
    46    17    43    1
    47    20    44    1
    48    21    45    1
    49    22    46    1
    50    23    47    1
    51    24    48    1
    52    28    49    1
    53    29    50    1
    54    30    51    1
    55    31    52    1
    56    32    53    1
