REMARK  6 active torsions:
REMARK  status: ('A' for Active; 'I' for Inactive)
REMARK    1  A    between atoms: C_2  and  C_13 
REMARK    2  A    between atoms: C_2  and  N_3 
REMARK       I    between atoms: N_3  and  C_4 
REMARK    3  A    between atoms: C_4  and  C_6 
REMARK       I    between atoms: C_13  and  N_15 
REMARK    4  A    between atoms: N_15  and  N_16 
REMARK       I    between atoms: N_16  and  C_17 
REMARK    5  A    between atoms: C_17  and  C_19 
REMARK    6  A    between atoms: C_19  and  C_20 
ROOT
ATOM      1  C   UNL d   1       3.086  -0.686   1.450  0.00  0.00     0.258 C 
ATOM      2  O   UNL d   1       2.307  -1.070   2.327  0.00  0.00    -0.269 OA
ATOM      3  N   UNL d   1       4.466  -0.775   1.618  0.00  0.00    -0.266 N 
ATOM      4  H   UNL d   1       5.155  -0.471   0.930  0.00  0.00     0.190 HD
ENDROOT
BRANCH   1   5
ATOM      5  C   UNL d   1       2.586  -0.063   0.102  0.00  0.00     0.174 C 
ATOM      6  C   UNL d   1       3.093   1.368  -0.055  0.00  0.00     0.042 C 
BRANCH   5   7
ATOM      7  N   UNL d   1       1.105  -0.054  -0.003  0.00  0.00    -0.344 N 
ATOM      8  C   UNL d   1       0.424  -0.655  -1.045  0.00  0.00     0.252 C 
ATOM      9  O   UNL d   1       0.987  -1.210  -1.987  0.00  0.00    -0.268 OA
ATOM     10  H   UNL d   1       0.589   0.254   0.813  0.00  0.00     0.163 HD
BRANCH   8  11
ATOM     11  C   UNL d   1      -1.072  -0.642  -1.002  0.00  0.00     0.032 A 
ATOM     12  C   UNL d   1      -1.794   0.509  -0.660  0.00  0.00     0.018 A 
ATOM     13  C   UNL d   1      -3.199   0.489  -0.672  0.00  0.00     0.025 A 
ATOM     14  C   UNL d   1      -3.882  -0.676  -1.022  0.00  0.00     0.034 A 
ATOM     15 CL   UNL d   1      -5.604  -0.702  -1.001  0.00  0.00    -0.084 Cl
ATOM     16  C   UNL d   1      -3.175  -1.818  -1.390  0.00  0.00     0.025 A 
ATOM     17  C   UNL d   1      -1.773  -1.797  -1.389  0.00  0.00     0.018 A 
ENDBRANCH   8  11
ENDBRANCH   5   7
ENDBRANCH   1   5
BRANCH   3  18
ATOM     18  N   UNL d   1       5.004  -1.323   2.823  0.00  0.00    -0.267 N 
ATOM     19  C   UNL d   1       6.381  -1.357   2.978  0.00  0.00     0.236 C 
ATOM     20  O   UNL d   1       7.124  -0.896   2.111  0.00  0.00    -0.272 OA
ATOM     21  H   UNL d   1       4.336  -1.658   3.515  0.00  0.00     0.190 HD
BRANCH  19  22
ATOM     22  C   UNL d   1       6.899  -1.990   4.282  0.00  0.00     0.109 C 
BRANCH  22  23
ATOM     23  C   UNL d   1       8.449  -2.049   4.347  0.00  0.00    -0.006 C 
ATOM     24  C   UNL d   1       8.962  -2.431   5.753  0.00  0.00     0.005 C 
ATOM     25  C   UNL d   1      10.490  -2.563   5.793  0.00  0.00     0.000 C 
ATOM     26  C   UNL d   1      11.000  -3.546   4.744  0.00  0.00     0.000 C 
ATOM     27  C   UNL d   1      10.518  -3.148   3.356  0.00  0.00     0.000 C 
ATOM     28  C   UNL d   1       8.998  -3.046   3.309  0.00  0.00     0.005 C 
ENDBRANCH  22  23
ENDBRANCH  19  22
ENDBRANCH   3  18
TORSDOF 6
