REMARK  7 active torsions:
REMARK  status: ('A' for Active; 'I' for Inactive)
REMARK    1  A    between atoms: C_2  and  C_3 
REMARK    2  A    between atoms: C_3  and  C_4 
REMARK    3  A    between atoms: C_4  and  N_5 
REMARK       I    between atoms: N_5  and  C_6 
REMARK       I    between atoms: C_6  and  N_8 
REMARK    4  A    between atoms: N_8  and  N_9 
REMARK       I    between atoms: N_9  and  C_10 
REMARK    5  A    between atoms: C_10  and  C_12 
REMARK    6  A    between atoms: C_15  and  O_16 
REMARK    7  A    between atoms: O_16  and  C_17 
ROOT
ATOM      1  N   UNL d   1       8.323  -0.238   4.648  0.00  0.00    -0.262 N 
ATOM      2  C   UNL d   1       8.755  -0.401   5.961  0.00  0.00     0.270 C 
ATOM      3  O   UNL d   1       7.974  -0.533   6.907  0.00  0.00    -0.266 OA
ATOM      4  H   UNL d   1       8.950  -0.221   3.845  0.00  0.00     0.190 HD
ENDROOT
BRANCH   1   5
ATOM      5  N   UNL d   1       6.920  -0.237   4.333  0.00  0.00    -0.249 N 
ATOM      6  C   UNL d   1       6.525  -0.144   3.006  0.00  0.00     0.334 C 
ATOM      7  N   UNL d   1       5.158  -0.131   2.797  0.00  0.00    -0.342 N 
ATOM      8  O   UNL d   1       7.342  -0.077   2.087  0.00  0.00    -0.246 OA
ATOM      9  H   UNL d   1       4.529  -0.185   3.585  0.00  0.00     0.164 HD
ATOM     10  H   UNL d   1       6.281  -0.292   5.121  0.00  0.00     0.192 HD
BRANCH   7  11
ATOM     11  C   UNL d   1       4.593  -0.038   1.445  0.00  0.00     0.124 C 
BRANCH  11  12
ATOM     12  C   UNL d   1       3.057  -0.035   1.400  0.00  0.00     0.019 C 
BRANCH  12  13
ATOM     13  C   UNL d   1       2.515   0.064  -0.037  0.00  0.00    -0.003 C 
ATOM     14  C   UNL d   1       0.991   0.066  -0.065  0.00  0.00     0.005 C 
ENDBRANCH  12  13
ENDBRANCH  11  12
ENDBRANCH   7  11
ENDBRANCH   1   5
BRANCH   2  15
ATOM     15  C   UNL d   1      10.240  -0.388   6.224  0.00  0.00     0.033 A 
ATOM     16  C   UNL d   1      10.804  -1.210   7.217  0.00  0.00     0.020 A 
ATOM     17  C   UNL d   1      12.167  -1.091   7.569  0.00  0.00     0.038 A 
ATOM     18  C   UNL d   1      13.005  -0.193   6.902  0.00  0.00     0.068 A 
ATOM     19  C   UNL d   1      12.441   0.633   5.927  0.00  0.00     0.038 A 
ATOM     20  C   UNL d   1      11.075   0.539   5.591  0.00  0.00     0.020 A 
BRANCH  18  21
ATOM     21  O   UNL d   1      14.330  -0.205   7.267  0.00  0.00    -0.352 OA
BRANCH  21  22
ATOM     22  C   UNL d   1      15.216   0.620   6.498  0.00  0.00     0.171 C 
ATOM     23  C   UNL d   1      16.656   0.398   6.936  0.00  0.00     0.034 C 
ENDBRANCH  21  22
ENDBRANCH  18  21
ENDBRANCH   2  15
TORSDOF 7
