REMARK  6 active torsions:
REMARK  status: ('A' for Active; 'I' for Inactive)
REMARK    1  A    between atoms: C_2  and  C_3 
REMARK       I    between atoms: C_2  and  N_14 
REMARK    2  A    between atoms: C_4  and  C_5 
REMARK    3  A    between atoms: C_10  and  N_11 
REMARK    4  A    between atoms: N_14  and  N_15 
REMARK       I    between atoms: N_15  and  C_16 
REMARK       I    between atoms: C_16  and  N_18 
REMARK    5  A    between atoms: N_18  and  C_19 
REMARK    6  A    between atoms: C_19  and  C_20 
ROOT
ATOM      1  O   UNL d   1       1.012  -0.083  -0.138  0.00  0.00    -0.267 OA
ATOM      2  C   UNL d   1       2.237  -0.192  -0.093  0.00  0.00     0.259 C 
ATOM      3  N   UNL d   1       3.023   0.035  -1.210  0.00  0.00    -0.263 N 
ATOM      4  H   UNL d   1       2.533   0.254  -2.078  0.00  0.00     0.190 HD
ENDROOT
BRANCH   2   5
ATOM      5  C   UNL d   1       2.920  -0.542   1.183  0.00  0.00     0.076 C 
ATOM      6  C   UNL d   1       2.302  -0.522   2.378  0.00  0.00     0.019 C 
BRANCH   6   7
ATOM      7  C   UNL d   1       3.054  -0.536   3.656  0.00  0.00    -0.003 A 
ATOM      8  C   UNL d   1       2.610  -1.440   4.649  0.00  0.00     0.014 A 
ATOM      9  C   UNL d   1       3.185  -1.468   5.930  0.00  0.00     0.001 A 
ATOM     10  C   UNL d   1       4.262  -0.644   6.230  0.00  0.00     0.002 A 
ATOM     11  C   UNL d   1       4.728   0.250   5.272  0.00  0.00     0.037 A 
ATOM     12  C   UNL d   1       4.123   0.331   3.998  0.00  0.00     0.113 A 
BRANCH  12  13
ATOM     13  N   UNL d   1       4.687   1.365   3.097  0.00  0.00    -0.115 N 
ATOM     14  O   UNL d   1       5.768   1.872   3.417  0.00  0.00    -0.532 OA
ATOM     15  O   UNL d   1       4.085   1.678   2.059  0.00  0.00    -0.532 OA
ENDBRANCH  12  13
ENDBRANCH   6   7
ENDBRANCH   2   5
BRANCH   3  16
ATOM     16  N   UNL d   1       4.450  -0.011  -1.301  0.00  0.00    -0.249 N 
ATOM     17  C   UNL d   1       5.044   0.240  -2.538  0.00  0.00     0.334 C 
ATOM     18  O   UNL d   1       4.392   0.397  -3.569  0.00  0.00    -0.246 OA
ATOM     19  N   UNL d   1       6.428   0.239  -2.510  0.00  0.00    -0.341 N 
ATOM     20  H   UNL d   1       6.910   0.146  -1.631  0.00  0.00     0.164 HD
ATOM     21  H   UNL d   1       4.984   0.119  -0.454  0.00  0.00     0.192 HD
BRANCH  19  22
ATOM     22  C   UNL d   1       7.213   0.413  -3.734  0.00  0.00     0.129 C 
BRANCH  22  23
ATOM     23  C   UNL d   1       8.709   0.378  -3.501  0.00  0.00     0.003 A 
ATOM     24  C   UNL d   1       9.620  -0.348  -4.477  0.00  0.00     0.007 A 
ATOM     25  C   UNL d   1       9.641   1.149  -4.423  0.00  0.00     0.007 A 
ENDBRANCH  22  23
ENDBRANCH  19  22
ENDBRANCH   3  16
TORSDOF 6
