REMARK  3 active torsions:
REMARK  status: ('A' for Active; 'I' for Inactive)
REMARK    1  A    between atoms: C_2  and  C_3 
REMARK       I    between atoms: C_2  and  N_13 
REMARK    2  A    between atoms: C_3  and  C_4 
REMARK    3  A    between atoms: N_13  and  C_14 
ROOT
ATOM      1  O   UNL d   1       1.038   0.008  -0.135  0.00  0.00    -0.273 OA
ATOM      2  C   UNL d   1       2.268  -0.071  -0.039  0.00  0.00     0.227 C 
ATOM      3  N   UNL d   1       3.062   0.561  -0.971  0.00  0.00    -0.325 N 
ATOM      4  H   UNL d   1       2.548   1.202  -1.572  0.00  0.00     0.169 HD
ENDROOT
BRANCH   3   5
ATOM      5  C   UNL d   1       4.477   0.563  -1.059  0.00  0.00     0.059 C 
ATOM      6  C   UNL d   1       5.116   1.785  -1.306  0.00  0.00     0.071 C 
ATOM      7  C   UNL d   1       6.514   1.839  -1.416  0.00  0.00     0.104 C 
ATOM      8  C   UNL d   1       7.293   0.696  -1.243  0.00  0.00     0.103 C 
ATOM      9  O   UNL d   1       7.084   3.061  -1.652  0.00  0.00    -0.348 OA
ATOM     10  C   UNL d   1       6.672  -0.514  -0.962  0.00  0.00     0.065 C 
ATOM     11  O   UNL d   1       8.660   0.709  -1.327  0.00  0.00    -0.348 OA
ATOM     12  C   UNL d   1       5.276  -0.595  -0.973  0.00  0.00     0.063 C 
ATOM     13 CL   UNL d   1       4.622  -2.194  -1.186  0.00  0.00    -0.082 Cl
ATOM     14  C   UNL d   1       9.131   1.046  -2.642  0.00  0.00     0.178 C 
ATOM     15  C   UNL d   1       9.111   2.545  -2.926  0.00  0.00     0.053 C 
ATOM     16  C   UNL d   1       7.689   3.083  -2.948  0.00  0.00     0.178 C 
ENDBRANCH   3   5
BRANCH   2  17
ATOM     17  C   UNL d   1       2.927  -0.707   1.161  0.00  0.00     0.161 C 
BRANCH  17  18
ATOM     18  C   UNL d   1       1.995  -1.432   2.033  0.00  0.00     0.035 A 
ATOM     19  C   UNL d   1       1.901  -2.786   2.291  0.00  0.00     0.123 A 
ATOM     20  N   UNL d   1       0.948  -2.948   3.272  0.00  0.00    -0.317 N 
ATOM     21  C   UNL d   1       0.536  -4.119   3.878  0.00  0.00     0.098 A 
ATOM     22  C   UNL d   1       0.435  -1.746   3.588  0.00  0.00     0.111 A 
ATOM     23  C   UNL d   1      -0.422  -4.017   4.818  0.00  0.00     0.018 A 
ATOM     24  C   UNL d   1      -1.027  -2.742   5.200  0.00  0.00     0.005 A 
ATOM     25  C   UNL d   1      -0.624  -1.603   4.610  0.00  0.00     0.049 A 
ATOM     26  N   UNL d   1       1.056  -0.830   2.853  0.00  0.00    -0.344 N 
ATOM     27  H   UNL d   1       0.828   0.160   2.862  0.00  0.00     0.167 HD
ENDBRANCH  17  18
ENDBRANCH   2  17
TORSDOF 3
