REMARK  8 active torsions:
REMARK  status: ('A' for Active; 'I' for Inactive)
REMARK    1  A    between atoms: C_2  and  C_3 
REMARK    2  A    between atoms: C_3  and  C_6 
REMARK    3  A    between atoms: N_4  and  O_5 
REMARK    4  A    between atoms: C_6  and  C_8 
REMARK    5  A    between atoms: C_8  and  C_10 
REMARK    6  A    between atoms: C_10  and  C_11 
REMARK    7  A    between atoms: C_11  and  C_12 
REMARK       I    between atoms: C_12  and  N_14 
REMARK    8  A    between atoms: N_14  and  C_15 
ROOT
ATOM      1  C   UNL d   1       6.257   2.409  -4.845  0.00  0.00     0.110 C 
ENDROOT
BRANCH   1   2
ATOM      2  C   UNL d   1       6.211   1.710  -3.467  0.00  0.00     0.088 C 
BRANCH   2   3
ATOM      3  C   UNL d   1       4.774   1.488  -3.065  0.00  0.00     0.136 C 
ATOM      4  O   UNL d   1       3.912   1.925  -3.834  0.00  0.00    -0.297 OA
BRANCH   3   5
ATOM      5  C   UNL d   1       4.459   0.782  -1.716  0.00  0.00     0.101 C 
ATOM      6  C   UNL d   1       5.135  -0.592  -1.667  0.00  0.00     0.024 C 
BRANCH   5   7
ATOM      7  C   UNL d   1       2.930   0.651  -1.435  0.00  0.00     0.050 C 
ATOM      8  N   UNL d   1       2.139   1.119  -2.353  0.00  0.00    -0.145 NA
BRANCH   7   9
ATOM      9  C   UNL d   1       2.498   0.006  -0.110  0.00  0.00     0.053 C 
ATOM     10  C   UNL d   1       1.002  -0.104   0.109  0.00  0.00     0.011 C 
ENDBRANCH   7   9
BRANCH   8  11
ATOM     11  O   UNL d   1       0.778   1.040  -2.145  0.00  0.00    -0.266 OA
ATOM     12  H   UNL d   1       0.420   1.448  -2.954  0.00  0.00     0.247 HD
ENDBRANCH   8  11
ENDBRANCH   5   7
ENDBRANCH   3   5
ENDBRANCH   2   3
ENDBRANCH   1   2
BRANCH   1  13
ATOM     13  C   UNL d   1       7.683   2.604  -5.286  0.00  0.00     0.222 C 
ATOM     14  O   UNL d   1       8.614   2.239  -4.558  0.00  0.00    -0.273 OA
ATOM     15  N   UNL d   1       7.849   3.238  -6.510  0.00  0.00    -0.327 N 
ATOM     16  H   UNL d   1       7.065   3.746  -6.906  0.00  0.00     0.169 HD
BRANCH  15  17
ATOM     17  C   UNL d   1       9.142   3.493  -7.027  0.00  0.00     0.034 A 
ATOM     18  C   UNL d   1      10.139   2.515  -6.930  0.00  0.00     0.031 A 
ATOM     19  C   UNL d   1      11.435   2.764  -7.380  0.00  0.00     0.026 A 
ATOM     20  C   UNL d   1      11.746   4.004  -7.923  0.00  0.00     0.034 A 
ATOM     21 CL   UNL d   1      13.357   4.326  -8.434  0.00  0.00    -0.084 Cl
ATOM     22  C   UNL d   1      10.758   4.982  -8.050  0.00  0.00     0.026 A 
ATOM     23  C   UNL d   1       9.445   4.720  -7.625  0.00  0.00     0.031 A 
ENDBRANCH  15  17
ENDBRANCH   1  13
TORSDOF 8
