@<TRIPOS>MOLECULE
*****
 47 49 0 0 0
SMALL
GASTEIGER

@<TRIPOS>ATOM
      1 O           0.9855   -0.0363    0.0664 O.2     1  UNL1       -0.2749
      2 C           2.2141    0.0730   -0.0302 C.2     1  UNL1        0.2236
      3 C           2.9375    1.1490   -0.8582 C.3     1  UNL1        0.0777
      4 S           1.7399    2.1940   -1.7316 S.3     1  UNL1       -0.0750
      5 C           2.6658    3.4601   -2.4942 C.ar    1  UNL1        0.2105
      6 N           3.6028    3.2539   -3.4279 N.ar    1  UNL1       -0.1443
      7 N           3.7989    4.5176   -3.8849 N.ar    1  UNL1       -0.2446
      8 C           3.0292    5.4328   -3.2090 C.ar    1  UNL1        0.2317
      9 N           3.0562    6.7755   -3.4546 N.pl3   1  UNL1       -0.2054
     10 N           2.2666    7.6219   -2.7096 N.2     1  UNL1       -0.1875
     11 C           2.2629    8.8815   -3.0117 C.2     1  UNL1        0.0542
     12 C           1.3996    9.8490   -2.2807 C.ar    1  UNL1        0.0129
     13 C           1.2234    9.7196   -0.8948 C.ar    1  UNL1       -0.0503
     14 C           0.4480   10.6526   -0.1912 C.ar    1  UNL1       -0.0427
     15 C          -0.1696   11.7004   -0.8722 C.ar    1  UNL1        0.0424
     16 CL         -1.1178   12.8470   -0.0058 Cl      1  UNL1       -0.0835
     17 C          -0.0195   11.8272   -2.2512 C.ar    1  UNL1       -0.0244
     18 C           0.7702   10.9067   -2.9540 C.ar    1  UNL1        0.0510
     19 CL          0.8950   11.1098   -4.6656 Cl      1  UNL1       -0.0828
     20 N           2.3058    4.7698   -2.3342 N.ar    1  UNL1       -0.1865
     21 N           2.9693   -0.8353    0.6598 N.am    1  UNL1       -0.3105
     22 C           4.4123   -0.9249    0.7154 C.3     1  UNL1        0.0369
     23 C           4.8292   -2.0711    1.5992 C.ar    1  UNL1       -0.0303
     24 C           4.6864   -3.3925    1.1540 C.ar    1  UNL1       -0.0565
     25 C           4.8613   -4.4564    2.0392 C.ar    1  UNL1       -0.0498
     26 C           5.2837   -4.2247    3.3564 C.ar    1  UNL1        0.0548
     27 C           5.5783   -5.3927    4.2624 C.3     1  UNL1        0.4174
     28 F           4.4929   -6.1846    4.4784 F       1  UNL1       -0.1659
     29 F           6.5390   -6.2071    3.7422 F       1  UNL1       -0.1659
     30 F           6.0299   -5.0274    5.4944 F       1  UNL1       -0.1659
     31 C           5.4731   -2.9046    3.7873 C.ar    1  UNL1       -0.0498
     32 C           5.2449   -1.8372    2.9168 C.ar    1  UNL1       -0.0565
     33 H           3.5821    0.6449   -1.5837 H       1  UNL1        0.0475
     34 H           3.5473    1.7480   -0.1739 H       1  UNL1        0.0475
     35 H           4.4523    4.6708   -4.6434 H       1  UNL1        0.1919
     36 H           3.6376    7.1658   -4.1941 H       1  UNL1        0.1774
     37 H           2.8873    9.2913   -3.8251 H       1  UNL1        0.0852
     38 H           1.6985    8.9043   -0.3518 H       1  UNL1        0.0625
     39 H           0.3297   10.5584    0.8867 H       1  UNL1        0.0632
     40 H          -0.5178   12.6395   -2.7760 H       1  UNL1        0.0647
     41 H           2.4219   -1.5086    1.1885 H       1  UNL1        0.1490
     42 H           4.7937    0.0262    1.0999 H       1  UNL1        0.0512
     43 H           4.7944   -1.0563   -0.3014 H       1  UNL1        0.0512
     44 H           4.4142   -3.5997    0.1204 H       1  UNL1        0.0621
     45 H           4.6606   -5.4727    1.7015 H       1  UNL1        0.0623
     46 H           5.7852   -2.6998    4.8108 H       1  UNL1        0.0623
     47 H           5.3831   -0.8204    3.2797 H       1  UNL1        0.0621
@<TRIPOS>BOND
     1     1     2    2
     2     2     3    1
     3     3     4    1
     4     4     5    1
     5     5     6   ar
     6     6     7   ar
     7     7     8   ar
     8     8     9    1
     9     9    10    1
    10    10    11    2
    11    11    12    1
    12    12    13   ar
    13    13    14   ar
    14    14    15   ar
    15    15    16    1
    16    15    17   ar
    17    17    18   ar
    18    12    18   ar
    19    18    19    1
    20     8    20   ar
    21     5    20   ar
    22     2    21   am
    23    21    22    1
    24    22    23    1
    25    23    24   ar
    26    24    25   ar
    27    25    26   ar
    28    26    27    1
    29    27    28    1
    30    27    29    1
    31    27    30    1
    32    26    31   ar
    33    31    32   ar
    34    23    32   ar
    35     3    33    1
    36     3    34    1
    37     7    35    1
    38     9    36    1
    39    11    37    1
    40    13    38    1
    41    14    39    1
    42    17    40    1
    43    21    41    1
    44    22    42    1
    45    22    43    1
    46    24    44    1
    47    25    45    1
    48    31    46    1
    49    32    47    1
