@<TRIPOS>MOLECULE
*****
 63 66 0 0 0
SMALL
GASTEIGER

@<TRIPOS>ATOM
      1 C           2.5056    1.0924    0.0107 C.3     1  UNL1       -0.0396
      2 C           1.1893    0.3722    0.0074 C.ar    1  UNL1       -0.0484
      3 C          -0.0319    1.0323   -0.0050 C.ar    1  UNL1       -0.0558
      4 C          -1.2255    0.2936    0.0010 C.ar    1  UNL1       -0.0484
      5 C          -2.5418    1.0199   -0.0040 C.3     1  UNL1       -0.0396
      6 C          -1.1860   -1.1252    0.0020 C.ar    1  UNL1       -0.0375
      7 C           0.0365   -1.8100   -0.0118 C.ar    1  UNL1        0.0353
      8 N           0.0894   -3.2484   -0.0381 N.am    1  UNL1       -0.2692
      9 C           1.2592   -3.9665   -0.2844 C.2     1  UNL1        0.3082
     10 O           2.3084   -3.4354   -0.6620 O.2     1  UNL1       -0.2522
     11 N           1.1945   -5.3388   -0.0642 N.am    1  UNL1       -0.2675
     12 C           2.4194   -6.0995    0.0249 C.ar    1  UNL1        0.0576
     13 C           2.5961   -7.3017   -0.7172 C.ar    1  UNL1       -0.0174
     14 C           3.7677   -8.0847   -0.5614 C.ar    1  UNL1        0.0355
     15 N           3.8897   -9.3856   -1.1349 N.am    1  UNL1       -0.2814
     16 C           4.9256  -10.2838   -0.8657 C.2     1  UNL1        0.2497
     17 O           5.8935  -10.0975   -0.1224 O.2     1  UNL1       -0.2698
     18 C           4.9021  -11.6268   -1.4858 C.ar    1  UNL1        0.0553
     19 C           5.3944  -12.6966   -0.7027 C.ar    1  UNL1       -0.0482
     20 C           5.6225  -13.9512   -1.2677 C.ar    1  UNL1       -0.0610
     21 C           5.3020  -14.1672   -2.6031 C.ar    1  UNL1       -0.0603
     22 C           4.8006  -13.1193   -3.3800 C.ar    1  UNL1       -0.0427
     23 C           4.6068  -11.8465   -2.8310 C.ar    1  UNL1        0.0531
     24 CL          4.0482  -10.6071   -3.8942 Cl      1  UNL1       -0.0828
     25 C           4.7937   -7.5784    0.2260 C.ar    1  UNL1       -0.0386
     26 C           4.6312   -6.4128    0.9514 C.ar    1  UNL1       -0.0371
     27 C           3.4558   -5.6601    0.8881 C.ar    1  UNL1        0.0514
     28 N           3.3926   -4.5694    1.7315 N.pl3   1  UNL1       -0.3285
     29 C           4.3160   -3.4599    1.5183 C.3     1  UNL1        0.0122
     30 C           4.9740   -3.1545    2.8572 C.3     1  UNL1       -0.0372
     31 C           3.9126   -2.9119    3.9395 C.3     1  UNL1       -0.0502
     32 C           2.8677   -4.0361    3.9943 C.3     1  UNL1       -0.0372
     33 C           2.2765   -4.3035    2.6142 C.3     1  UNL1        0.0122
     34 C           1.1992   -1.0275    0.0155 C.ar    1  UNL1       -0.0375
     35 H           2.3774    2.1777   -0.0067 H       1  UNL1        0.0278
     36 H           3.0938    0.8049   -0.8685 H       1  UNL1        0.0278
     37 H           3.0719    0.8289    0.9110 H       1  UNL1        0.0278
     38 H          -0.0514    2.1205   -0.0164 H       1  UNL1        0.0623
     39 H          -2.4044    2.1080    0.0120 H       1  UNL1        0.0278
     40 H          -3.1251    0.7481    0.8806 H       1  UNL1        0.0278
     41 H          -3.1063    0.7703   -0.9073 H       1  UNL1        0.0278
     42 H          -2.1279   -1.6673   -0.0041 H       1  UNL1        0.0639
     43 H          -0.7891   -3.7446    0.0033 H       1  UNL1        0.1564
     44 H           0.3440   -5.8324   -0.2815 H       1  UNL1        0.1564
     45 H           1.8499   -7.5906   -1.4524 H       1  UNL1        0.0655
     46 H           3.1294   -9.7048   -1.7238 H       1  UNL1        0.1551
     47 H           5.6387  -12.5408    0.3495 H       1  UNL1        0.0625
     48 H           6.0732  -14.7462   -0.6763 H       1  UNL1        0.0618
     49 H           5.4516  -15.1491   -3.0455 H       1  UNL1        0.0618
     50 H           4.5909  -13.2936   -4.4322 H       1  UNL1        0.0632
     51 H           5.7517   -8.0687    0.3354 H       1  UNL1        0.0637
     52 H           5.4256   -6.1297    1.6371 H       1  UNL1        0.0637
     53 H           3.7641   -2.5724    1.1924 H       1  UNL1        0.0464
     54 H           5.0678   -3.6641    0.7462 H       1  UNL1        0.0464
     55 H           5.6226   -2.2776    2.7598 H       1  UNL1        0.0280
     56 H           5.6040   -4.0028    3.1493 H       1  UNL1        0.0280
     57 H           3.4039   -1.9613    3.7351 H       1  UNL1        0.0266
     58 H           4.4008   -2.8183    4.9141 H       1  UNL1        0.0266
     59 H           2.0666   -3.7760    4.6929 H       1  UNL1        0.0280
     60 H           3.3462   -4.9528    4.3604 H       1  UNL1        0.0280
     61 H           1.7315   -3.4138    2.2820 H       1  UNL1        0.0464
     62 H           1.5699   -5.1389    2.6636 H       1  UNL1        0.0464
     63 H           2.1823   -1.4771    0.0457 H       1  UNL1        0.0639
@<TRIPOS>BOND
     1     1     2    1
     2     2     3   ar
     3     3     4   ar
     4     4     5    1
     5     4     6   ar
     6     6     7   ar
     7     7     8    1
     8     8     9   am
     9     9    10    2
    10     9    11   am
    11    11    12    1
    12    12    13   ar
    13    13    14   ar
    14    14    15    1
    15    15    16   am
    16    16    17    2
    17    16    18    1
    18    18    19   ar
    19    19    20   ar
    20    20    21   ar
    21    21    22   ar
    22    22    23   ar
    23    18    23   ar
    24    23    24    1
    25    14    25   ar
    26    25    26   ar
    27    26    27   ar
    28    12    27   ar
    29    27    28    1
    30    28    29    1
    31    29    30    1
    32    30    31    1
    33    31    32    1
    34    32    33    1
    35    28    33    1
    36     7    34   ar
    37     2    34   ar
    38     1    35    1
    39     1    36    1
    40     1    37    1
    41     3    38    1
    42     5    39    1
    43     5    40    1
    44     5    41    1
    45     6    42    1
    46     8    43    1
    47    11    44    1
    48    13    45    1
    49    15    46    1
    50    19    47    1
    51    20    48    1
    52    21    49    1
    53    22    50    1
    54    25    51    1
    55    26    52    1
    56    29    53    1
    57    29    54    1
    58    30    55    1
    59    30    56    1
    60    31    57    1
    61    31    58    1
    62    32    59    1
    63    32    60    1
    64    33    61    1
    65    33    62    1
    66    34    63    1
