@<TRIPOS>MOLECULE
*****
 84 88 0 0 0
SMALL
GASTEIGER

@<TRIPOS>ATOM
      1 C           0.8496   -0.1301   -0.0110 C.3     1  UNL1       -0.0556
      2 C           2.3964    0.0300    0.0494 C.3     1  UNL1       -0.0072
      3 C           2.7809    0.1852    1.5518 C.3     1  UNL1       -0.0367
      4 C           4.2742   -0.0486    1.6401 C.3     1  UNL1        0.0107
      5 C           4.2107   -1.5395    1.7009 C.2     1  UNL1        0.1561
      6 O           4.8582   -2.1783    2.5358 O.2     1  UNL1       -0.2927
      7 C           3.2824   -2.1339    0.5781 C.2     1  UNL1       -0.0194
      8 C           3.1095   -1.2435   -0.4359 C.2     1  UNL1       -0.0601
      9 C           4.4432   -1.0731   -1.1893 C.3     1  UNL1       -0.0305
     10 C           4.8765    0.3647   -1.6957 C.3     1  UNL1       -0.0459
     11 C           4.1712    1.6598   -0.9925 C.3     1  UNL1       -0.0337
     12 C           4.2074    3.3221   -1.5666 C.3     1  UNL1       -0.0294
     13 C           3.5121    5.2202   -1.3373 C.3     1  UNL1       -0.0463
     14 C           4.6301    6.1963   -0.9410 C.3     1  UNL1       -0.0161
     15 C           5.2990    5.0473   -1.4710 C.3     1  UNL1        0.1325
     16 O           6.6728    5.0651   -1.2593 O.3     1  UNL1       -0.3804
     17 C           4.7512    4.9950   -3.2180 C.2     1  UNL1        0.2022
     18 O           4.0117    4.1307   -3.7188 O.2     1  UNL1       -0.2907
     19 C           4.9935    6.2311   -3.9984 C.3     1  UNL1        0.1530
     20 O           4.3651    5.9655   -5.2585 O.3     1  UNL1       -0.4568
     21 C           4.6007    6.9324   -6.1727 C.2     1  UNL1        0.3079
     22 O           5.2437    7.9182   -5.9522 O.2     1  UNL1       -0.2508
     23 C           3.9495    6.5701   -7.4917 C.3     1  UNL1        0.0532
     24 C           4.2731    7.6639   -8.5082 C.3     1  UNL1        0.0340
     25 C           3.6608    7.3706   -9.8635 C.2     1  UNL1        0.2135
     26 O           2.9900    6.3701  -10.0917 O.2     1  UNL1       -0.2758
     27 N           3.9083    8.3198  -10.8409 N.am    1  UNL1       -0.3152
     28 C           3.3753    8.1255  -12.1797 C.3     1  UNL1        0.0132
     29 C           3.7408    9.2526  -13.1380 C.3     1  UNL1       -0.0192
     30 C           3.1481    9.0213  -14.5283 C.3     1  UNL1        0.0296
     31 N           3.4537   10.1312  -15.4499 N.ar    1  UNL1       -0.2957
     32 C           3.9693   10.0185  -16.7399 C.ar    1  UNL1        0.0732
     33 C           3.9864   11.2786  -17.2714 C.ar    1  UNL1        0.1870
     34 N           3.5109   12.1166  -16.2923 N.ar    1  UNL1       -0.2011
     35 C           3.1964   11.4252  -15.1950 C.ar    1  UNL1        0.2463
     36 C           4.3692    3.9565   -0.3239 C.3     1  UNL1        0.0068
     37 C           5.0277    3.7437    1.0002 C.3     1  UNL1       -0.0563
     38 C           2.5606    3.6657   -0.2968 C.3     1  UNL1       -0.0440
     39 C           2.1523    2.3744    0.1519 C.3     1  UNL1       -0.0486
     40 C           2.7374    1.2996   -0.7140 C.3     1  UNL1       -0.0288
     41 H           0.5101   -1.0425    0.4777 H       1  UNL1        0.0238
     42 H           0.4775   -0.1068   -1.0419 H       1  UNL1        0.0238
     43 H           0.3389    0.6755    0.5318 H       1  UNL1        0.0238
     44 H           2.2215   -0.5752    2.1191 H       1  UNL1        0.0278
     45 H           2.4514    1.0493    2.1201 H       1  UNL1        0.0278
     46 H           4.8181    0.6866    2.2328 H       1  UNL1        0.0345
     47 H           4.9065    0.0410    0.7629 H       1  UNL1        0.0345
     48 H           3.0630   -3.1659    0.3620 H       1  UNL1        0.0652
     49 H           4.5340   -1.8583   -1.9549 H       1  UNL1        0.0310
     50 H           5.2514   -1.4294   -0.5142 H       1  UNL1        0.0310
     51 H           4.7617    0.3525   -2.7777 H       1  UNL1        0.0271
     52 H           5.9658    0.3793   -1.4868 H       1  UNL1        0.0271
     53 H           4.7990    1.6979   -0.1024 H       1  UNL1        0.0307
     54 H           5.1772    3.1931   -2.0972 H       1  UNL1        0.0310
     55 H           2.9472    5.5591   -0.4203 H       1  UNL1        0.0269
     56 H           2.8018    5.5780   -2.0956 H       1  UNL1        0.0269
     57 H           4.8081    6.3405    0.1430 H       1  UNL1        0.0297
     58 H           4.7104    7.1547   -1.4400 H       1  UNL1        0.0297
     59 H           7.0126    5.8144   -1.7755 H       1  UNL1        0.2108
     60 H           6.0724    6.3140   -4.0700 H       1  UNL1        0.0779
     61 H           4.4891    7.0715   -3.5161 H       1  UNL1        0.0779
     62 H           2.8657    6.4786   -7.3533 H       1  UNL1        0.0382
     63 H           4.3366    5.6021   -7.8322 H       1  UNL1        0.0382
     64 H           5.3612    7.7512   -8.6156 H       1  UNL1        0.0364
     65 H           3.8935    8.6254   -8.1419 H       1  UNL1        0.0364
     66 H           4.4799    9.1263  -10.6160 H       1  UNL1        0.1487
     67 H           2.2847    8.0420  -12.0944 H       1  UNL1        0.0462
     68 H           3.7480    7.1668  -12.5588 H       1  UNL1        0.0462
     69 H           4.8299    9.3479  -13.2171 H       1  UNL1        0.0297
     70 H           3.3752   10.2020  -12.7306 H       1  UNL1        0.0297
     71 H           2.0553    8.9450  -14.4782 H       1  UNL1        0.0494
     72 H           3.5292    8.0888  -14.9609 H       1  UNL1        0.0494
     73 H           4.2435    9.0520  -17.1299 H       1  UNL1        0.0871
     74 H           4.2696   11.6938  -18.2229 H       1  UNL1        0.1392
     75 H           3.3971   13.1240  -16.3812 H       1  UNL1        0.4538
     76 H           2.7985   11.8369  -14.2753 H       1  UNL1        0.1600
     77 H           6.1133    3.7049    0.9144 H       1  UNL1        0.0236
     78 H           4.6730    2.8582    1.5225 H       1  UNL1        0.0236
     79 H           4.7540    4.5873    1.6431 H       1  UNL1        0.0236
     80 H           2.1210    3.6781   -1.3393 H       1  UNL1        0.0272
     81 H           1.9803    4.3696    0.3029 H       1  UNL1        0.0272
     82 H           1.0673    2.3811    0.1150 H       1  UNL1        0.0268
     83 H           2.5210    2.4383    1.1609 H       1  UNL1        0.0268
     84 H           2.2859    1.2630   -1.7179 H       1  UNL1        0.0312
@<TRIPOS>UNITY_ATOM_ATTR
34 1
charge 1
@<TRIPOS>BOND
     1     1     2    1
     2     2     3    1
     3     3     4    1
     4     4     5    1
     5     5     6    2
     6     5     7    1
     7     7     8    2
     8     2     8    1
     9     8     9    1
    10     9    10    1
    11    10    11    1
    12    11    12    1
    13    12    13    1
    14    13    14    1
    15    14    15    1
    16    15    16    1
    17    15    17    1
    18    17    18    2
    19    17    19    1
    20    19    20    1
    21    20    21    1
    22    21    22    2
    23    21    23    1
    24    23    24    1
    25    24    25    1
    26    25    26    2
    27    25    27   am
    28    27    28    1
    29    28    29    1
    30    29    30    1
    31    30    31    1
    32    31    32   ar
    33    32    33   ar
    34    33    34   ar
    35    34    35   ar
    36    31    35   ar
    37    15    36    1
    38    12    36    1
    39    36    37    1
    40    36    38    1
    41    38    39    1
    42    39    40    1
    43    11    40    1
    44     2    40    1
    45     1    41    1
    46     1    42    1
    47     1    43    1
    48     3    44    1
    49     3    45    1
    50     4    46    1
    51     4    47    1
    52     7    48    1
    53     9    49    1
    54     9    50    1
    55    10    51    1
    56    10    52    1
    57    11    53    1
    58    12    54    1
    59    13    55    1
    60    13    56    1
    61    14    57    1
    62    14    58    1
    63    16    59    1
    64    19    60    1
    65    19    61    1
    66    23    62    1
    67    23    63    1
    68    24    64    1
    69    24    65    1
    70    27    66    1
    71    28    67    1
    72    28    68    1
    73    29    69    1
    74    29    70    1
    75    30    71    1
    76    30    72    1
    77    32    73    1
    78    33    74    1
    79    34    75    1
    80    35    76    1
    81    37    77    1
    82    37    78    1
    83    37    79    1
    84    38    80    1
    85    38    81    1
    86    39    82    1
    87    39    83    1
    88    40    84    1
