REMARK  4 active torsions:
REMARK  status: ('A' for Active; 'I' for Inactive)
REMARK    1  A    between atoms: C_5  and  C_6 
REMARK       I    between atoms: C_6  and  N_8 
REMARK    2  A    between atoms: N_8  and  N_9 
REMARK       I    between atoms: N_9  and  C_10 
REMARK    3  A    between atoms: C_10  and  C_12 
REMARK    4  A    between atoms: C_18  and  O_19 
ROOT
ATOM      1  C   UNL d   1      -2.412  -2.020  -0.032  0.00  0.00     0.272 C 
ATOM      2  O   UNL d   1      -3.495  -1.434  -0.060  0.00  0.00    -0.266 OA
ATOM      3  N   UNL d   1      -2.310  -3.413  -0.002  0.00  0.00    -0.263 N 
ATOM      4  H   UNL d   1      -1.436  -3.907  -0.121  0.00  0.00     0.190 HD
ENDROOT
BRANCH   3   5
ATOM      5  N   UNL d   1      -3.498  -4.207   0.044  0.00  0.00    -0.261 N 
ATOM      6  C   UNL d   1      -3.459  -5.604  -0.098  0.00  0.00     0.293 C 
ATOM      7  O   UNL d   1      -4.271  -6.139  -0.859  0.00  0.00    -0.264 OA
ATOM      8  H   UNL d   1      -4.300  -3.763  -0.404  0.00  0.00     0.190 HD
BRANCH   6   9
ATOM      9  C   UNL d   1      -2.525  -6.351   0.742  0.00  0.00     0.144 A 
ATOM     10  C   UNL d   1      -1.632  -5.944   1.719  0.00  0.00     0.045 A 
ATOM     11  C   UNL d   1      -1.049  -7.101   2.276  0.00  0.00     0.035 A 
ATOM     12  C   UNL d   1      -1.620  -8.175   1.637  0.00  0.00     0.050 A 
ATOM     13  C   UNL d   1      -1.424  -9.632   1.825  0.00  0.00     0.076 C 
ATOM     14  O   UNL d   1      -2.511  -7.736   0.694  0.00  0.00    -0.310 OA
ENDBRANCH   6   9
ENDBRANCH   3   5
BRANCH   1  15
ATOM     15  C   UNL d   1      -1.140  -1.210  -0.024  0.00  0.00     0.066 A 
ATOM     16  C   UNL d   1       0.126  -1.818  -0.002  0.00  0.00     0.020 A 
ATOM     17  C   UNL d   1       1.304  -1.053   0.017  0.00  0.00     0.008 A 
ATOM     18  C   UNL d   1       1.250   0.342   0.003  0.00  0.00    -0.059 A 
ATOM     19  C   UNL d   1       2.491   1.187  -0.001  0.00  0.00     0.048 C 
ATOM     20  C   UNL d   1      -0.003   0.960  -0.010  0.00  0.00     0.044 A 
ATOM     21  C   UNL d   1      -1.180   0.199  -0.015  0.00  0.00     0.082 A 
BRANCH  21  22
ATOM     22  O   UNL d   1      -2.337   0.935  -0.004  0.00  0.00    -0.360 OA
ATOM     23  H   UNL d   1      -3.100   0.319  -0.001  0.00  0.00     0.217 HD
ENDBRANCH  21  22
ENDBRANCH   1  15
TORSDOF 4
