@<TRIPOS>MOLECULE
*****
 38 40 0 0 0
SMALL
GASTEIGER

@<TRIPOS>ATOM
      1 N           2.8887   -1.6782   -3.1596 N.1     1  UNL1       -0.1952
      2 C           2.2996   -2.0715   -2.2332 C.1     1  UNL1        0.0818
      3 C           1.5220   -2.7109   -1.1756 C.3     1  UNL1        0.1431
      4 C           1.7356   -4.1342   -1.4039 C.1     1  UNL1        0.0818
      5 N           1.9497   -5.2710   -1.4553 N.1     1  UNL1       -0.1952
      6 C           0.0993   -2.1051   -1.1637 C.3     1  UNL1        0.0449
      7 C           0.0087   -1.1019    0.0118 C.ar    1  UNL1       -0.0375
      8 C          -0.0485   -1.5596    1.3381 C.ar    1  UNL1       -0.0579
      9 C          -0.2798   -0.6723    2.3886 C.ar    1  UNL1       -0.0615
     10 C          -0.3294    0.6981    2.1529 C.ar    1  UNL1       -0.0617
     11 C          -0.2139    1.1806    0.8526 C.ar    1  UNL1       -0.0615
     12 C          -0.0404    0.2893   -0.2126 C.ar    1  UNL1       -0.0579
     13 C          -1.1692   -2.9565   -1.0720 C.ar    1  UNL1        0.0502
     14 C          -1.4042   -4.3592   -1.0498 C.ar    1  UNL1        0.2357
     15 O          -0.6331   -5.4351   -0.9921 O.3     1  UNL1       -0.4912
     16 N          -2.6737   -4.7120   -1.0957 N.ar    1  UNL1       -0.1355
     17 N          -3.3164   -3.5577   -1.0930 N.ar    1  UNL1       -0.2732
     18 C          -2.4893   -2.4657   -1.0409 C.ar    1  UNL1        0.0733
     19 C          -3.0527   -1.1209   -1.0288 C.ar    1  UNL1        0.0002
     20 C          -3.9119   -0.7088   -0.0015 C.ar    1  UNL1       -0.0526
     21 C          -4.5318    0.5407   -0.0679 C.ar    1  UNL1       -0.0611
     22 C          -4.2034    1.4286   -1.0910 C.ar    1  UNL1       -0.0617
     23 C          -3.3193    1.0391   -2.0936 C.ar    1  UNL1       -0.0611
     24 C          -2.7624   -0.2378   -2.0714 C.ar    1  UNL1       -0.0526
     25 H           1.9679   -2.5477   -0.1867 H       1  UNL1        0.0619
     26 H          -0.0303   -1.5036   -2.0805 H       1  UNL1        0.0422
     27 H           0.0575   -2.6174    1.5639 H       1  UNL1        0.0620
     28 H          -0.4462   -1.0558    3.3915 H       1  UNL1        0.0618
     29 H          -0.4588    1.3863    2.9846 H       1  UNL1        0.0618
     30 H          -0.2946    2.2498    0.6664 H       1  UNL1        0.0618
     31 H           0.0173    0.7020   -1.2186 H       1  UNL1        0.0620
     32 H           0.2295   -5.2920   -0.5877 H       1  UNL1        0.2938
     33 H          -4.3277   -3.5950   -1.1417 H       1  UNL1        0.1890
     34 H          -4.0892   -1.3422    0.8659 H       1  UNL1        0.0624
     35 H          -5.2732    0.8239    0.6748 H       1  UNL1        0.0618
     36 H          -4.6325    2.4269   -1.1030 H       1  UNL1        0.0618
     37 H          -3.0740    1.7196   -2.9036 H       1  UNL1        0.0618
     38 H          -2.0820   -0.5347   -2.8637 H       1  UNL1        0.0624
@<TRIPOS>BOND
     1     1     2    3
     2     2     3    1
     3     3     4    1
     4     4     5    3
     5     7     8   ar
     6     8     9   ar
     7     9    10   ar
     8    10    11   ar
     9    11    12   ar
    10     7    12   ar
    11     6    13    1
    12    13    14   ar
    13    14    15    1
    14    14    16   ar
    15    16    17   ar
    16    17    18   ar
    17    13    18   ar
    18    18    19    1
    19    19    20   ar
    20    20    21   ar
    21    21    22   ar
    22    22    23   ar
    23    23    24   ar
    24    19    24   ar
    25     6     7    1
    26     6     3    1
    27     3    25    1
    28     6    26    1
    29     8    27    1
    30     9    28    1
    31    10    29    1
    32    11    30    1
    33    12    31    1
    34    15    32    1
    35    17    33    1
    36    20    34    1
    37    21    35    1
    38    22    36    1
    39    23    37    1
    40    24    38    1
