@<TRIPOS>MOLECULE
*****
 32 33 0 0 0
SMALL
GASTEIGER

@<TRIPOS>ATOM
      1 C           1.0266   -0.1071    0.0156 C.3     1  UNL1        0.0125
      2 C           2.5287    0.0034   -0.0460 C.2     1  UNL1        0.2141
      3 O           3.0710    0.6679   -0.9251 O.2     1  UNL1       -0.2758
      4 N           3.2001   -0.7207    0.9248 N.am    1  UNL1       -0.2857
      5 C           4.6102   -0.7752    0.9651 C.ar    1  UNL1        0.0349
      6 C           5.4236    0.3400    0.7994 C.ar    1  UNL1       -0.0386
      7 C           6.8315    0.2196    0.8409 C.ar    1  UNL1       -0.0373
      8 C           7.4705   -1.0363    1.0041 C.ar    1  UNL1        0.0523
      9 N           8.9144   -1.0202    1.0061 N.am    1  UNL1       -0.2790
     10 C           9.7662   -2.1135    1.1339 C.2     1  UNL1        0.2666
     11 O           9.4612   -3.2837    1.3396 O.2     1  UNL1       -0.2682
     12 C          11.2331   -1.9331    1.0673 C.ar    1  UNL1        0.1256
     13 C          11.8768   -1.0337    1.8982 C.ar    1  UNL1       -0.0312
     14 C          13.2687   -1.0866    1.9401 C.ar    1  UNL1       -0.0582
     15 C          13.9534   -2.0493    1.1961 C.ar    1  UNL1       -0.0436
     16 C          13.2220   -2.9385    0.4330 C.ar    1  UNL1        0.0284
     17 N          11.8848   -2.8834    0.3365 N.ar    1  UNL1       -0.2504
     18 C           6.6084   -2.1538    1.1403 C.ar    1  UNL1        0.0639
     19 CL          6.9877   -3.8359    1.2351 Cl      1  UNL1       -0.0816
     20 C           5.2107   -2.0017    1.1645 C.ar    1  UNL1       -0.0203
     21 H           0.6046    0.5094   -0.7858 H       1  UNL1        0.0323
     22 H           0.6556    0.2731    0.9702 H       1  UNL1        0.0323
     23 H           0.6962   -1.1379   -0.1385 H       1  UNL1        0.0323
     24 H           2.6953   -1.4742    1.3796 H       1  UNL1        0.1548
     25 H           4.9640    1.3176    0.6625 H       1  UNL1        0.0637
     26 H           7.3975    1.1449    0.7292 H       1  UNL1        0.0637
     27 H           9.3518   -0.1142    0.8637 H       1  UNL1        0.1552
     28 H          11.3212   -0.3664    2.5452 H       1  UNL1        0.0640
     29 H          13.8212   -0.4024    2.5770 H       1  UNL1        0.0619
     30 H          15.0351   -2.1162    1.2196 H       1  UNL1        0.0633
     31 H          13.6951   -3.7418   -0.1259 H       1  UNL1        0.0830
     32 H           4.5999   -2.8968    1.2569 H       1  UNL1        0.0651
@<TRIPOS>BOND
     1     1     2    1
     2     2     3    2
     3     2     4   am
     4     4     5    1
     5     5     6   ar
     6     6     7   ar
     7     7     8   ar
     8     8     9    1
     9     9    10   am
    10    10    11    2
    11    10    12    1
    12    12    13   ar
    13    13    14   ar
    14    14    15   ar
    15    15    16   ar
    16    16    17   ar
    17    12    17   ar
    18     8    18   ar
    19    18    19    1
    20    18    20   ar
    21     5    20   ar
    22     1    21    1
    23     1    22    1
    24     1    23    1
    25     4    24    1
    26     6    25    1
    27     7    26    1
    28     9    27    1
    29    13    28    1
    30    14    29    1
    31    15    30    1
    32    16    31    1
    33    20    32    1
