@<TRIPOS>MOLECULE
*****
 45 47 0 0 0
SMALL
GASTEIGER

@<TRIPOS>ATOM
      1 C           1.0389   -0.0219   -0.0368 C.3     1  UNL1       -0.0463
      2 C           2.5802   -0.0686   -0.0154 C.3     1  UNL1        0.0258
      3 C           3.0441   -1.2620    0.8565 C.3     1  UNL1       -0.0094
      4 C           2.5523   -1.2358    2.2889 C.ar    1  UNL1       -0.0454
      5 C           2.3588   -0.0321    2.9887 C.ar    1  UNL1       -0.0551
      6 C           1.8455   -0.0288    4.2845 C.ar    1  UNL1       -0.0199
      7 C           1.5692   -1.2394    4.9046 C.ar    1  UNL1        0.1169
      8 O           1.0642   -1.2932    6.1692 O.3     1  UNL1       -0.5068
      9 C           1.8015   -2.4435    4.2510 C.ar    1  UNL1       -0.0199
     10 C           2.2907   -2.4447    2.9449 C.ar    1  UNL1       -0.0551
     11 N           3.1555   -0.1310   -1.3747 N.am    1  UNL1       -0.2953
     12 C           4.5184   -0.0344   -1.5833 C.2     1  UNL1        0.3161
     13 O           5.3355    0.0363   -0.6615 O.2     1  UNL1       -0.2513
     14 N           4.9081   -0.0385   -2.9126 N.am    1  UNL1       -0.2191
     15 N           6.3066    0.1366   -3.1853 N.pl3   1  UNL1       -0.2458
     16 C           6.7323   -0.0676   -4.5231 C.ar    1  UNL1        0.1575
     17 C           6.1994    0.7162   -5.5409 C.ar    1  UNL1       -0.0152
     18 C           6.7130    0.6560   -6.8472 C.ar    1  UNL1       -0.0124
     19 C           7.7234   -0.2492   -7.1306 C.ar    1  UNL1        0.1759
     20 N           8.2549   -0.3245   -8.4500 N.ar    1  UNL1       -0.2201
     21 C           8.7239    0.7270   -9.2190 C.ar    1  UNL1        0.0330
     22 C           9.0999    0.2043  -10.4351 C.ar    1  UNL1       -0.0237
     23 C           8.7682   -1.1568  -10.3463 C.ar    1  UNL1        0.0498
     24 N           8.2888   -1.4925   -9.1455 N.ar    1  UNL1       -0.1734
     25 N           8.2076   -1.0472   -6.1554 N.ar    1  UNL1       -0.1279
     26 N           7.7360   -0.9158   -4.8312 N.ar    1  UNL1       -0.1309
     27 H           0.6113    0.0287    0.9728 H       1  UNL1        0.0248
     28 H           0.6219   -0.9174   -0.5082 H       1  UNL1        0.0248
     29 H           0.6680    0.8586   -0.5678 H       1  UNL1        0.0248
     30 H           2.9471    0.8702    0.4180 H       1  UNL1        0.0499
     31 H           4.1357   -1.3266    0.8930 H       1  UNL1        0.0331
     32 H           2.6994   -2.1843    0.3673 H       1  UNL1        0.0331
     33 H           2.5716    0.9269    2.5238 H       1  UNL1        0.0621
     34 H           1.6709    0.9220    4.7772 H       1  UNL1        0.0654
     35 H           0.9486   -0.3862    6.4952 H       1  UNL1        0.2921
     36 H           1.5962   -3.3815    4.7567 H       1  UNL1        0.0654
     37 H           2.4561   -3.3942    2.4405 H       1  UNL1        0.0621
     38 H           2.5255   -0.0713   -2.1606 H       1  UNL1        0.1506
     39 H           4.2672   -0.1433   -3.6876 H       1  UNL1        0.1743
     40 H           6.8813   -0.3989   -2.5269 H       1  UNL1        0.1716
     41 H           5.4199    1.4308   -5.3029 H       1  UNL1        0.0654
     42 H           6.2814    1.2846   -7.6192 H       1  UNL1        0.0656
     43 H           8.8207    1.7226   -8.8102 H       1  UNL1        0.0831
     44 H           9.5570    0.7246  -11.2670 H       1  UNL1        0.0648
     45 H           8.8751   -1.9218  -11.1068 H       1  UNL1        0.0848
@<TRIPOS>BOND
     1     1     2    1
     2     2     3    1
     3     3     4    1
     4     4     5   ar
     5     5     6   ar
     6     6     7   ar
     7     7     8    1
     8     7     9   ar
     9     9    10   ar
    10     4    10   ar
    11     2    11    1
    12    11    12   am
    13    12    13    2
    14    12    14   am
    15    14    15    1
    16    15    16    1
    17    16    17   ar
    18    17    18   ar
    19    18    19   ar
    20    19    20    1
    21    20    21   ar
    22    21    22   ar
    23    22    23   ar
    24    23    24   ar
    25    20    24   ar
    26    19    25   ar
    27    25    26   ar
    28    16    26   ar
    29     1    27    1
    30     1    28    1
    31     1    29    1
    32     2    30    1
    33     3    31    1
    34     3    32    1
    35     5    33    1
    36     6    34    1
    37     8    35    1
    38     9    36    1
    39    10    37    1
    40    11    38    1
    41    14    39    1
    42    15    40    1
    43    17    41    1
    44    18    42    1
    45    21    43    1
    46    22    44    1
    47    23    45    1
