@<TRIPOS>MOLECULE
*****
 28 29 0 0 0
SMALL
GASTEIGER

@<TRIPOS>ATOM
      1 O           1.1278   -0.0700   -0.0162 O.2     1  UNL1       -0.2687
      2 C           2.3553   -0.0188   -0.0728 C.2     1  UNL1        0.2603
      3 N           3.0950   -0.6728   -1.0527 N.am    1  UNL1       -0.2300
      4 N           2.4166   -1.4114   -2.0621 N.am    1  UNL1       -0.2276
      5 C           3.1216   -2.1735   -2.9948 C.2     1  UNL1        0.2954
      6 O           4.3548   -2.2507   -2.9586 O.2     1  UNL1       -0.2653
      7 C           2.2882   -2.8208   -4.0005 C.ar    1  UNL1        0.1905
      8 C           1.2203   -2.3353   -4.7370 C.ar    1  UNL1       -0.0112
      9 C           0.7397   -3.3974   -5.5396 C.ar    1  UNL1       -0.0231
     10 C           1.5567   -4.4708   -5.2766 C.ar    1  UNL1        0.0928
     11 O           2.5138   -4.1289   -4.3667 O.2     1  UNL1       -0.4583
     12 C           3.1137    0.7878    0.9354 C.ar    1  UNL1        0.0416
     13 C           2.7519    0.7616    2.2938 C.ar    1  UNL1       -0.0494
     14 C           3.4036    1.5923    3.2215 C.ar    1  UNL1       -0.0576
     15 C           4.4094    2.4641    2.7992 C.ar    1  UNL1       -0.0201
     16 C           4.7603    2.4859    1.4522 C.ar    1  UNL1        0.1176
     17 O           5.7291    3.3222    0.9780 O.3     1  UNL1       -0.5067
     18 C           4.1236    1.6613    0.5223 C.ar    1  UNL1       -0.0080
     19 H           4.1128   -0.7121   -1.0636 H       1  UNL1        0.1731
     20 H           1.3991   -1.4113   -2.0169 H       1  UNL1        0.1732
     21 H           0.8479   -1.3227   -4.7005 H       1  UNL1        0.0657
     22 H          -0.0958   -3.3805   -6.2271 H       1  UNL1        0.0649
     23 H           1.5800   -5.4908   -5.6420 H       1  UNL1        0.1029
     24 H           1.9574    0.1036    2.6412 H       1  UNL1        0.0625
     25 H           3.1173    1.5699    4.2725 H       1  UNL1        0.0619
     26 H           4.8908    3.1174    3.5232 H       1  UNL1        0.0654
     27 H           6.1069    3.8329    1.7134 H       1  UNL1        0.2921
     28 H           4.3935    1.7468   -0.5250 H       1  UNL1        0.0661
@<TRIPOS>BOND
     1     1     2    2
     2     2     3   am
     3     3     4    1
     4     4     5   am
     5     5     6    2
     6     5     7    1
     7     7     8   ar
     8     8     9   ar
     9     9    10   ar
    10    10    11   ar
    11     7    11   ar
    12     2    12    1
    13    12    13   ar
    14    13    14   ar
    15    14    15   ar
    16    15    16   ar
    17    16    17    1
    18    16    18   ar
    19    12    18   ar
    20     3    19    1
    21     4    20    1
    22     8    21    1
    23     9    22    1
    24    10    23    1
    25    13    24    1
    26    14    25    1
    27    15    26    1
    28    17    27    1
    29    18    28    1
