@<TRIPOS>MOLECULE
*****
 68 70 0 0 0
SMALL
GASTEIGER

@<TRIPOS>ATOM
      1 C           1.0632   -0.0069   -0.0731 C.3     1  UNL1        0.0364
      2 O           2.4876    0.0138   -0.0854 O.3     1  UNL1       -0.3829
      3 C           2.9709    1.1634   -0.7795 C.3     1  UNL1        0.0487
      4 C           4.4961    1.1562   -0.7759 C.3     1  UNL1       -0.0138
      5 C           5.0392    2.3777   -1.5093 C.3     1  UNL1        0.0140
      6 N           6.4909    2.4269   -1.5371 N.am    1  UNL1       -0.3113
      7 C           7.1505    3.5029   -2.1060 C.2     1  UNL1        0.2441
      8 O           6.5727    4.4608   -2.6130 O.2     1  UNL1       -0.2702
      9 C           8.6384    3.4602   -2.1156 C.ar    1  UNL1        0.0368
     10 C           9.4041    4.6242   -1.9454 C.ar    1  UNL1       -0.0479
     11 C          10.8102    4.5992   -2.1145 C.ar    1  UNL1       -0.0398
     12 C          11.4696    3.3933   -2.3977 C.ar    1  UNL1        0.0335
     13 N          12.8972    3.3296   -2.4629 N.am    1  UNL1       -0.2842
     14 C          13.6243    2.1495   -2.6464 C.2     1  UNL1        0.2343
     15 O          13.1358    1.0268   -2.8020 O.2     1  UNL1       -0.2738
     16 C          15.1597    2.2609   -2.6201 C.3     1  UNL1        0.0861
     17 N          15.7289    0.9570   -2.9909 N.pl3   1  UNL1       -0.3354
     18 C          17.0528    0.5989   -2.8933 C.ar    1  UNL1        0.0283
     19 C          17.5867   -0.2971   -3.8192 C.ar    1  UNL1       -0.0394
     20 C          18.9267   -0.6802   -3.7536 C.ar    1  UNL1       -0.0409
     21 C          19.7774   -0.1354   -2.7851 C.ar    1  UNL1        0.0532
     22 CL         21.4397   -0.5961   -2.9291 Cl      1  UNL1       -0.0828
     23 C          19.2675    0.7538   -1.8232 C.ar    1  UNL1        0.0567
     24 C          20.1173    1.2874   -0.7041 C.2     1  UNL1        0.2458
     25 O          21.2956    0.9555   -0.5753 O.2     1  UNL1       -0.2701
     26 N          19.5399    2.1575    0.2044 N.am    1  UNL1       -0.3085
     27 C          20.2833    2.6586    1.3525 C.3     1  UNL1        0.0234
     28 C          19.8436    4.0928    1.6560 C.3     1  UNL1       -0.0345
     29 C          20.5321    4.6451    2.8986 C.3     1  UNL1       -0.0514
     30 C          20.3163    3.7364    4.1041 C.3     1  UNL1       -0.0529
     31 C          20.7811    2.3139    3.8069 C.3     1  UNL1       -0.0514
     32 C          20.0855    1.7474    2.5708 C.3     1  UNL1       -0.0345
     33 C          17.9054    1.1162   -1.9149 C.ar    1  UNL1       -0.0273
     34 C          10.6729    2.2587   -2.5862 C.ar    1  UNL1       -0.0398
     35 C           9.2849    2.2777   -2.4414 C.ar    1  UNL1       -0.0479
     36 H           0.7277   -0.8978    0.4642 H       1  UNL1        0.0523
     37 H           0.6752   -0.0471   -1.0958 H       1  UNL1        0.0523
     38 H           0.6750    0.8789    0.4395 H       1  UNL1        0.0523
     39 H           2.5977    2.0656   -0.2814 H       1  UNL1        0.0560
     40 H           2.5969    1.1437   -1.8096 H       1  UNL1        0.0560
     41 H           4.8626    0.2316   -1.2393 H       1  UNL1        0.0302
     42 H           4.8623    1.1342    0.2582 H       1  UNL1        0.0302
     43 H           4.6799    3.2975   -1.0331 H       1  UNL1        0.0463
     44 H           4.6845    2.3867   -2.5471 H       1  UNL1        0.0463
     45 H           7.0160    1.6964   -1.0728 H       1  UNL1        0.1490
     46 H           8.9026    5.5558   -1.6847 H       1  UNL1        0.0626
     47 H          11.3515    5.5404   -2.0365 H       1  UNL1        0.0636
     48 H          13.4019    4.1925   -2.2896 H       1  UNL1        0.1549
     49 H          15.4625    2.5708   -1.6162 H       1  UNL1        0.0557
     50 H          15.4842    2.9939   -3.3625 H       1  UNL1        0.0557
     51 H          15.0405    0.2005   -3.0663 H       1  UNL1        0.1466
     52 H          16.9715   -0.6738   -4.6345 H       1  UNL1        0.0636
     53 H          19.3099   -1.4023   -4.4719 H       1  UNL1        0.0633
     54 H          18.5511    2.3417    0.2055 H       1  UNL1        0.1493
     55 H          21.3502    2.6687    1.0965 H       1  UNL1        0.0498
     56 H          18.7556    4.1256    1.7988 H       1  UNL1        0.0283
     57 H          20.0645    4.7361    0.7957 H       1  UNL1        0.0283
     58 H          20.1490    5.6479    3.1154 H       1  UNL1        0.0266
     59 H          21.6074    4.7446    2.7058 H       1  UNL1        0.0266
     60 H          19.2525    3.7273    4.3726 H       1  UNL1        0.0265
     61 H          20.8621    4.1326    4.9673 H       1  UNL1        0.0265
     62 H          20.5845    1.6713    4.6719 H       1  UNL1        0.0266
     63 H          21.8663    2.3137    3.6455 H       1  UNL1        0.0266
     64 H          19.0136    1.6312    2.7791 H       1  UNL1        0.0283
     65 H          20.4715    0.7426    2.3613 H       1  UNL1        0.0283
     66 H          17.4621    1.7884   -1.1964 H       1  UNL1        0.0644
     67 H          11.0886    1.3053   -2.8819 H       1  UNL1        0.0636
     68 H           8.7366    1.3613   -2.6345 H       1  UNL1        0.0626
@<TRIPOS>BOND
     1     1     2    1
     2     2     3    1
     3     3     4    1
     4     4     5    1
     5     5     6    1
     6     6     7   am
     7     7     8    2
     8     7     9    1
     9     9    10   ar
    10    10    11   ar
    11    11    12   ar
    12    12    13    1
    13    13    14   am
    14    14    15    2
    15    14    16    1
    16    16    17    1
    17    17    18    1
    18    18    19   ar
    19    19    20   ar
    20    20    21   ar
    21    21    22    1
    22    21    23   ar
    23    23    24    1
    24    24    25    2
    25    24    26   am
    26    26    27    1
    27    27    28    1
    28    28    29    1
    29    29    30    1
    30    30    31    1
    31    31    32    1
    32    27    32    1
    33    23    33   ar
    34    18    33   ar
    35    12    34   ar
    36    34    35   ar
    37     9    35   ar
    38     1    36    1
    39     1    37    1
    40     1    38    1
    41     3    39    1
    42     3    40    1
    43     4    41    1
    44     4    42    1
    45     5    43    1
    46     5    44    1
    47     6    45    1
    48    10    46    1
    49    11    47    1
    50    13    48    1
    51    16    49    1
    52    16    50    1
    53    17    51    1
    54    19    52    1
    55    20    53    1
    56    26    54    1
    57    27    55    1
    58    28    56    1
    59    28    57    1
    60    29    58    1
    61    29    59    1
    62    30    60    1
    63    30    61    1
    64    31    62    1
    65    31    63    1
    66    32    64    1
    67    32    65    1
    68    33    66    1
    69    34    67    1
    70    35    68    1
