@<TRIPOS>MOLECULE
*****
 56 59 0 0 0
SMALL
GASTEIGER

@<TRIPOS>ATOM
      1 C           0.9936   -0.0973   -0.0118 C.3     1  UNL1       -0.0652
      2 C           2.5027   -0.1043   -0.0108 C.3     1  UNL1       -0.0528
      3 C           3.0280   -1.5161    0.1693 C.3     1  UNL1       -0.0189
      4 C           4.5505   -1.5344    0.1708 C.3     1  UNL1        0.0896
      5 O           5.0033   -2.8875    0.3035 O.3     1  UNL1       -0.4920
      6 C           6.3544   -3.0787    0.3392 C.ar    1  UNL1        0.1205
      7 C           6.9124   -4.1601   -0.3170 C.ar    1  UNL1       -0.0193
      8 C           8.2437   -4.5226   -0.0567 C.ar    1  UNL1       -0.0491
      9 C           9.1134   -3.7013    0.6360 C.ar    1  UNL1        0.0023
     10 C          10.5557   -3.9673    0.6894 C.ar    1  UNL1        0.0932
     11 C          11.3106   -4.1805    1.8643 C.ar    1  UNL1       -0.0041
     12 C          12.6259   -4.3887    1.5190 C.ar    1  UNL1        0.1224
     13 C          13.8100   -4.6610    2.3543 C.2     1  UNL1        0.2810
     14 O          14.9148   -4.8156    1.8345 O.2     1  UNL1       -0.2668
     15 N          13.6290   -4.7360    3.7752 N.am    1  UNL1       -0.2017
     16 N          14.7320   -4.9981    4.6026 N.2     1  UNL1       -0.1873
     17 C          14.5931   -5.0737    5.8917 C.2     1  UNL1        0.0569
     18 C          15.7620   -5.3433    6.7823 C.ar    1  UNL1        0.0436
     19 C          15.6168   -6.2345    7.8589 C.ar    1  UNL1        0.1261
     20 O          14.5859   -7.1271    8.0297 O.3     1  UNL1       -0.5061
     21 C          16.6418   -6.2605    8.8082 C.ar    1  UNL1       -0.0189
     22 C          17.8578   -5.6445    8.5992 C.ar    1  UNL1       -0.0505
     23 C          17.9904   -4.7913    7.5496 C.ar    1  UNL1       -0.0170
     24 C          19.1465   -4.0876    7.5364 C.ar    1  UNL1       -0.0540
     25 C          19.2530   -3.3553    6.4081 C.ar    1  UNL1       -0.0612
     26 C          19.4167   -2.6639    5.3669 C.ar    1  UNL1       -0.0611
     27 C          17.7771   -3.6093    5.4752 C.ar    1  UNL1       -0.0533
     28 C          17.0484   -4.5942    6.5573 C.ar    1  UNL1       -0.0057
     29 N          12.6022   -4.2818    0.1383 N.ar    1  UNL1       -0.2719
     30 N          11.3639   -4.0277   -0.3848 N.ar    1  UNL1       -0.1732
     31 C           8.5418   -2.6193    1.2758 C.ar    1  UNL1       -0.0491
     32 C           7.1900   -2.3063    1.1145 C.ar    1  UNL1       -0.0193
     33 H           0.6190    0.9191   -0.1419 H       1  UNL1        0.0230
     34 H           0.6141   -0.4919    0.9331 H       1  UNL1        0.0230
     35 H           0.6141   -0.7172   -0.8267 H       1  UNL1        0.0230
     36 H           2.8680    0.5296    0.8008 H       1  UNL1        0.0264
     37 H           2.8680    0.3047   -0.9560 H       1  UNL1        0.0264
     38 H           2.6510   -2.1510   -0.6384 H       1  UNL1        0.0298
     39 H           2.6512   -1.9269    1.1117 H       1  UNL1        0.0298
     40 H           4.8947   -0.8978    0.9896 H       1  UNL1        0.0696
     41 H           4.9056   -1.1251   -0.7780 H       1  UNL1        0.0696
     42 H           6.3452   -4.7110   -1.0578 H       1  UNL1        0.0654
     43 H           8.6174   -5.4819   -0.3646 H       1  UNL1        0.0625
     44 H          10.9352   -4.1917    2.8639 H       1  UNL1        0.0662
     45 H          12.7197   -4.6067    4.2037 H       1  UNL1        0.1776
     46 H          13.6118   -4.9383    6.3822 H       1  UNL1        0.0853
     47 H          13.9183   -7.1371    7.3181 H       1  UNL1        0.2922
     48 H          16.5294   -6.7243    9.7729 H       1  UNL1        0.0654
     49 H          18.7051   -5.8174    9.2538 H       1  UNL1        0.0625
     50 H          20.0298   -4.1347    8.0903 H       1  UNL1        0.0624
     51 H          18.8165   -2.4894    5.5723 H       1  UNL1        0.0618
     52 H          20.6290   -2.2022    5.8994 H       1  UNL1        0.0618
     53 H          16.8030   -3.6006    4.7448 H       1  UNL1        0.0624
     54 H          13.4021   -4.3781   -0.4850 H       1  UNL1        0.1891
     55 H           9.1363   -2.0011    1.9223 H       1  UNL1        0.0625
     56 H           6.7980   -1.4261    1.5854 H       1  UNL1        0.0654
@<TRIPOS>BOND
     1     1     2    1
     2     2     3    1
     3     3     4    1
     4     4     5    1
     5     5     6    1
     6     6     7   ar
     7     7     8   ar
     8     8     9   ar
     9     9    10    1
    10    10    11   ar
    11    11    12   ar
    12    12    13    1
    13    13    14    2
    14    13    15   am
    15    15    16    1
    16    16    17    2
    17    17    18    1
    18    18    19   ar
    19    19    20    1
    20    19    21   ar
    21    21    22   ar
    22    22    23   ar
    23    23    24   ar
    24    24    25   ar
    25    25    26   ar
    26    26    27   ar
    27    27    28   ar
    28    18    28   ar
    29    23    28   ar
    30    12    29   ar
    31    29    30   ar
    32    10    30   ar
    33     9    31   ar
    34    31    32   ar
    35     6    32   ar
    36     1    33    1
    37     1    34    1
    38     1    35    1
    39     2    36    1
    40     2    37    1
    41     3    38    1
    42     3    39    1
    43     4    40    1
    44     4    41    1
    45     7    42    1
    46     8    43    1
    47    11    44    1
    48    15    45    1
    49    17    46    1
    50    20    47    1
    51    21    48    1
    52    22    49    1
    53    24    50    1
    54    25    51    1
    55    26    52    1
    56    27    53    1
    57    29    54    1
    58    31    55    1
    59    32    56    1
