REMARK  5 active torsions:
REMARK  status: ('A' for Active; 'I' for Inactive)
REMARK    1  A    between atoms: C_2  and  N_4 
REMARK       I    between atoms: N_4  and  C_5 
REMARK       I    between atoms: C_5  and  N_7 
REMARK    2  A    between atoms: N_7  and  N_8 
REMARK       I    between atoms: N_8  and  C_9 
REMARK    3  A    between atoms: C_9  and  C_11 
REMARK    4  A    between atoms: C_11  and  C_12 
REMARK    5  A    between atoms: C_17  and  N_18 
ROOT
ATOM      1  N   UNL d   1       6.396  -2.869   1.715  0.00  0.00    -0.266 N 
ATOM      2  C   UNL d   1       6.801  -3.989   2.414  0.00  0.00     0.240 C 
ATOM      3  O   UNL d   1       5.972  -4.754   2.918  0.00  0.00    -0.272 OA
ATOM      4  H   UNL d   1       7.027  -2.158   1.349  0.00  0.00     0.190 HD
ENDROOT
BRANCH   2   5
ATOM      5  C   UNL d   1       8.329  -4.239   2.511  0.00  0.00     0.145 C 
BRANCH   5   6
ATOM      6  C   UNL d   1       8.615  -5.437   3.417  0.00  0.00    -0.016 A 
ATOM      7  C   UNL d   1       8.939  -6.672   2.813  0.00  0.00     0.010 A 
ATOM      8  C   UNL d   1       8.872  -7.869   3.537  0.00  0.00     0.001 A 
ATOM      9  C   UNL d   1       8.571  -7.852   4.895  0.00  0.00     0.002 A 
ATOM     10  C   UNL d   1       8.330  -6.637   5.535  0.00  0.00     0.037 A 
ATOM     11  C   UNL d   1       8.358  -5.429   4.811  0.00  0.00     0.109 A 
BRANCH  11  12
ATOM     12  N   UNL d   1       8.088  -4.185   5.568  0.00  0.00    -0.115 N 
ATOM     13  O   UNL d   1       7.841  -4.285   6.775  0.00  0.00    -0.532 OA
ATOM     14  O   UNL d   1       8.164  -3.097   4.976  0.00  0.00    -0.532 OA
ENDBRANCH  11  12
ENDBRANCH   5   6
ENDBRANCH   2   5
BRANCH   1  15
ATOM     15  N   UNL d   1       4.996  -2.585   1.589  0.00  0.00    -0.249 N 
ATOM     16  C   UNL d   1       4.609  -1.479   0.861  0.00  0.00     0.335 C 
ATOM     17  N   UNL d   1       3.247  -1.257   0.796  0.00  0.00    -0.338 N 
ATOM     18  O   UNL d   1       5.444  -0.742   0.331  0.00  0.00    -0.246 OA
ATOM     19  H   UNL d   1       2.615  -1.935   1.198  0.00  0.00     0.164 HD
ATOM     20  H   UNL d   1       4.359  -3.245   2.025  0.00  0.00     0.192 HD
BRANCH  17  21
ATOM     21  C   UNL d   1       2.676  -0.103   0.077  0.00  0.00     0.078 C 
ATOM     22  C   UNL d   1       1.140  -0.117   0.038  0.00  0.00     0.032 C 
ATOM     23  C   UNL d   1       3.121   1.220   0.705  0.00  0.00     0.032 C 
ENDBRANCH  17  21
ENDBRANCH   1  15
TORSDOF 5
