REMARK  4 active torsions:
REMARK  status: ('A' for Active; 'I' for Inactive)
REMARK    1  A    between atoms: C_7  and  N_8 
REMARK       I    between atoms: N_8  and  C_9 
REMARK    2  A    between atoms: C_9  and  C_11 
REMARK    3  A    between atoms: C_11  and  N_13 
REMARK       I    between atoms: N_13  and  C_14 
REMARK    4  A    between atoms: C_14  and  C_16 
ROOT
ATOM      1  C   UNL d   1       3.086   3.970  -0.142  0.00  0.00     0.173 C 
ATOM      2  C   UNL d   1       2.363   4.651   0.983  0.00  0.00     0.042 C 
ENDROOT
BRANCH   1   3
ATOM      3  C   UNL d   1       2.547   2.550  -0.156  0.00  0.00     0.244 C 
ATOM      4  N   UNL d   1       1.163   2.362  -0.118  0.00  0.00    -0.325 N 
ATOM      5  H   UNL d   1       0.585   3.195  -0.106  0.00  0.00     0.169 HD
ATOM      6  O   UNL d   1       3.450   1.705  -0.180  0.00  0.00    -0.271 OA
BRANCH   4   7
ATOM      7  C   UNL d   1       0.414   1.142  -0.042  0.00  0.00     0.040 A 
ATOM      8  C   UNL d   1      -0.998   1.219  -0.014  0.00  0.00     0.030 A 
ATOM      9  C   UNL d   1      -1.788   0.051  -0.003  0.00  0.00     0.002 A 
ATOM     10  C   UNL d   1      -1.191  -1.203   0.004  0.00  0.00     0.001 A 
ATOM     11  C   UNL d   1       0.186  -1.291   0.009  0.00  0.00     0.009 A 
ATOM     12  C   UNL d   1       0.983  -0.142  -0.009  0.00  0.00    -0.035 A 
ATOM     13  C   UNL d   1       2.443  -0.416  -0.006  0.00  0.00     0.050 C 
ENDBRANCH   4   7
ENDBRANCH   1   3
BRANCH   1  14
ATOM     14  N   UNL d   1       4.572   3.791   0.080  0.00  0.00    -0.344 N 
ATOM     15  C   UNL d   1       5.600   4.689   0.116  0.00  0.00     0.254 C 
ATOM     16  O   UNL d   1       6.605   4.525  -0.590  0.00  0.00    -0.268 OA
ATOM     17  H   UNL d   1       4.885   2.866  -0.233  0.00  0.00     0.163 HD
BRANCH  15  18
ATOM     18  C   UNL d   1       5.534   5.828   1.060  0.00  0.00     0.053 C 
ATOM     19  C   UNL d   1       6.337   6.952   0.882  0.00  0.00     0.019 C 
ATOM     20  C   UNL d   1       6.169   8.056   1.729  0.00  0.00     0.001 C 
ATOM     21  C   UNL d   1       5.098   8.104   2.623  0.00  0.00     0.002 C 
ATOM     22  C   UNL d   1       4.322   6.979   2.809  0.00  0.00     0.025 C 
ATOM     23  C   UNL d   1       4.742   5.801   2.206  0.00  0.00     0.049 C 
ATOM     24 CL   UNL d   1       4.573   4.367   3.175  0.00  0.00    -0.083 Cl
ENDBRANCH  15  18
ENDBRANCH   1  14
TORSDOF 4
