@<TRIPOS>MOLECULE
*****
 58 60 0 0 0
SMALL
GASTEIGER

@<TRIPOS>ATOM
      1 C           1.1489   -0.0229    0.0482 C.3     1  UNL1       -0.0570
      2 C           2.6790   -0.0443   -0.0122 C.3     1  UNL1        0.0215
      3 C           3.1289    0.1283   -1.4505 C.2     1  UNL1        0.2169
      4 O           2.3176   -0.0035   -2.3669 O.2     1  UNL1       -0.2755
      5 N           4.4804    0.3931   -1.6436 N.am    1  UNL1       -0.2852
      6 C           4.9907    0.7715   -2.9238 C.ar    1  UNL1        0.0381
      7 C           6.1083    0.0994   -3.4305 C.ar    1  UNL1       -0.0401
      8 C           6.6206    0.4511   -4.6786 C.ar    1  UNL1       -0.0582
      9 C           6.0399    1.4983   -5.4035 C.ar    1  UNL1       -0.0405
     10 C           4.9384    2.2322   -4.9097 C.ar    1  UNL1        0.0322
     11 N           4.4806    3.2822   -5.6929 N.pl3   1  UNL1       -0.3351
     12 C           3.3482    4.1201   -5.3503 C.3     1  UNL1        0.0861
     13 C           3.0311    5.1856   -6.3502 C.2     1  UNL1        0.2343
     14 O           3.6856    5.2940   -7.3845 O.2     1  UNL1       -0.2738
     15 N           2.0155    6.0494   -5.9144 N.am    1  UNL1       -0.2842
     16 C           1.6266    7.1433   -6.6994 C.ar    1  UNL1        0.0352
     17 C           1.2382    8.3544   -6.1481 C.ar    1  UNL1       -0.0404
     18 C           0.8319    9.3883   -7.0040 C.ar    1  UNL1       -0.0583
     19 C           0.7531    9.1887   -8.3932 C.ar    1  UNL1       -0.0404
     20 C           1.0606    7.9414   -8.9223 C.ar    1  UNL1        0.0354
     21 N           0.7885    7.6232  -10.2705 N.am    1  UNL1       -0.2814
     22 C           0.8227    6.3591  -10.8497 C.2     1  UNL1        0.2483
     23 O           1.2942    6.2178  -11.9854 O.2     1  UNL1       -0.2699
     24 C           0.1897    5.1785  -10.1478 C.ar    1  UNL1        0.0370
     25 C           0.3625    3.8831  -10.6483 C.ar    1  UNL1       -0.0496
     26 C          -0.1799    2.7866   -9.9612 C.ar    1  UNL1       -0.0610
     27 C          -0.8391    2.9652   -8.7428 C.ar    1  UNL1       -0.0617
     28 C          -1.0164    4.2428   -8.2387 C.ar    1  UNL1       -0.0610
     29 C          -0.5839    5.3344   -8.9842 C.ar    1  UNL1       -0.0496
     30 C           1.5894    6.9797   -8.0757 C.ar    1  UNL1       -0.0192
     31 C           4.4173    1.8662   -3.6402 C.ar    1  UNL1       -0.0084
     32 C           3.3192    2.6123   -2.9221 C.3     1  UNL1       -0.0362
     33 H           0.7806   -0.2551    1.0505 H       1  UNL1        0.0234
     34 H           0.7174   -0.7563   -0.6438 H       1  UNL1        0.0234
     35 H           0.7584    0.9603   -0.2436 H       1  UNL1        0.0234
     36 H           3.0462   -1.0137    0.3347 H       1  UNL1        0.0356
     37 H           3.0835    0.7450    0.6314 H       1  UNL1        0.0356
     38 H           5.1354    0.0105   -0.9746 H       1  UNL1        0.1548
     39 H           6.5575   -0.7341   -2.8973 H       1  UNL1        0.0636
     40 H           7.4673   -0.0903   -5.0982 H       1  UNL1        0.0619
     41 H           6.4713    1.7485   -6.3737 H       1  UNL1        0.0636
     42 H           4.8917    3.4630   -6.6063 H       1  UNL1        0.1466
     43 H           3.6208    4.7089   -4.4678 H       1  UNL1        0.0557
     44 H           2.4429    3.5092   -5.2459 H       1  UNL1        0.0557
     45 H           1.6460    5.9787   -4.9712 H       1  UNL1        0.1549
     46 H           1.3313    8.5387   -5.0818 H       1  UNL1        0.0636
     47 H           0.5619   10.3549   -6.5855 H       1  UNL1        0.0619
     48 H           0.4186    9.9995   -9.0329 H       1  UNL1        0.0636
     49 H           0.7116    8.3877  -10.9283 H       1  UNL1        0.1551
     50 H           0.9121    3.7161  -11.5731 H       1  UNL1        0.0625
     51 H          -0.0765    1.7839  -10.3680 H       1  UNL1        0.0618
     52 H          -1.2290    2.1139   -8.1920 H       1  UNL1        0.0618
     53 H          -1.4865    4.4085   -7.2733 H       1  UNL1        0.0618
     54 H          -0.8060    6.3163   -8.5831 H       1  UNL1        0.0625
     55 H           1.8805    6.0181   -8.4832 H       1  UNL1        0.0655
     56 H           2.9477    3.5340   -3.3161 H       1  UNL1        0.0279
     57 H           3.6624    2.9107   -1.9293 H       1  UNL1        0.0279
     58 H           2.3994    2.0382   -2.9082 H       1  UNL1        0.0279
@<TRIPOS>BOND
     1     1     2    1
     2     2     3    1
     3     3     4    2
     4     3     5   am
     5     5     6    1
     6     6     7   ar
     7     7     8   ar
     8     8     9   ar
     9     9    10   ar
    10    10    11    1
    11    11    12    1
    12    12    13    1
    13    13    14    2
    14    13    15   am
    15    15    16    1
    16    16    17   ar
    17    17    18   ar
    18    18    19   ar
    19    19    20   ar
    20    20    21    1
    21    21    22   am
    22    22    23    2
    23    22    24    1
    24    24    25   ar
    25    25    26   ar
    26    26    27   ar
    27    27    28   ar
    28    28    29   ar
    29    24    29   ar
    30    20    30   ar
    31    16    30   ar
    32    10    31   ar
    33     6    31   ar
    34    31    32    1
    35     1    33    1
    36     1    34    1
    37     1    35    1
    38     2    36    1
    39     2    37    1
    40     5    38    1
    41     7    39    1
    42     8    40    1
    43     9    41    1
    44    11    42    1
    45    12    43    1
    46    12    44    1
    47    15    45    1
    48    17    46    1
    49    18    47    1
    50    19    48    1
    51    21    49    1
    52    25    50    1
    53    26    51    1
    54    27    52    1
    55    28    53    1
    56    29    54    1
    57    30    55    1
    58    32    56    1
    59    32    57    1
    60    32    58    1
