REMARK  5 active torsions:
REMARK  status: ('A' for Active; 'I' for Inactive)
REMARK       I    between atoms: C_2  and  N_3 
REMARK    1  A    between atoms: C_2  and  C_17 
REMARK    2  A    between atoms: N_3  and  N_4 
REMARK       I    between atoms: N_4  and  C_5 
REMARK    3  A    between atoms: C_5  and  C_7 
REMARK    4  A    between atoms: C_9  and  C_10 
REMARK    5  A    between atoms: C_22  and  O_23 
ROOT
ATOM      1  N   UNL d   1       2.451  -1.337   2.183  0.00  0.00    -0.267 N 
ATOM      2  C   UNL d   1       3.103  -2.180   3.064  0.00  0.00     0.240 C 
ATOM      3  O   UNL d   1       4.329  -2.312   3.069  0.00  0.00    -0.271 OA
ATOM      4  H   UNL d   1       1.437  -1.247   2.146  0.00  0.00     0.190 HD
ENDROOT
BRANCH   1   5
ATOM      5  N   UNL d   1       3.116  -0.766   1.071  0.00  0.00    -0.263 N 
ATOM      6  C   UNL d   1       2.338  -0.068   0.154  0.00  0.00     0.272 C 
ATOM      7  O   UNL d   1       1.109  -0.068   0.194  0.00  0.00    -0.266 OA
ATOM      8  H   UNL d   1       4.128  -0.709   1.123  0.00  0.00     0.190 HD
BRANCH   6   9
ATOM      9  C   UNL d   1       3.037   0.704  -0.906  0.00  0.00     0.066 A 
ATOM     10  C   UNL d   1       4.060   0.122  -1.668  0.00  0.00     0.020 A 
ATOM     11  C   UNL d   1       4.644   0.841  -2.719  0.00  0.00     0.001 A 
ATOM     12  C   UNL d   1       4.217   2.138  -3.011  0.00  0.00     0.003 A 
ATOM     13  C   UNL d   1       3.199   2.724  -2.258  0.00  0.00     0.037 A 
ATOM     14  C   UNL d   1       2.611   2.007  -1.213  0.00  0.00     0.081 A 
BRANCH  14  15
ATOM     15  O   UNL d   1       1.636   2.598  -0.457  0.00  0.00    -0.360 OA
ATOM     16  H   UNL d   1       1.359   3.439  -0.851  0.00  0.00     0.217 HD
ENDBRANCH  14  15
ENDBRANCH   6   9
ENDBRANCH   1   5
BRANCH   2  17
ATOM     17  C   UNL d   1       2.283  -2.880   4.123  0.00  0.00     0.088 A 
ATOM     18  C   UNL d   1       1.954  -4.365   4.056  0.00  0.00     0.025 A 
ATOM     19  C   UNL d   1       0.846  -3.357   3.945  0.00  0.00     0.032 A 
BRANCH  19  20
ATOM     20  C   UNL d   1       0.117  -3.076   2.655  0.00  0.00    -0.050 A 
ATOM     21  C   UNL d   1       0.570  -3.552   1.408  0.00  0.00     0.007 A 
ATOM     22  C   UNL d   1       0.035  -3.082   0.210  0.00  0.00     0.004 A 
ATOM     23  C   UNL d   1      -1.005  -2.159   0.234  0.00  0.00     0.042 A 
ATOM     24  C   UNL d   1      -1.493  -1.708   1.452  0.00  0.00     0.116 A 
ATOM     25  F   UNL d   1      -2.468  -0.790   1.479  0.00  0.00    -0.206 F 
ATOM     26  C   UNL d   1      -0.946  -2.155   2.650  0.00  0.00     0.049 A 
ENDBRANCH  19  20
ENDBRANCH   2  17
TORSDOF 5
