@<TRIPOS>MOLECULE
*****
 48 49 0 0 0
SMALL
GASTEIGER

@<TRIPOS>ATOM
      1 C           0.3535   -2.3735   -0.0067 C.3     1  UNL1       -0.0385
      2 C           1.0375   -1.0370    0.0011 C.ar    1  UNL1       -0.0330
      3 C           2.4469   -1.0060   -0.0011 C.ar    1  UNL1       -0.0160
      4 C           3.1485    0.1945   -0.0004 C.ar    1  UNL1        0.1215
      5 O           4.5149    0.2895    0.0007 O.3     1  UNL1       -0.4828
      6 C           5.3357   -0.9108    0.0168 C.3     1  UNL1        0.1655
      7 C           6.8349   -0.4877    0.0292 C.2     1  UNL1        0.2561
      8 O           7.0910    0.7186    0.0292 O.2     1  UNL1       -0.2717
      9 N           7.8509   -1.4842    0.0405 N.am    1  UNL1       -0.2639
     10 C           9.2547   -1.2459    0.0485 C.2     1  UNL1        0.1531
     11 S           9.9839    0.2793    0.0523 S.2     1  UNL1       -0.0170
     12 N          10.0806   -2.3888    0.0518 N.am    1  UNL1       -0.2455
     13 N          11.5364   -2.2140    0.0330 N.am    1  UNL1       -0.2323
     14 C          12.4049   -3.3027    0.0175 C.2     1  UNL1        0.2667
     15 O          11.9730   -4.4611    0.0275 O.2     1  UNL1       -0.2705
     16 C          13.9265   -2.9506    0.0425 C.3     1  UNL1        0.1666
     17 O          14.7838   -4.1007    0.0471 O.3     1  UNL1       -0.4825
     18 C          16.1516   -3.9470    0.0983 C.ar    1  UNL1        0.1242
     19 C          16.8789   -4.8371   -0.7172 C.ar    1  UNL1       -0.0183
     20 C          18.2837   -4.8575   -0.7170 C.ar    1  UNL1       -0.0399
     21 C          18.9808   -4.0097    0.1312 C.ar    1  UNL1        0.0414
     22 CL         20.7020   -4.0129    0.1506 Cl      1  UNL1       -0.0835
     23 C          18.2824   -3.1473    0.9696 C.ar    1  UNL1       -0.0370
     24 C          16.8688   -3.0990    0.9602 C.ar    1  UNL1       -0.0074
     25 C          16.2243   -2.1342    1.9046 C.3     1  UNL1       -0.0362
     26 C           2.4178    1.3940   -0.0026 C.ar    1  UNL1       -0.0189
     27 C           1.0130    1.3845    0.0029 C.ar    1  UNL1       -0.0441
     28 C           0.3256    0.1707    0.0049 C.ar    1  UNL1        0.0210
     29 BR         -1.5746    0.2138    0.0059 Br      1  UNL1       -0.0500
     30 H           1.0839   -3.1896   -0.0042 H       1  UNL1        0.0278
     31 H          -0.2555   -2.4834   -0.9089 H       1  UNL1        0.0278
     32 H          -0.2688   -2.4904    0.8854 H       1  UNL1        0.0278
     33 H           2.9810   -1.9478   -0.0066 H       1  UNL1        0.0657
     34 H           5.1339   -1.4936   -0.8877 H       1  UNL1        0.0795
     35 H           5.1165   -1.4832    0.9240 H       1  UNL1        0.0795
     36 H           7.5489   -2.4496    0.0394 H       1  UNL1        0.1566
     37 H           9.7807   -3.3631    0.0574 H       1  UNL1        0.1718
     38 H          11.8552   -1.2428    0.0572 H       1  UNL1        0.1729
     39 H          14.0368   -2.3797    0.9620 H       1  UNL1        0.0795
     40 H          14.1746   -2.3197   -0.8199 H       1  UNL1        0.0795
     41 H          16.3516   -5.5300   -1.3703 H       1  UNL1        0.0655
     42 H          18.8244   -5.5370   -1.3719 H       1  UNL1        0.0633
     43 H          18.8431   -2.5056    1.6479 H       1  UNL1        0.0636
     44 H          16.9533   -1.6237    2.5402 H       1  UNL1        0.0279
     45 H          15.5242   -2.6589    2.5617 H       1  UNL1        0.0279
     46 H          15.7263   -1.3499    1.3287 H       1  UNL1        0.0279
     47 H           2.9311    2.3544   -0.0099 H       1  UNL1        0.0654
     48 H           0.4630    2.3247    0.0040 H       1  UNL1        0.0630
@<TRIPOS>BOND
     1     1     2    1
     2     2     3   ar
     3     3     4   ar
     4     4     5    1
     5     5     6    1
     6     6     7    1
     7     7     8    2
     8     7     9   am
     9     9    10    1
    10    10    11    2
    11    10    12    1
    12    12    13    1
    13    13    14   am
    14    14    15    2
    15    14    16    1
    16    16    17    1
    17    17    18    1
    18    18    19   ar
    19    19    20   ar
    20    20    21   ar
    21    21    22    1
    22    21    23   ar
    23    23    24   ar
    24    18    24   ar
    25    24    25    1
    26     4    26   ar
    27    26    27   ar
    28    27    28   ar
    29     2    28   ar
    30    28    29    1
    31     1    30    1
    32     1    31    1
    33     1    32    1
    34     3    33    1
    35     6    34    1
    36     6    35    1
    37     9    36    1
    38    12    37    1
    39    13    38    1
    40    16    39    1
    41    16    40    1
    42    19    41    1
    43    20    42    1
    44    23    43    1
    45    25    44    1
    46    25    45    1
    47    25    46    1
    48    26    47    1
    49    27    48    1
