REMARK  10 active torsions:
REMARK  status: ('A' for Active; 'I' for Inactive)
REMARK    1  A    between atoms: O_2  and  C_3 
REMARK    2  A    between atoms: C_3  and  C_5 
REMARK    3  A    between atoms: N_7  and  C_8 
REMARK    4  A    between atoms: C_10  and  C_11 
REMARK       I    between atoms: C_11  and  N_13 
REMARK    5  A    between atoms: N_13  and  C_14 
REMARK    6  A    between atoms: C_14  and  C_15 
REMARK    7  A    between atoms: C_15  and  C_16 
REMARK    8  A    between atoms: N_25  and  C_26 
REMARK    9  A    between atoms: C_26  and  C_27 
REMARK   10  A    between atoms: C_29  and  C_30 
ROOT
ATOM      1  C   UNL d   1       7.883   0.849  -0.391  0.00  0.00     0.132 C 
ATOM      2  C   UNL d   1       8.671  -0.459  -0.587  0.00  0.00     0.072 C 
ATOM      3  C   UNL d   1       9.850  -0.469   0.383  0.00  0.00     0.281 C 
ATOM      4  N   UNL d   1      10.252   1.068   0.457  0.00  0.00    -0.053 N 
ATOM      5  C   UNL d   1       8.950   1.883   0.093  0.00  0.00     0.263 C 
ATOM      6  H   UNL d   1      10.948   1.204  -0.294  0.00  0.00     0.281 HD
ENDROOT
BRANCH   3   7
ATOM      7  C   UNL d   1      10.979  -1.456   0.020  0.00  0.00     0.248 C 
ATOM      8  O   UNL d   1      12.111  -1.038  -0.215  0.00  0.00    -0.271 OA
ATOM      9  N   UNL d   1      10.639  -2.807   0.041  0.00  0.00    -0.359 N 
ATOM     10  H   UNL d   1       9.718  -3.130   0.323  0.00  0.00     0.162 HD
BRANCH   9  11
ATOM     11  C   UNL d   1      11.633  -3.834  -0.274  0.00  0.00     0.127 C 
BRANCH  11  12
ATOM     12  C   UNL d   1      11.123  -5.284  -0.256  0.00  0.00     0.060 C 
BRANCH  12  13
ATOM     13  C   UNL d   1      12.179  -6.287  -0.637  0.00  0.00    -0.029 A 
ATOM     14  C   UNL d   1      13.446  -6.040  -1.134  0.00  0.00     0.096 A 
ATOM     15  N   UNL d   1      14.080  -7.237  -1.340  0.00  0.00    -0.365 N 
ATOM     16  C   UNL d   1      13.232  -8.277  -1.044  0.00  0.00     0.042 A 
ATOM     17  H   UNL d   1      15.023  -7.344  -1.689  0.00  0.00     0.165 HD
ATOM     18  C   UNL d   1      13.423  -9.660  -1.153  0.00  0.00     0.030 A 
ATOM     19  C   UNL d   1      12.039  -7.713  -0.588  0.00  0.00    -0.002 A 
ATOM     20  C   UNL d   1      12.352 -10.489  -0.804  0.00  0.00     0.002 A 
ATOM     21  C   UNL d   1      11.153  -9.956  -0.335  0.00  0.00     0.001 A 
ATOM     22  C   UNL d   1      10.989  -8.573  -0.211  0.00  0.00     0.014 A 
ENDBRANCH  12  13
ENDBRANCH  11  12
ENDBRANCH   9  11
ENDBRANCH   3   7
BRANCH   4  23
ATOM     23  C   UNL d   1      10.988   1.545   1.735  0.00  0.00     0.270 C 
BRANCH  23  24
ATOM     24  C   UNL d   1      10.268   1.331   3.044  0.00  0.00    -0.058 C 
ATOM     25  C   UNL d   1       8.912   0.774   2.972  0.00  0.00     0.045 C 
ATOM     26  C   UNL d   1      10.674   1.677   4.281  0.00  0.00     0.015 C 
BRANCH  26  27
ATOM     27  C   UNL d   1       9.849   1.347   5.476  0.00  0.00    -0.036 A 
ATOM     28  C   UNL d   1       9.613   2.304   6.455  0.00  0.00     0.011 A 
ATOM     29  C   UNL d   1       8.901   1.952   7.607  0.00  0.00     0.001 A 
ATOM     30  C   UNL d   1       8.290   0.701   7.724  0.00  0.00     0.000 A 
ATOM     31  C   UNL d   1       8.448  -0.239   6.723  0.00  0.00     0.001 A 
ATOM     32  C   UNL d   1       9.281   0.064   5.654  0.00  0.00     0.011 A 
ENDBRANCH  26  27
ENDBRANCH  23  24
ENDBRANCH   4  23
BRANCH   1  33
ATOM     33  N   UNL d   1       6.659   0.699   0.463  0.00  0.00    -0.297 N 
ATOM     34  C   UNL d   1       5.320   0.839   0.090  0.00  0.00     0.143 C 
ATOM     35  C   UNL d   1       4.520   0.250   1.001  0.00  0.00     0.137 C 
ATOM     36  N   UNL d   1       5.328  -0.374   1.924  0.00  0.00    -0.297 N 
ATOM     37  N   UNL d   1       6.623   0.088   1.768  0.00  0.00    -0.146 NA
ATOM     38  H   UNL d   1       4.967  -0.858   2.745  0.00  0.00     0.183 HD
ATOM     39  H   UNL d   1       6.672   0.870   2.444  0.00  0.00     0.173 HD
BRANCH  35  40
ATOM     40  C   UNL d   1       3.051   0.273   1.118  0.00  0.00     0.312 C 
ATOM     41  O   UNL d   1       2.469   0.411   2.197  0.00  0.00    -0.258 OA
BRANCH  40  42
ATOM     42  O   UNL d   1       2.476   0.084  -0.087  0.00  0.00    -0.321 OA
ATOM     43  C   UNL d   1       1.046   0.051  -0.055  0.00  0.00     0.213 C 
ENDBRANCH  40  42
ENDBRANCH  35  40
ENDBRANCH   1  33
TORSDOF 10
