@<TRIPOS>MOLECULE
*****
 56 60 0 0 0
SMALL
GASTEIGER

@<TRIPOS>ATOM
      1 C          -3.4792    0.2097   -0.0104 C.3     1  UNL1       -0.0237
      2 C          -2.0171   -0.0386    0.0012 C.ar    1  UNL1        0.0249
      3 N          -1.1680    1.0367   -0.0108 N.ar    1  UNL1       -0.3575
      4 C           0.1368    0.6257    0.0034 C.ar    1  UNL1        0.0474
      5 C           1.3147    1.3870    0.0037 C.ar    1  UNL1       -0.0378
      6 C           2.5292    0.6995   -0.0133 C.ar    1  UNL1       -0.0598
      7 C           2.5575   -0.6915   -0.0223 C.ar    1  UNL1       -0.0611
      8 C           1.3677   -1.4332    0.0006 C.ar    1  UNL1       -0.0519
      9 C           0.1198   -0.7717    0.0113 C.ar    1  UNL1        0.0109
     10 C          -1.2628   -1.2126    0.0282 C.ar    1  UNL1        0.0548
     11 C          -1.7471   -2.6221    0.0639 C.2     1  UNL1        0.2495
     12 O          -0.9652   -3.5765    0.1025 O.2     1  UNL1       -0.2817
     13 C          -3.2562   -2.9993    0.0618 C.2     1  UNL1        0.2845
     14 O          -4.1643   -2.1756    0.0336 O.2     1  UNL1       -0.2666
     15 N          -3.6258   -4.3269    0.0936 N.am    1  UNL1       -0.3079
     16 C          -5.0703   -4.5872    0.0647 C.3     1  UNL1        0.0213
     17 C          -5.4083   -6.0500    0.1147 C.3     1  UNL1        0.0140
     18 S          -7.1582   -6.4787    0.1092 S.3     1  UNL1       -0.1210
     19 C          -7.2170   -8.2526    0.2189 C.ar    1  UNL1        0.0409
     20 C          -6.2412   -9.2255    0.0159 C.ar    1  UNL1        0.0611
     21 C          -4.8302   -9.1238   -0.3587 C.ar    1  UNL1       -0.0006
     22 C          -3.9326   -8.4572    0.4815 C.ar    1  UNL1       -0.0526
     23 C          -2.7376   -7.9431   -0.0287 C.ar    1  UNL1       -0.0611
     24 C          -2.3260   -8.2987   -1.3067 C.ar    1  UNL1       -0.0617
     25 C          -3.1404   -9.1140   -2.0926 C.ar    1  UNL1       -0.0611
     26 C          -4.4044   -9.5003   -1.6347 C.ar    1  UNL1       -0.0526
     27 N          -6.8664  -10.4503    0.1506 N.ar    1  UNL1       -0.3533
     28 C          -8.2091  -10.3010    0.4167 C.ar    1  UNL1        0.0480
     29 C          -9.2190  -11.2604    0.5965 C.ar    1  UNL1       -0.0378
     30 C         -10.5220  -10.8017    0.8264 C.ar    1  UNL1       -0.0598
     31 C         -10.7999   -9.4404    0.8936 C.ar    1  UNL1       -0.0610
     32 C          -9.7787   -8.5004    0.7266 C.ar    1  UNL1       -0.0515
     33 C          -8.4563   -8.9296    0.4741 C.ar    1  UNL1        0.0137
     34 H          -3.7550    1.2626   -0.0502 H       1  UNL1        0.0292
     35 H          -3.9140   -0.1908    0.9126 H       1  UNL1        0.0292
     36 H          -3.9140   -0.2502   -0.9051 H       1  UNL1        0.0292
     37 H          -1.4653    2.0031   -0.0340 H       1  UNL1        0.1656
     38 H           1.2937    2.4732    0.0091 H       1  UNL1        0.0638
     39 H           3.4631    1.2576   -0.0240 H       1  UNL1        0.0618
     40 H           3.5116   -1.2121   -0.0485 H       1  UNL1        0.0618
     41 H           1.4110   -2.5182    0.0011 H       1  UNL1        0.0624
     42 H          -2.9068   -5.0451    0.1010 H       1  UNL1        0.1491
     43 H          -5.4756   -4.1321   -0.8461 H       1  UNL1        0.0470
     44 H          -5.5097   -4.0755    0.9304 H       1  UNL1        0.0470
     45 H          -4.9933   -6.3853    1.0625 H       1  UNL1        0.0395
     46 H          -4.9370   -6.5011   -0.7584 H       1  UNL1        0.0395
     47 H          -4.2469   -8.1790    1.4860 H       1  UNL1        0.0624
     48 H          -2.1710   -7.2116    0.5435 H       1  UNL1        0.0618
     49 H          -1.3744   -7.9373   -1.6878 H       1  UNL1        0.0618
     50 H          -2.8140   -9.4017   -3.0880 H       1  UNL1        0.0618
     51 H          -5.0694  -10.0451   -2.2999 H       1  UNL1        0.0624
     52 H          -6.4034  -11.3420    0.0443 H       1  UNL1        0.1659
     53 H          -9.0139  -12.3257    0.5498 H       1  UNL1        0.0638
     54 H         -11.3326  -11.5169    0.9518 H       1  UNL1        0.0618
     55 H         -11.8163   -9.0981    1.0715 H       1  UNL1        0.0618
     56 H         -10.0056   -7.4396    0.7793 H       1  UNL1        0.0624
@<TRIPOS>BOND
     1     1     2    1
     2     2     3   ar
     3     3     4   ar
     4     4     5   ar
     5     5     6   ar
     6     6     7   ar
     7     7     8   ar
     8     8     9   ar
     9     4     9   ar
    10     9    10   ar
    11     2    10   ar
    12    10    11    1
    13    11    12    2
    14    11    13    1
    15    13    14    2
    16    13    15   am
    17    15    16    1
    18    16    17    1
    19    17    18    1
    20    18    19    1
    21    19    20   ar
    22    20    21    1
    23    21    22   ar
    24    22    23   ar
    25    23    24   ar
    26    24    25   ar
    27    25    26   ar
    28    21    26   ar
    29    20    27   ar
    30    27    28   ar
    31    28    29   ar
    32    29    30   ar
    33    30    31   ar
    34    31    32   ar
    35    32    33   ar
    36    19    33   ar
    37    28    33   ar
    38     1    34    1
    39     1    35    1
    40     1    36    1
    41     3    37    1
    42     5    38    1
    43     6    39    1
    44     7    40    1
    45     8    41    1
    46    15    42    1
    47    16    43    1
    48    16    44    1
    49    17    45    1
    50    17    46    1
    51    22    47    1
    52    23    48    1
    53    24    49    1
    54    25    50    1
    55    26    51    1
    56    27    52    1
    57    29    53    1
    58    30    54    1
    59    31    55    1
    60    32    56    1
