REMARK  4 active torsions:
REMARK  status: ('A' for Active; 'I' for Inactive)
REMARK    1  A    between atoms: C_5  and  C_6 
REMARK       I    between atoms: C_6  and  N_7 
REMARK    2  A    between atoms: C_10  and  N_11 
REMARK       I    between atoms: N_11  and  C_12 
REMARK    3  A    between atoms: C_12  and  C_14 
REMARK    4  A    between atoms: C_15  and  C_16 
ROOT
ATOM      1  N   UNL d   1       1.150   2.428  -0.001  0.00  0.00    -0.323 N 
ATOM      2  C   UNL d   1       2.531   2.586  -0.015  0.00  0.00     0.245 C 
ATOM      3  O   UNL d   1       3.401   1.722  -0.040  0.00  0.00    -0.268 OA
ATOM      4  H   UNL d   1       0.587   3.272   0.003  0.00  0.00     0.169 HD
ENDROOT
BRANCH   1   5
ATOM      5  C   UNL d   1       0.399   1.179   0.001  0.00  0.00     0.042 A 
ATOM      6  C   UNL d   1      -1.025   1.215  -0.003  0.00  0.00     0.047 A 
ATOM      7  C   UNL d   1      -1.806   0.018  -0.010  0.00  0.00     0.034 A 
ATOM      8  C   UNL d   1      -1.165  -1.217   0.001  0.00  0.00     0.017 A 
ATOM      9  C   UNL d   1       0.208  -1.271   0.007  0.00  0.00     0.010 A 
ATOM     10  C   UNL d   1       0.986  -0.107   0.003  0.00  0.00    -0.035 A 
ATOM     11  C   UNL d   1       2.445  -0.404  -0.004  0.00  0.00     0.050 C 
BRANCH   7  12
ATOM     12  C   UNL d   1      -3.306   0.057  -0.038  0.00  0.00     0.249 C 
ATOM     13  N   UNL d   1      -3.996  -1.135  -0.055  0.00  0.00    -0.366 N 
ATOM     14  H   UNL d   1      -3.590  -2.058  -0.053  0.00  0.00     0.159 HD
ATOM     15  H   UNL d   1      -5.007  -1.096  -0.081  0.00  0.00     0.159 HD
ATOM     16  O   UNL d   1      -3.917   1.118  -0.051  0.00  0.00    -0.268 OA
ENDBRANCH   7  12
ENDBRANCH   1   5
BRANCH   2  17
ATOM     17  C   UNL d   1       3.110   3.941  -0.004  0.00  0.00     0.075 C 
ATOM     18  C   UNL d   1       4.468   3.993   0.001  0.00  0.00     0.017 C 
BRANCH  18  19
ATOM     19  C   UNL d   1       5.287   5.201   0.007  0.00  0.00    -0.036 A 
ATOM     20  C   UNL d   1       6.692   5.148  -0.001  0.00  0.00     0.013 A 
ATOM     21  C   UNL d   1       7.432   6.336   0.024  0.00  0.00     0.024 A 
ATOM     22  C   UNL d   1       6.767   7.561   0.056  0.00  0.00     0.034 A 
ATOM     23 CL   UNL d   1       7.649   9.034   0.106  0.00  0.00    -0.084 Cl
ATOM     24  C   UNL d   1       5.380   7.614   0.054  0.00  0.00     0.024 A 
ATOM     25  C   UNL d   1       4.651   6.439   0.031  0.00  0.00     0.013 A 
ENDBRANCH  18  19
ENDBRANCH   2  17
TORSDOF 4
