REMARK  11 active torsions:
REMARK  status: ('A' for Active; 'I' for Inactive)
REMARK    1  A    between atoms: C_2  and  C_3 
REMARK    2  A    between atoms: C_3  and  C_4 
REMARK    3  A    between atoms: C_4  and  C_5 
REMARK    4  A    between atoms: C_5  and  N_6 
REMARK    5  A    between atoms: N_6  and  C_7 
REMARK    6  A    between atoms: C_7  and  N_9 
REMARK    7  A    between atoms: N_9  and  N_10 
REMARK       I    between atoms: N_10  and  C_11 
REMARK    8  A    between atoms: C_13  and  C_11 
REMARK    9  A    between atoms: C_13  and  S_15 
REMARK   10  A    between atoms: S_15  and  C_16 
REMARK   11  A    between atoms: C_19  and  N_20 
ROOT
ATOM      1  N   UNL d   1      11.912  -5.291  -7.140  0.00  0.00    -0.267 N 
ATOM      2  C   UNL d   1      11.350  -4.484  -6.165  0.00  0.00     0.249 C 
ATOM      3  O   UNL d   1      10.520  -3.616  -6.459  0.00  0.00    -0.271 OA
ATOM      4  H   UNL d   1      12.616  -5.992  -6.937  0.00  0.00     0.190 HD
ENDROOT
BRANCH   2   5
ATOM      5  C   UNL d   1      11.755  -4.790  -4.697  0.00  0.00     0.142 C 
ATOM      6  C   UNL d   1      11.000  -3.872  -3.717  0.00  0.00     0.031 C 
BRANCH   5   7
ATOM      7  S   UNL d   1      13.549  -4.459  -4.399  0.00  0.00    -0.116 SA
BRANCH   7   8
ATOM      8  C   UNL d   1      14.402  -5.711  -5.335  0.00  0.00     0.001 A 
ATOM      9  C   UNL d   1      14.061  -7.068  -5.283  0.00  0.00     0.021 A 
ATOM     10  C   UNL d   1      14.775  -8.008  -6.038  0.00  0.00     0.037 A 
ATOM     11  C   UNL d   1      15.804  -7.580  -6.893  0.00  0.00     0.102 A 
ATOM     12  C   UNL d   1      16.157  -6.226  -6.949  0.00  0.00     0.037 A 
ATOM     13  C   UNL d   1      15.461  -5.302  -6.161  0.00  0.00     0.021 A 
BRANCH  11  14
ATOM     14  N   UNL d   1      16.387  -8.533  -7.855  0.00  0.00    -0.116 N 
ATOM     15  O   UNL d   1      15.991  -9.703  -7.822  0.00  0.00    -0.532 OA
ATOM     16  O   UNL d   1      17.234  -8.098  -8.655  0.00  0.00    -0.532 OA
ENDBRANCH  11  14
ENDBRANCH   7   8
ENDBRANCH   5   7
ENDBRANCH   2   5
BRANCH   1  17
ATOM     17  N   UNL d   1      11.705  -5.048  -8.531  0.00  0.00    -0.274 N 
ATOM     18  H   UNL d   1      11.038  -4.313  -8.755  0.00  0.00     0.189 HD
BRANCH  17  19
ATOM     19  C   UNL d   1      12.331  -5.851  -9.476  0.00  0.00     0.186 C 
ATOM     20  S   UNL d   1      13.332  -7.123  -9.062  0.00  0.00    -0.040 SA
BRANCH  19  21
ATOM     21  N   UNL d   1      12.074  -5.534 -10.795  0.00  0.00    -0.366 N 
ATOM     22  H   UNL d   1      11.399  -4.814 -11.008  0.00  0.00     0.161 HD
BRANCH  21  23
ATOM     23  C   UNL d   1      12.693  -6.261 -11.917  0.00  0.00     0.122 C 
BRANCH  23  24
ATOM     24  C   UNL d   1      12.213  -5.824 -13.292  0.00  0.00     0.020 C 
BRANCH  24  25
ATOM     25  C   UNL d   1      12.913  -6.631 -14.392  0.00  0.00     0.001 C 
BRANCH  25  26
ATOM     26  C   UNL d   1      12.434  -6.197 -15.775  0.00  0.00    -0.004 C 
ATOM     27  C   UNL d   1      13.123  -6.991 -16.872  0.00  0.00     0.005 C 
ENDBRANCH  25  26
ENDBRANCH  24  25
ENDBRANCH  23  24
ENDBRANCH  21  23
ENDBRANCH  19  21
ENDBRANCH  17  19
ENDBRANCH   1  17
TORSDOF 11
