REMARK  6 active torsions:
REMARK  status: ('A' for Active; 'I' for Inactive)
REMARK    1  A    between atoms: C_4  and  C_5 
REMARK    2  A    between atoms: C_12  and  C_13 
REMARK       I    between atoms: C_13  and  N_15 
REMARK    3  A    between atoms: N_15  and  N_16 
REMARK    4  A    between atoms: N_16  and  C_17 
REMARK    5  A    between atoms: C_17  and  N_19 
REMARK    6  A    between atoms: N_19  and  C_20 
ROOT
ATOM      1  C   UNL d   1       4.961  -3.762  -1.060  0.00  0.00     0.275 C 
ATOM      2  O   UNL d   1       3.803  -4.183  -0.924  0.00  0.00    -0.266 OA
ATOM      3  N   UNL d   1       6.019  -4.643  -1.236  0.00  0.00    -0.263 N 
ATOM      4  H   UNL d   1       6.981  -4.335  -1.360  0.00  0.00     0.190 HD
ENDROOT
BRANCH   3   5
ATOM      5  N   UNL d   1       5.833  -6.082  -1.264  0.00  0.00    -0.273 N 
ATOM      6  H   UNL d   1       4.872  -6.402  -1.153  0.00  0.00     0.189 HD
BRANCH   5   7
ATOM      7  C   UNL d   1       6.942  -6.910  -1.503  0.00  0.00     0.191 C 
ATOM      8  S   UNL d   1       8.453  -6.205  -1.796  0.00  0.00    -0.039 SA
BRANCH   7   9
ATOM      9  N   UNL d   1       6.656  -8.293  -1.503  0.00  0.00    -0.331 N 
ATOM     10  H   UNL d   1       5.691  -8.575  -1.622  0.00  0.00     0.168 HD
BRANCH   9  11
ATOM     11  C   UNL d   1       7.638  -9.341  -1.697  0.00  0.00     0.045 A 
ATOM     12  C   UNL d   1       8.837  -9.275  -0.974  0.00  0.00     0.030 A 
ATOM     13  C   UNL d   1       9.884 -10.164  -1.200  0.00  0.00     0.003 A 
ATOM     14  C   UNL d   1       9.734 -11.189  -2.122  0.00  0.00     0.012 A 
ATOM     15  C   UNL d   1       8.519 -11.364  -2.794  0.00  0.00    -0.024 A 
ATOM     16  C   UNL d   1       8.393 -12.448  -3.680  0.00  0.00     0.012 A 
ATOM     17  C   UNL d   1       7.439 -10.446  -2.588  0.00  0.00     0.001 A 
ATOM     18  C   UNL d   1       7.211 -12.659  -4.381  0.00  0.00     0.001 A 
ATOM     19  C   UNL d   1       6.149 -11.780  -4.208  0.00  0.00     0.001 A 
ATOM     20  C   UNL d   1       6.263 -10.687  -3.335  0.00  0.00     0.014 A 
ENDBRANCH   9  11
ENDBRANCH   7   9
ENDBRANCH   5   7
ENDBRANCH   3   5
BRANCH   1  21
ATOM     21  C   UNL d   1       5.282  -2.326  -1.036  0.00  0.00     0.098 C 
ATOM     22  C   UNL d   1       6.527  -1.640  -1.128  0.00  0.00     0.160 C 
ATOM     23  N   UNL d   1       6.428  -0.310  -0.984  0.00  0.00    -0.181 NA
ATOM     24  N   UNL d   1       5.104  -0.099  -0.947  0.00  0.00    -0.240 N 
ATOM     25  C   UNL d   1       4.519   1.234  -0.807  0.00  0.00     0.221 C 
ATOM     26  C   UNL d   1       4.387  -1.278  -0.865  0.00  0.00     0.138 C 
ATOM     27  C   UNL d   1       2.976   1.151  -0.912  0.00  0.00     0.061 C 
ATOM     28  C   UNL d   1       2.468  -0.023  -0.067  0.00  0.00     0.081 C 
ATOM     29  N   UNL d   1       3.049  -1.228  -0.651  0.00  0.00    -0.370 N 
ATOM     30  C   UNL d   1       2.874   0.120   1.407  0.00  0.00     0.032 C 
ATOM     31  H   UNL d   1       2.492  -2.085  -0.640  0.00  0.00     0.161 HD
BRANCH  25  32
ATOM     32  C   UNL d   1       5.076   2.277  -1.759  0.00  0.00     0.409 C 
ATOM     33  F   UNL d   1       6.129   1.883  -2.497  0.00  0.00    -0.169 F 
ATOM     34  F   UNL d   1       4.135   2.723  -2.630  0.00  0.00    -0.169 F 
ATOM     35  F   UNL d   1       5.474   3.372  -1.055  0.00  0.00    -0.169 F 
ENDBRANCH  25  32
ENDBRANCH   1  21
TORSDOF 6
