REMARK  5 active torsions:
REMARK  status: ('A' for Active; 'I' for Inactive)
REMARK       I    between atoms: C_2  and  N_3 
REMARK    1  A    between atoms: C_2  and  C_7 
REMARK    2  A    between atoms: N_3  and  C_4 
REMARK    3  A    between atoms: C_4  and  C_5 
REMARK    4  A    between atoms: C_5  and  O_6 
REMARK    5  A    between atoms: C_9  and  C_10 
ROOT
ATOM      1  C   UNL d   1       2.979  -0.341  -1.288  0.00  0.00     0.264 A 
ATOM      2  N   UNL d   1       2.666  -0.054  -2.536  0.00  0.00    -0.195 NA
ATOM      3  C   UNL d   1       3.644  -0.700  -3.262  0.00  0.00     0.190 A 
ATOM      4  N   UNL d   1       4.536  -1.358  -2.500  0.00  0.00    -0.105 NA
ATOM      5  O   UNL d   1       4.105  -1.109  -1.188  0.00  0.00    -0.185 OA
ENDROOT
BRANCH   3   6
ATOM      6  C   UNL d   1       3.712  -0.603  -4.714  0.00  0.00     0.026 A 
ATOM      7  C   UNL d   1       3.788   0.646  -5.356  0.00  0.00     0.016 A 
ATOM      8  C   UNL d   1       3.842   0.737  -6.750  0.00  0.00     0.003 A 
ATOM      9  C   UNL d   1       3.798  -0.407  -7.551  0.00  0.00     0.030 A 
ATOM     10  C   UNL d   1       3.731  -1.648  -6.902  0.00  0.00     0.043 A 
ATOM     11  N   UNL d   1       3.698  -2.922  -7.430  0.00  0.00    -0.365 N 
ATOM     12  C   UNL d   1       3.696  -1.774  -5.507  0.00  0.00     0.006 A 
ATOM     13  C   UNL d   1       3.684  -3.848  -6.423  0.00  0.00     0.089 A 
ATOM     14  H   UNL d   1       3.709  -3.138  -8.418  0.00  0.00     0.165 HD
ATOM     15  C   UNL d   1       3.650  -3.170  -5.228  0.00  0.00     0.031 A 
ENDBRANCH   3   6
BRANCH   1  16
ATOM     16  C   UNL d   1       2.233   0.051  -0.097  0.00  0.00     0.297 C 
ATOM     17  O   UNL d   1       1.000   0.093  -0.063  0.00  0.00    -0.264 OA
ATOM     18  N   UNL d   1       2.967   0.445   1.024  0.00  0.00    -0.352 N 
ATOM     19  H   UNL d   1       3.979   0.478   0.971  0.00  0.00     0.162 HD
BRANCH  18  20
ATOM     20  C   UNL d   1       2.288   0.972   2.204  0.00  0.00     0.149 C 
BRANCH  20  21
ATOM     21  C   UNL d   1       3.236   1.449   3.307  0.00  0.00     0.183 C 
BRANCH  21  22
ATOM     22  O   UNL d   1       2.522   1.909   4.451  0.00  0.00    -0.399 OA
ATOM     23  H   UNL d   1       1.979   2.673   4.189  0.00  0.00     0.209 HD
ENDBRANCH  21  22
ENDBRANCH  20  21
ENDBRANCH  18  20
ENDBRANCH   1  16
TORSDOF 5
