REMARK  6 active torsions:
REMARK  status: ('A' for Active; 'I' for Inactive)
REMARK    1  A    between atoms: C_8  and  S_9 
REMARK    2  A    between atoms: S_9  and  C_10 
REMARK    3  A    between atoms: C_10  and  C_11 
REMARK       I    between atoms: C_11  and  N_13 
REMARK    4  A    between atoms: N_13  and  C_14 
REMARK    5  A    between atoms: C_17  and  S_18 
REMARK    6  A    between atoms: S_18  and  N_19 
ROOT
ATOM      1  C   UNL d   1      10.940  -2.027  -0.085  0.00  0.00     0.231 C 
ATOM      2  O   UNL d   1      10.957  -3.259  -0.073  0.00  0.00    -0.272 OA
ATOM      3  N   UNL d   1      12.134  -1.281  -0.067  0.00  0.00    -0.327 N 
ATOM      4  H   UNL d   1      12.098  -0.303   0.193  0.00  0.00     0.169 HD
ENDROOT
BRANCH   1   5
ATOM      5  C   UNL d   1       9.601  -1.219  -0.068  0.00  0.00     0.185 C 
BRANCH   5   6
ATOM      6  S   UNL d   1       8.176  -2.381  -0.069  0.00  0.00    -0.079 SA
BRANCH   6   7
ATOM      7  C   UNL d   1       6.684  -1.462  -0.074  0.00  0.00     0.227 A 
ATOM      8  N   UNL d   1       6.606  -0.130  -0.071  0.00  0.00    -0.124 NA
ATOM      9  N   UNL d   1       5.251   0.079  -0.079  0.00  0.00    -0.062 N 
ATOM     10  C   UNL d   1       4.534   1.284  -0.083  0.00  0.00     0.052 A 
ATOM     11  C   UNL d   1       4.572  -1.149  -0.084  0.00  0.00     0.752 A 
ATOM     12  C   UNL d   1       3.192   1.251  -0.094  0.00  0.00     0.055 A 
ATOM     13  C   UNL d   1       5.262   2.583  -0.073  0.00  0.00     0.071 C 
ATOM     14  C   UNL d   1       2.543  -0.091  -0.093  0.00  0.00     0.051 A 
ATOM     15  C   UNL d   1       1.026  -0.074  -0.094  0.00  0.00     0.071 C 
ATOM     16  N   UNL d   1       3.195  -1.221  -0.090  0.00  0.00    -0.066 NA
ATOM     17  N   UNL d   1       5.471  -2.112  -0.081  0.00  0.00    -0.033 NA
ENDBRANCH   6   7
ENDBRANCH   5   6
ENDBRANCH   1   5
BRANCH   3  18
ATOM     18  C   UNL d   1      13.421  -1.912  -0.055  0.00  0.00     0.034 A 
ATOM     19  C   UNL d   1      14.448  -1.442   0.779  0.00  0.00     0.031 A 
ATOM     20  C   UNL d   1      15.690  -2.111   0.839  0.00  0.00     0.027 A 
ATOM     21  C   UNL d   1      15.929  -3.220   0.020  0.00  0.00     0.079 A 
ATOM     22  C   UNL d   1      14.936  -3.666  -0.849  0.00  0.00     0.027 A 
ATOM     23  C   UNL d   1      13.691  -3.018  -0.873  0.00  0.00     0.031 A 
BRANCH  21  24
ATOM     24  S   UNL d   1      17.481  -4.087   0.117  0.00  0.00     0.256 S 
ATOM     25  O   UNL d   1      17.719  -4.416   1.506  0.00  0.00    -0.201 OA
ATOM     26  O   UNL d   1      17.537  -5.061  -0.942  0.00  0.00    -0.201 OA
BRANCH  24  27
ATOM     27  N   UNL d   1      18.565  -2.886  -0.293  0.00  0.00    -0.324 N 
ATOM     28  H   UNL d   1      18.778  -2.205   0.427  0.00  0.00     0.169 HD
ATOM     29  H   UNL d   1      18.595  -2.631  -1.276  0.00  0.00     0.169 HD
ENDBRANCH  24  27
ENDBRANCH  21  24
ENDBRANCH   3  18
TORSDOF 6
