REMARK  12 active torsions:
REMARK  status: ('A' for Active; 'I' for Inactive)
REMARK    1  A    between atoms: C_2  and  C_3 
REMARK    2  A    between atoms: C_3  and  C_4 
REMARK    3  A    between atoms: C_4  and  C_5 
REMARK    4  A    between atoms: C_5  and  C_6 
REMARK       I    between atoms: C_6  and  N_8 
REMARK    5  A    between atoms: N_8  and  C_9 
REMARK    6  A    between atoms: C_16  and  C_18 
REMARK    7  A    between atoms: C_18  and  O_19 
REMARK    8  A    between atoms: C_20  and  O_21 
REMARK    9  A    between atoms: C_26  and  C_27 
REMARK   10  A    between atoms: C_27  and  C_28 
REMARK       I    between atoms: C_28  and  N_30 
REMARK   11  A    between atoms: N_30  and  C_31 
REMARK   12  A    between atoms: C_31  and  C_32 
ROOT
ATOM      1  C   UNL d   1       6.543   3.708  -3.979  0.00  0.00     0.173 C 
ATOM      2  N   UNL d   1       5.518   4.328  -3.460  0.00  0.00    -0.227 NA
ATOM      3  C   UNL d   1       5.015   5.250  -4.318  0.00  0.00     0.056 C 
ATOM      4  C   UNL d   1       5.351   5.189  -5.619  0.00  0.00     0.012 C 
ATOM      5  S   UNL d   1       6.843   4.231  -5.657  0.00  0.00    -0.054 SA
ATOM      6  C   UNL d   1       4.360   6.149  -6.524  0.00  0.00     0.054 C 
ATOM      7  C   UNL d   1       2.791   6.984  -5.645  0.00  0.00     0.012 C 
ATOM      8  C   UNL d   1       0.951   7.402  -4.313  0.00  0.00     0.008 C 
ATOM      9  C   UNL d   1      -0.456   8.668  -3.779  0.00  0.00     0.020 C 
ATOM     10  C   UNL d   1      -0.120   7.378  -5.364  0.00  0.00     0.128 C 
ATOM     11  C   UNL d   1       1.015   6.630  -5.582  0.00  0.00     0.033 C 
ATOM     12  C   UNL d   1       2.491   8.089  -5.194  0.00  0.00     0.013 C 
ATOM     13  C   UNL d   1       3.844   7.434  -4.882  0.00  0.00    -0.030 C 
ATOM     14  C   UNL d   1       5.181   8.231  -5.169  0.00  0.00     0.016 C 
ATOM     15  C   UNL d   1       3.951   6.210  -3.980  0.00  0.00     0.056 C 
ENDROOT
BRANCH  15  16
ATOM     16  C   UNL d   1       4.165   6.867  -2.681  0.00  0.00     0.114 C 
BRANCH  16  17
ATOM     17  C   UNL d   1       4.066   8.441  -2.696  0.00  0.00     0.218 C 
ATOM     18  O   UNL d   1       3.865   9.262  -3.602  0.00  0.00    -0.274 OA
ATOM     19  N   UNL d   1       4.296   9.108  -1.589  0.00  0.00    -0.357 N 
ATOM     20  H   UNL d   1       4.271   8.582  -0.737  0.00  0.00     0.162 HD
BRANCH  19  21
ATOM     21  C   UNL d   1       4.032  10.516  -1.786  0.00  0.00     0.162 C 
BRANCH  21  22
ATOM     22  C   UNL d   1       4.062  11.187  -0.510  0.00  0.00    -0.023 A 
ATOM     23  C   UNL d   1       4.679  12.417  -0.421  0.00  0.00     0.012 A 
ATOM     24  C   UNL d   1       4.609  13.060   0.785  0.00  0.00     0.020 A 
ATOM     25  C   UNL d   1       3.936  12.435   1.827  0.00  0.00     0.116 A 
ATOM     26  N   UNL d   1       3.353  11.220   1.762  0.00  0.00    -0.273 NA
ATOM     27  C   UNL d   1       3.417  10.618   0.576  0.00  0.00     0.124 A 
ENDBRANCH  21  22
ENDBRANCH  19  21
ENDBRANCH  16  17
ENDBRANCH  15  16
BRANCH   8  28
ATOM     28  C   UNL d   1       0.768   7.590  -2.478  0.00  0.00     0.176 C 
BRANCH  28  29
ATOM     29  O   UNL d   1       1.630   8.641  -2.131  0.00  0.00    -0.400 OA
ATOM     30  H   UNL d   1       1.486   9.289  -2.867  0.00  0.00     0.209 HD
ENDBRANCH  28  29
ENDBRANCH   8  28
BRANCH   1  31
ATOM     31  N   UNL d   1       7.271   2.768  -3.241  0.00  0.00    -0.306 N 
ATOM     32  C   UNL d   1       6.690   1.999  -2.223  0.00  0.00     0.223 C 
ATOM     33  O   UNL d   1       7.389   1.317  -1.465  0.00  0.00    -0.273 OA
ATOM     34  H   UNL d   1       8.285   2.748  -3.251  0.00  0.00     0.171 HD
BRANCH  32  35
ATOM     35  C   UNL d   1       5.165   1.920  -2.138  0.00  0.00     0.103 C 
BRANCH  35  36
ATOM     36  C   UNL d   1       4.646   0.936  -1.087  0.00  0.00     0.009 C 
BRANCH  36  37
ATOM     37  C   UNL d   1       3.118   0.922  -1.071  0.00  0.00     0.000 C 
BRANCH  37  38
ATOM     38  C   UNL d   1       2.595  -0.053  -0.022  0.00  0.00    -0.005 C 
ATOM     39  C   UNL d   1       1.079  -0.058  -0.016  0.00  0.00     0.005 C 
ENDBRANCH  37  38
ENDBRANCH  36  37
ENDBRANCH  35  36
ENDBRANCH  32  35
ENDBRANCH   1  31
BRANCH  10  40
ATOM     40  O   UNL d   1      -1.236   6.585  -5.177  0.00  0.00    -0.395 OA
ATOM     41  H   UNL d   1      -0.970   5.835  -4.623  0.00  0.00     0.210 HD
ENDBRANCH  10  40
TORSDOF 12
