REMARK  7 active torsions:
REMARK  status: ('A' for Active; 'I' for Inactive)
REMARK    1  A    between atoms: S_2  and  C_3 
REMARK    2  A    between atoms: C_6  and  C_7 
REMARK    3  A    between atoms: C_7  and  N_8 
REMARK       I    between atoms: N_8  and  C_9 
REMARK    4  A    between atoms: C_9  and  C_11 
REMARK       I    between atoms: C_11  and  N_13 
REMARK    5  A    between atoms: N_13  and  C_14 
REMARK    6  A    between atoms: C_19  and  C_20 
REMARK       I    between atoms: C_20  and  N_22 
REMARK    7  A    between atoms: N_22  and  C_23 
ROOT
ATOM      1  C   UNL d   1       4.466   5.810   6.732  0.00  0.00     0.313 C 
ATOM      2  O   UNL d   1       4.098   6.259   5.649  0.00  0.00    -0.262 OA
ATOM      3  N   UNL d   1       4.862   6.554   7.843  0.00  0.00    -0.319 N 
ATOM      4  H   UNL d   1       5.295   6.057   8.616  0.00  0.00     0.169 HD
ENDROOT
BRANCH   3   5
ATOM      5  C   UNL d   1       4.769   7.967   7.888  0.00  0.00     0.036 A 
ATOM      6  C   UNL d   1       5.736   8.748   8.518  0.00  0.00     0.030 A 
ATOM      7  C   UNL d   1       5.603  10.148   8.534  0.00  0.00     0.010 A 
ATOM      8  C   UNL d   1       4.514  10.786   7.911  0.00  0.00    -0.046 A 
ATOM      9  C   UNL d   1       4.510  12.293   7.814  0.00  0.00     0.049 C 
ATOM     10  C   UNL d   1       3.493   9.991   7.345  0.00  0.00     0.040 A 
ATOM     11  C   UNL d   1       3.655   8.597   7.329  0.00  0.00     0.047 A 
BRANCH  10  12
ATOM     12  C   UNL d   1       2.238  10.612   6.801  0.00  0.00     0.252 C 
ATOM     13  O   UNL d   1       2.063  11.825   6.864  0.00  0.00    -0.268 OA
ATOM     14  N   UNL d   1       1.276   9.787   6.245  0.00  0.00    -0.353 N 
ATOM     15  H   UNL d   1       1.381   8.786   6.222  0.00  0.00     0.163 HD
BRANCH  14  16
ATOM     16  C   UNL d   1       0.057  10.342   5.675  0.00  0.00     0.076 C 
ATOM     17  C   UNL d   1       0.376  11.262   4.497  0.00  0.00     0.032 C 
ATOM     18  C   UNL d   1      -0.872   9.225   5.207  0.00  0.00     0.032 C 
ENDBRANCH  14  16
ENDBRANCH  10  12
ENDBRANCH   3   5
BRANCH   1  19
ATOM     19  C   UNL d   1       4.537   4.267   6.876  0.00  0.00     0.309 C 
ATOM     20  N   UNL d   1       4.194   3.596   5.721  0.00  0.00    -0.349 N 
ATOM     21  H   UNL d   1       3.995   4.196   4.929  0.00  0.00     0.163 HD
ATOM     22  O   UNL d   1       4.865   3.754   7.941  0.00  0.00    -0.262 OA
BRANCH  20  23
ATOM     23  C   UNL d   1       4.178   2.149   5.585  0.00  0.00     0.161 C 
BRANCH  23  24
ATOM     24  C   UNL d   1       3.810   1.616   4.207  0.00  0.00    -0.040 A 
ATOM     25  C   UNL d   1       3.834   0.227   3.969  0.00  0.00     0.010 A 
ATOM     26  C   UNL d   1       3.613  -0.297   2.682  0.00  0.00     0.019 A 
ATOM     27  C   UNL d   1       3.259   0.545   1.627  0.00  0.00    -0.000 A 
ATOM     28  C   UNL d   1       3.228   1.919   1.850  0.00  0.00     0.019 A 
ATOM     29  C   UNL d   1       3.492   2.444   3.121  0.00  0.00     0.010 A 
BRANCH  27  30
ATOM     30  S   UNL d   1       2.841  -0.107   0.021  0.00  0.00    -0.134 SA
ATOM     31  C   UNL d   1       1.023  -0.012   0.104  0.00  0.00     0.095 C 
ENDBRANCH  27  30
ENDBRANCH  23  24
ENDBRANCH  20  23
ENDBRANCH   1  19
TORSDOF 7
