REMARK  10 active torsions:
REMARK  status: ('A' for Active; 'I' for Inactive)
REMARK    1  A    between atoms: N_2  and  C_3 
REMARK    2  A    between atoms: N_2  and  C_28 
REMARK    3  A    between atoms: C_3  and  C_4 
REMARK    4  A    between atoms: C_4  and  C_5 
REMARK    5  A    between atoms: C_5  and  N_6 
REMARK       I    between atoms: N_6  and  C_7 
REMARK    6  A    between atoms: C_7  and  C_9 
REMARK    7  A    between atoms: C_9  and  S_10 
REMARK    8  A    between atoms: C_11  and  S_10 
REMARK    9  A    between atoms: C_14  and  C_15 
REMARK   10  A    between atoms: N_24  and  C_25 
ROOT
ATOM      1  C   UNL d   1       1.146   9.206   4.635  0.00  0.00     0.268 C 
ATOM      2  N   UNL d   1       0.074   8.637   3.836  0.00  0.00    -0.279 N 
ATOM      3  N   UNL d   1      -0.300   9.314   2.724  0.00  0.00    -0.158 NA
ATOM      4  C   UNL d   1       0.407  10.395   2.742  0.00  0.00     0.157 C 
ATOM      5  N   UNL d   1       1.253  10.520   3.907  0.00  0.00    -0.328 N 
ATOM      6  H   UNL d   1      -0.424   7.817   4.165  0.00  0.00     0.185 HD
ENDROOT
BRANCH   1   7
ATOM      7  S   UNL d   1       0.584   9.322   6.358  0.00  0.00    -0.112 SA
BRANCH   7   8
ATOM      8  C   UNL d   1       1.440   7.933   7.246  0.00  0.00     0.180 C 
BRANCH   8   9
ATOM      9  C   UNL d   1       1.701   8.323   8.724  0.00  0.00     0.227 C 
ATOM     10  N   UNL d   1       1.821   7.272   9.618  0.00  0.00    -0.360 N 
ATOM     11  H   UNL d   1       1.781   6.311   9.300  0.00  0.00     0.162 HD
ATOM     12  O   UNL d   1       1.823   9.493   9.095  0.00  0.00    -0.273 OA
BRANCH  10  13
ATOM     13  C   UNL d   1       1.989   7.517  11.056  0.00  0.00     0.124 C 
BRANCH  13  14
ATOM     14  C   UNL d   1       2.087   6.218  11.843  0.00  0.00     0.039 C 
BRANCH  14  15
ATOM     15  C   UNL d   1       2.245   6.425  13.356  0.00  0.00     0.124 C 
BRANCH  15  16
ATOM     16  N   UNL d   1       2.448   5.170  14.095  0.00  0.00    -0.385 N 
ATOM     17  C   UNL d   1       2.304   3.854  13.472  0.00  0.00     0.149 C 
BRANCH  16  18
ATOM     18  C   UNL d   1       2.491   5.173  15.495  0.00  0.00     0.029 A 
ATOM     19  C   UNL d   1       3.338   4.289  16.185  0.00  0.00     0.029 A 
ATOM     20  C   UNL d   1       3.283   4.141  17.576  0.00  0.00     0.002 A 
ATOM     21  C   UNL d   1       2.439   4.950  18.325  0.00  0.00     0.000 A 
ATOM     22  C   UNL d   1       1.682   5.923  17.682  0.00  0.00     0.002 A 
ATOM     23  C   UNL d   1       1.684   6.008  16.281  0.00  0.00     0.029 A 
ENDBRANCH  16  18
ENDBRANCH  15  16
ENDBRANCH  14  15
ENDBRANCH  13  14
ENDBRANCH  10  13
ENDBRANCH   8   9
ENDBRANCH   7   8
ENDBRANCH   1   7
BRANCH   5  24
ATOM     24  C   UNL d   1       1.669  11.775   4.495  0.00  0.00     0.089 A 
ATOM     25  C   UNL d   1       2.268  11.830   5.886  0.00  0.00     0.027 A 
ATOM     26  C   UNL d   1       3.097  12.206   4.715  0.00  0.00     0.027 A 
ENDBRANCH   5  24
BRANCH   4  27
ATOM     27  C   UNL d   1       0.439  11.420   1.688  0.00  0.00     0.019 A 
ATOM     28  C   UNL d   1       1.527  11.843   1.032  0.00  0.00     0.002 A 
ATOM     29  C   UNL d   1       2.917  11.553   1.115  0.00  0.00     0.014 A 
ATOM     30  C   UNL d   1       1.013  12.768  -0.011  0.00  0.00     0.039 A 
ATOM     31  C   UNL d   1       3.761  12.184   0.283  0.00  0.00     0.001 A 
ATOM     32  C   UNL d   1       3.292  13.135  -0.713  0.00  0.00     0.002 A 
ATOM     33  C   UNL d   1       1.993  13.439  -0.895  0.00  0.00     0.030 A 
ATOM     34  N   UNL d   1      -0.257  12.855   0.007  0.00  0.00    -0.385 N 
ATOM     35  C   UNL d   1      -0.812  11.974   1.070  0.00  0.00     0.163 A 
ATOM     36  H   UNL d   1      -0.787  13.455  -0.632  0.00  0.00     0.160 HD
ENDBRANCH   4  27
TORSDOF 10
