@<TRIPOS>MOLECULE
*****
 55 58 0 0 0
SMALL
GASTEIGER

@<TRIPOS>ATOM
      1 C           1.2623   -0.4584    0.3522 C.3     1  UNL1        0.0790
      2 O           2.6039   -0.0717    0.0238 O.3     1  UNL1       -0.4914
      3 C           3.0864   -0.0919   -1.2757 C.ar    1  UNL1        0.1621
      4 C           4.2553   -0.8779   -1.4106 C.ar    1  UNL1       -0.0071
      5 C           5.0863   -0.7685   -2.5415 C.ar    1  UNL1        0.0056
      6 C           6.4473   -1.3028   -2.5722 C.2     1  UNL1        0.0916
      7 C           7.5156   -0.5071   -2.6594 C.2     1  UNL1       -0.0215
      8 C           8.6832   -1.4103   -2.7524 C.3     1  UNL1        0.1694
      9 C           9.4876   -1.3511   -4.0746 C.2     1  UNL1        0.2625
     10 O          10.2494   -2.2558   -4.3864 O.2     1  UNL1       -0.2713
     11 N           9.3437   -0.1662   -4.8184 N.am    1  UNL1       -0.2049
     12 N          10.0452   -0.0492   -5.9825 N.2     1  UNL1       -0.1875
     13 C           9.8785    1.0130   -6.7055 C.2     1  UNL1        0.0563
     14 C          10.5532    1.1507   -8.0196 C.ar    1  UNL1        0.0360
     15 C          11.0774    2.3912   -8.4071 C.ar    1  UNL1       -0.0496
     16 C          11.6185    2.5478   -9.6896 C.ar    1  UNL1       -0.0609
     17 C          11.6908    1.4579  -10.5592 C.ar    1  UNL1       -0.0583
     18 C          11.1889    0.2164  -10.1674 C.ar    1  UNL1       -0.0195
     19 C          10.6086    0.0699   -8.9075 C.ar    1  UNL1        0.1255
     20 O          10.0285   -1.1192   -8.5713 O.3     1  UNL1       -0.5061
     21 N           8.0351   -2.7563   -2.6425 N.2     1  UNL1       -0.1699
     22 N           6.7770   -2.6286   -2.5355 N.2     1  UNL1       -0.1532
     23 C           4.6849    0.0313   -3.6138 C.ar    1  UNL1       -0.0488
     24 C           3.5386    0.8014   -3.5104 C.ar    1  UNL1       -0.0156
     25 C           2.7557    0.7861   -2.3489 C.ar    1  UNL1        0.1624
     26 O           1.7681    1.7509   -2.4720 O.3     1  UNL1       -0.4837
     27 C           0.8245    1.6024   -1.4565 C.3     1  UNL1        0.1148
     28 C          -0.4147    2.4273   -1.4234 C.ar    1  UNL1       -0.0104
     29 C          -0.3097    3.8090   -1.3244 C.ar    1  UNL1       -0.0554
     30 C          -1.4592    4.5623   -1.1486 C.ar    1  UNL1       -0.0614
     31 C          -2.7094    3.9381   -1.1217 C.ar    1  UNL1       -0.0617
     32 C          -2.8132    2.5498   -1.1536 C.ar    1  UNL1       -0.0614
     33 C          -1.6607    1.7911   -1.2701 C.ar    1  UNL1       -0.0554
     34 H           1.2066   -0.7702    1.3973 H       1  UNL1        0.0660
     35 H           0.8554   -1.2244   -0.3120 H       1  UNL1        0.0660
     36 H           0.5847    0.3969    0.3978 H       1  UNL1        0.0660
     37 H           4.5650   -1.5239   -0.5898 H       1  UNL1        0.0662
     38 H           7.5342    0.5688   -2.6736 H       1  UNL1        0.0620
     39 H           9.3702   -1.2585   -1.9127 H       1  UNL1        0.0705
     40 H           8.6598    0.5414   -4.5914 H       1  UNL1        0.1773
     41 H           9.2313    1.8534   -6.3971 H       1  UNL1        0.0852
     42 H          11.0875    3.2351   -7.7228 H       1  UNL1        0.0625
     43 H          11.9806    3.5199  -10.0193 H       1  UNL1        0.0618
     44 H          12.1331    1.5760  -11.5463 H       1  UNL1        0.0619
     45 H          11.2249   -0.6157  -10.8640 H       1  UNL1        0.0654
     46 H          10.3177   -1.8200   -9.1743 H       1  UNL1        0.2922
     47 H           5.2862    0.1050   -4.5173 H       1  UNL1        0.0625
     48 H           3.2735    1.4770   -4.3209 H       1  UNL1        0.0655
     49 H           1.3407    1.8734   -0.5300 H       1  UNL1        0.0748
     50 H           0.4618    0.5779   -1.5638 H       1  UNL1        0.0748
     51 H           0.6718    4.2768   -1.3486 H       1  UNL1        0.0621
     52 H          -1.3764    5.6374   -1.0328 H       1  UNL1        0.0618
     53 H          -3.6089    4.5413   -1.0699 H       1  UNL1        0.0618
     54 H          -3.7804    2.0603   -1.0826 H       1  UNL1        0.0618
     55 H          -1.7344    0.7041   -1.2268 H       1  UNL1        0.0621
@<TRIPOS>BOND
     1     1     2    1
     2     2     3    1
     3     3     4   ar
     4     4     5   ar
     5     5     6    1
     6     6     7    2
     7     7     8    1
     8     9    10    2
     9     9    11   am
    10    11    12    1
    11    12    13    2
    12    13    14    1
    13    14    15   ar
    14    15    16   ar
    15    16    17   ar
    16    17    18   ar
    17    18    19   ar
    18    14    19   ar
    19    19    20    1
    20     8    21    1
    21    21    22    2
    22     6    22    1
    23     5    23   ar
    24    23    24   ar
    25    24    25   ar
    26     3    25   ar
    27    25    26    1
    28    26    27    1
    29    27    28    1
    30    28    29   ar
    31    29    30   ar
    32    30    31   ar
    33    31    32   ar
    34    32    33   ar
    35    28    33   ar
    36     8     9    1
    37     1    34    1
    38     1    35    1
    39     1    36    1
    40     4    37    1
    41     7    38    1
    42     8    39    1
    43    11    40    1
    44    13    41    1
    45    15    42    1
    46    16    43    1
    47    17    44    1
    48    18    45    1
    49    20    46    1
    50    23    47    1
    51    24    48    1
    52    27    49    1
    53    27    50    1
    54    29    51    1
    55    30    52    1
    56    31    53    1
    57    32    54    1
    58    33    55    1
