REMARK  6 active torsions:
REMARK  status: ('A' for Active; 'I' for Inactive)
REMARK    1  A    between atoms: N_1  and  S_2 
REMARK    2  A    between atoms: S_2  and  C_5 
REMARK    3  A    between atoms: C_8  and  C_9 
REMARK    4  A    between atoms: C_9  and  N_10 
REMARK       I    between atoms: N_10  and  C_11 
REMARK    5  A    between atoms: C_11  and  C_13 
REMARK    6  A    between atoms: C_15  and  N_16 
ROOT
ATOM      1  N   UNL d   1       4.577  -6.170  -1.627  0.00  0.00    -0.352 N 
ATOM      2  C   UNL d   1       4.699  -7.531  -1.809  0.00  0.00     0.254 C 
ATOM      3  O   UNL d   1       3.931  -8.352  -1.324  0.00  0.00    -0.268 OA
ATOM      4  H   UNL d   1       5.291  -5.592  -2.039  0.00  0.00     0.163 HD
ENDROOT
BRANCH   2   5
ATOM      5  C   UNL d   1       5.815  -7.997  -2.697  0.00  0.00     0.070 A 
ATOM      6  C   UNL d   1       5.531  -8.995  -3.648  0.00  0.00     0.056 A 
ATOM      7  C   UNL d   1       6.545  -9.462  -4.504  0.00  0.00     0.106 A 
ATOM      8  C   UNL d   1       7.847  -8.960  -4.406  0.00  0.00     0.075 A 
ATOM      9  C   UNL d   1       8.132  -7.995  -3.439  0.00  0.00     0.105 A 
ATOM     10  C   UNL d   1       7.123  -7.497  -2.595  0.00  0.00     0.117 A 
ATOM     11  O   UNL d   1       9.438  -7.574  -3.386  0.00  0.00    -0.346 OA
ATOM     12  O   UNL d   1       7.381  -6.550  -1.635  0.00  0.00    -0.345 OA
ATOM     13  C   UNL d   1       8.632  -5.889  -1.839  0.00  0.00     0.202 C 
ATOM     14  C   UNL d   1       9.732  -6.879  -2.171  0.00  0.00     0.202 C 
BRANCH   7  15
ATOM     15  N   UNL d   1       6.243 -10.485  -5.518  0.00  0.00    -0.116 N 
ATOM     16  O   UNL d   1       7.169 -10.863  -6.250  0.00  0.00    -0.532 OA
ATOM     17  O   UNL d   1       5.079 -10.900  -5.587  0.00  0.00    -0.532 OA
ENDBRANCH   7  15
ENDBRANCH   2   5
BRANCH   1  18
ATOM     18  C   UNL d   1       3.553  -5.559  -0.775  0.00  0.00     0.169 C 
BRANCH  18  19
ATOM     19  C   UNL d   1       3.671  -4.043  -0.773  0.00  0.00     0.002 A 
ATOM     20  C   UNL d   1       4.595  -3.248  -1.426  0.00  0.00     0.018 A 
ATOM     21  C   UNL d   1       4.401  -1.861  -1.214  0.00  0.00     0.033 A 
ATOM     22  C   UNL d   1       3.321  -1.588  -0.405  0.00  0.00     0.115 A 
ATOM     23  S   UNL d   1       2.568  -3.038   0.124  0.00  0.00    -0.080 SA
BRANCH  22  24
ATOM     24  S   UNL d   1       2.685  -0.006   0.108  0.00  0.00     0.245 S 
ATOM     25  O   UNL d   1       3.093   0.917  -0.922  0.00  0.00    -0.206 OA
ATOM     26  O   UNL d   1       3.092   0.164   1.486  0.00  0.00    -0.206 OA
BRANCH  24  27
ATOM     27  N   UNL d   1       1.007  -0.022   0.105  0.00  0.00    -0.225 NA
ATOM     28  H   UNL d   1       0.667   0.925   0.285  0.00  0.00     0.136 HD
ATOM     29  H   UNL d   1       0.648  -0.682   0.793  0.00  0.00     0.136 HD
ENDBRANCH  24  27
ENDBRANCH  22  24
ENDBRANCH  18  19
ENDBRANCH   1  18
TORSDOF 6
