@<TRIPOS>MOLECULE
*****
 61 64 0 0 0
SMALL
GASTEIGER

@<TRIPOS>ATOM
      1 C           8.3893    7.8147    0.3855 C.3     1  UNL1       -0.0307
      2 C           9.0496    6.6445   -0.3280 C.3     1  UNL1        0.0868
      3 O           8.0304    5.8466   -0.9453 O.3     1  UNL1       -0.4922
      4 C           8.4843    4.7274   -1.6026 C.ar    1  UNL1        0.1226
      5 C           9.4520    3.8698   -1.0742 C.ar    1  UNL1       -0.0178
      6 C           9.8571    2.7215   -1.7740 C.ar    1  UNL1       -0.0308
      7 C           9.2600    2.4275   -3.0096 C.ar    1  UNL1        0.0902
      8 N           9.4915    1.3860   -3.8765 N.ar    1  UNL1       -0.2220
      9 C           8.6637    1.5588   -4.8762 C.ar    1  UNL1        0.1680
     10 S           8.4766    0.6133   -6.3217 S.3     1  UNL1       -0.0754
     11 C           9.3565   -0.9876   -6.0849 C.3     1  UNL1        0.0862
     12 C           9.7504   -1.3028   -4.6422 C.3     1  UNL1       -0.0444
     13 C          10.6141   -1.0867   -6.9787 C.2     1  UNL1        0.2303
     14 O          11.7153   -1.3330   -6.4789 O.2     1  UNL1       -0.2743
     15 N          10.4454   -0.9393   -8.3547 N.am    1  UNL1       -0.2846
     16 C          11.5227   -1.0846   -9.2725 C.ar    1  UNL1        0.0335
     17 C          11.6219   -0.2717  -10.4033 C.ar    1  UNL1       -0.0398
     18 C          12.6206   -0.5257  -11.3699 C.ar    1  UNL1       -0.0479
     19 C          13.5369   -1.5900  -11.2170 C.ar    1  UNL1        0.0371
     20 C          14.5563   -1.8725  -12.2908 C.2     1  UNL1        0.2483
     21 O          14.3444   -1.4463  -13.4335 O.2     1  UNL1       -0.2699
     22 N          15.7274   -2.5165  -11.9183 N.am    1  UNL1       -0.2786
     23 C          16.9455   -2.4339  -12.6409 C.ar    1  UNL1        0.0758
     24 C          17.5568   -3.6604  -12.9757 C.ar    1  UNL1       -0.0369
     25 C          18.7865   -3.7063  -13.6437 C.ar    1  UNL1       -0.0598
     26 C          19.4133   -2.5233  -14.0084 C.ar    1  UNL1       -0.0582
     27 C          18.8374   -1.3034  -13.6480 C.ar    1  UNL1       -0.0181
     28 C          17.6165   -1.2322  -12.9452 C.ar    1  UNL1        0.1412
     29 O          17.3254    0.0626  -12.5944 O.3     1  UNL1       -0.4933
     30 C          16.2476    0.3416  -11.7229 C.3     1  UNL1        0.0789
     31 C          13.4880   -2.3284  -10.0387 C.ar    1  UNL1       -0.0479
     32 C          12.4838   -2.0856   -9.0927 C.ar    1  UNL1       -0.0398
     33 N           7.8965    2.6814   -4.6890 N.ar    1  UNL1       -0.3328
     34 C           8.2705    3.2711   -3.5015 C.ar    1  UNL1        0.0703
     35 C           7.8531    4.4276   -2.8234 C.ar    1  UNL1        0.0055
     36 H           9.1405    8.4637    0.8472 H       1  UNL1        0.0262
     37 H           7.7130    7.4564    1.1691 H       1  UNL1        0.0262
     38 H           7.7894    8.4097   -0.3099 H       1  UNL1        0.0262
     39 H           9.6180    6.0787    0.4166 H       1  UNL1        0.0694
     40 H           9.7316    7.0258   -1.0969 H       1  UNL1        0.0694
     41 H           9.8946    4.0525   -0.1001 H       1  UNL1        0.0655
     42 H          10.6149    2.0621   -1.3646 H       1  UNL1        0.0641
     43 H           8.6696   -1.7801   -6.4158 H       1  UNL1        0.0509
     44 H          10.5327   -0.6202   -4.2949 H       1  UNL1        0.0245
     45 H          10.1934   -2.3020   -4.5623 H       1  UNL1        0.0245
     46 H           8.8944   -1.2658   -3.9623 H       1  UNL1        0.0245
     47 H           9.5664   -0.5775   -8.7068 H       1  UNL1        0.1548
     48 H          10.9700    0.5914  -10.5274 H       1  UNL1        0.0636
     49 H          12.6851    0.1242  -12.2446 H       1  UNL1        0.0626
     50 H          15.7614   -3.0980  -11.0926 H       1  UNL1        0.1552
     51 H          17.0493   -4.6019  -12.7768 H       1  UNL1        0.0637
     52 H          19.2470   -4.6604  -13.8919 H       1  UNL1        0.0618
     53 H          20.3465   -2.5441  -14.5669 H       1  UNL1        0.0619
     54 H          19.3630   -0.3831  -13.8974 H       1  UNL1        0.0655
     55 H          16.2426    1.3987  -11.4510 H       1  UNL1        0.0660
     56 H          16.2917   -0.2480  -10.8002 H       1  UNL1        0.0660
     57 H          15.3133    0.2445  -12.2603 H       1  UNL1        0.0660
     58 H          14.1865   -3.1286   -9.8324 H       1  UNL1        0.0626
     59 H          12.4376   -2.7426   -8.2285 H       1  UNL1        0.0636
     60 H           7.1877    3.0129   -5.3242 H       1  UNL1        0.1679
     61 H           7.0813    5.0774   -3.2217 H       1  UNL1        0.0675
@<TRIPOS>BOND
     1     1     2    1
     2     2     3    1
     3     3     4    1
     4     4     5   ar
     5     5     6   ar
     6     6     7   ar
     7     7     8   ar
     8     8     9   ar
     9     9    10    1
    10    11    13    1
    11    13    14    2
    12    13    15   am
    13    15    16    1
    14    16    17   ar
    15    17    18   ar
    16    18    19   ar
    17    19    20    1
    18    20    21    2
    19    20    22   am
    20    22    23    1
    21    23    24   ar
    22    24    25   ar
    23    25    26   ar
    24    26    27   ar
    25    27    28   ar
    26    23    28   ar
    27    28    29    1
    28    29    30    1
    29    19    31   ar
    30    31    32   ar
    31    16    32   ar
    32     9    33   ar
    33    33    34   ar
    34     7    34   ar
    35    34    35   ar
    36     4    35   ar
    37    11    12    1
    38    11    10    1
    39     1    36    1
    40     1    37    1
    41     1    38    1
    42     2    39    1
    43     2    40    1
    44     5    41    1
    45     6    42    1
    46    11    43    1
    47    12    44    1
    48    12    45    1
    49    12    46    1
    50    15    47    1
    51    17    48    1
    52    18    49    1
    53    22    50    1
    54    24    51    1
    55    25    52    1
    56    26    53    1
    57    27    54    1
    58    30    55    1
    59    30    56    1
    60    30    57    1
    61    31    58    1
    62    32    59    1
    63    33    60    1
    64    35    61    1
