@<TRIPOS>MOLECULE
*****
 70 72 0 0 0
SMALL
GASTEIGER

@<TRIPOS>ATOM
      1 C           8.5580    0.3934   10.9336 C.3     1  UNL1       -0.0652
      2 C           7.4996    0.3009    9.8542 C.3     1  UNL1       -0.0545
      3 C           7.9695    0.9716    8.5735 C.3     1  UNL1       -0.0376
      4 C           6.8913    0.8522    7.5126 C.3     1  UNL1        0.0116
      5 N           7.3495    1.3889    6.2651 N.am    1  UNL1       -0.3135
      6 C           6.4580    1.5746    5.2353 C.2     1  UNL1        0.2381
      7 O           5.2805    1.2257    5.3557 O.2     1  UNL1       -0.2734
      8 C           7.0038    2.2383    3.9036 C.3     1  UNL1        0.1275
      9 C           6.2126    1.5571    2.7650 C.ar    1  UNL1       -0.0178
     10 C           5.6989    2.2624    1.6608 C.ar    1  UNL1       -0.0499
     11 C           5.1654    1.5575    0.5669 C.ar    1  UNL1        0.0159
     12 C           5.2219    0.1537    0.5361 C.ar    1  UNL1        0.2732
     13 N           4.8520   -0.5826   -0.6780 N.pl3   1  UNL1        0.0796
     14 O           4.3766    0.0775   -1.6240 O.2     1  UNL1        0.0414
     15 O           5.0493   -1.7986   -0.7054 O.co2   1  UNL1       -0.5760
     16 C           5.7126   -0.5623    1.6288 C.ar    1  UNL1        0.0159
     17 C           6.1275    0.1389    2.7609 C.ar    1  UNL1       -0.0499
     18 N           8.5341    2.2228    3.8025 N.am    1  UNL1       -0.2830
     19 C           9.2918    1.6534    2.6667 C.3     1  UNL1        0.0156
     20 C           8.5871    1.0020    1.5278 C.3     1  UNL1       -0.0400
     21 C           9.3269    0.3284    0.4194 C.3     1  UNL1       -0.0639
     22 C           9.2235    2.9963    4.7794 C.2     1  UNL1        0.2574
     23 O           8.5609    3.6340    5.6112 O.2     1  UNL1       -0.2716
     24 C          10.8337    2.9896    4.8632 C.3     1  UNL1        0.1924
     25 O          11.3382    1.6594    5.0346 O.3     1  UNL1       -0.3711
     26 C          11.3490    3.6691    3.5879 C.ar    1  UNL1       -0.0027
     27 C          12.1763    3.0396    2.6509 C.ar    1  UNL1       -0.0550
     28 C          12.5755    3.7301    1.5058 C.ar    1  UNL1       -0.0614
     29 C          12.1988    5.0606    1.3089 C.ar    1  UNL1       -0.0617
     30 C          11.3616    5.6895    2.2119 C.ar    1  UNL1       -0.0614
     31 C          10.8645    4.9573    3.2713 C.ar    1  UNL1       -0.0550
     32 C          11.2916    3.7351    6.1578 C.ar    1  UNL1       -0.0027
     33 C          11.5998    3.0388    7.3401 C.ar    1  UNL1       -0.0550
     34 C          11.7565    3.7233    8.5527 C.ar    1  UNL1       -0.0614
     35 C          11.6766    5.1138    8.6038 C.ar    1  UNL1       -0.0617
     36 C          11.4479    5.8255    7.4459 C.ar    1  UNL1       -0.0614
     37 C          11.2835    5.1407    6.2525 C.ar    1  UNL1       -0.0550
     38 H           8.2082   -0.0987   11.8449 H       1  UNL1        0.0230
     39 H           8.7823    1.4385   11.1686 H       1  UNL1        0.0230
     40 H           9.4835   -0.0938   10.6111 H       1  UNL1        0.0230
     41 H           6.5745    0.7749   10.2031 H       1  UNL1        0.0263
     42 H           7.2702   -0.7522    9.6540 H       1  UNL1        0.0263
     43 H           8.9005    0.5115    8.2186 H       1  UNL1        0.0280
     44 H           8.1972    2.0302    8.7586 H       1  UNL1        0.0280
     45 H           5.9831    1.3843    7.8172 H       1  UNL1        0.0462
     46 H           6.6330   -0.1951    7.3259 H       1  UNL1        0.0462
     47 H           8.0828    2.0839    6.3363 H       1  UNL1        0.1487
     48 H           6.7090    3.2978    3.9453 H       1  UNL1        0.0648
     49 H           5.8182    3.3429    1.5838 H       1  UNL1        0.0623
     50 H           4.7740    2.1139   -0.2834 H       1  UNL1        0.0685
     51 H           5.8824   -1.6364    1.5889 H       1  UNL1        0.0685
     52 H           6.6144   -0.4268    3.5596 H       1  UNL1        0.0623
     53 H           9.9288    0.8775    3.0782 H       1  UNL1        0.0465
     54 H           9.8660    2.4489    2.2142 H       1  UNL1        0.0465
     55 H           7.9489    1.7434    1.0576 H       1  UNL1        0.0278
     56 H           8.1171    0.1515    1.9853 H       1  UNL1        0.0278
     57 H           9.9345    1.0337   -0.1405 H       1  UNL1        0.0230
     58 H           8.5625   -0.1004   -0.2435 H       1  UNL1        0.0230
     59 H           9.9232   -0.4938    0.8178 H       1  UNL1        0.0230
     60 H          11.1491    1.1236    4.2617 H       1  UNL1        0.2116
     61 H          12.4363    1.9875    2.7437 H       1  UNL1        0.0621
     62 H          13.1890    3.2294    0.7633 H       1  UNL1        0.0618
     63 H          12.5304    5.6032    0.4308 H       1  UNL1        0.0618
     64 H          11.0751    6.7313    2.1039 H       1  UNL1        0.0618
     65 H          10.0858    5.4251    3.8745 H       1  UNL1        0.0621
     66 H          11.7036    1.9546    7.3417 H       1  UNL1        0.0621
     67 H          11.9123    3.1654    9.4706 H       1  UNL1        0.0618
     68 H          11.7967    5.6497    9.5379 H       1  UNL1        0.0618
     69 H          11.3615    6.9081    7.4404 H       1  UNL1        0.0618
     70 H          11.1258    5.7930    5.4129 H       1  UNL1        0.0621
@<TRIPOS>UNITY_ATOM_ATTR
13 1
charge 1
15 1
charge -1
@<TRIPOS>BOND
     1     1     2    1
     2     2     3    1
     3     3     4    1
     4     4     5    1
     5     5     6   am
     6     6     7    2
     7     9    10   ar
     8    10    11   ar
     9    11    12   ar
    10    12    13    1
    11    13    14    2
    12    13    15    1
    13    12    16   ar
    14    16    17   ar
    15     9    17   ar
    16     8    18    1
    17    18    19    1
    18    19    20    1
    19    20    21    1
    20    18    22   am
    21    22    23    2
    22    22    24    1
    23    24    25    1
    24    24    26    1
    25    26    27   ar
    26    27    28   ar
    27    28    29   ar
    28    29    30   ar
    29    30    31   ar
    30    26    31   ar
    31    24    32    1
    32    32    33   ar
    33    33    34   ar
    34    34    35   ar
    35    35    36   ar
    36    36    37   ar
    37    32    37   ar
    38     8     9    1
    39     8     6    1
    40     1    38    1
    41     1    39    1
    42     1    40    1
    43     2    41    1
    44     2    42    1
    45     3    43    1
    46     3    44    1
    47     4    45    1
    48     4    46    1
    49     5    47    1
    50     8    48    1
    51    10    49    1
    52    11    50    1
    53    16    51    1
    54    17    52    1
    55    19    53    1
    56    19    54    1
    57    20    55    1
    58    20    56    1
    59    21    57    1
    60    21    58    1
    61    21    59    1
    62    25    60    1
    63    27    61    1
    64    28    62    1
    65    29    63    1
    66    30    64    1
    67    31    65    1
    68    33    66    1
    69    34    67    1
    70    35    68    1
    71    36    69    1
    72    37    70    1
