REMARK  12 active torsions:
REMARK  status: ('A' for Active; 'I' for Inactive)
REMARK    1  A    between atoms: C_2  and  C_3 
REMARK    2  A    between atoms: C_3  and  C_4 
REMARK    3  A    between atoms: C_4  and  C_5 
REMARK    4  A    between atoms: C_6  and  C_5 
REMARK    5  A    between atoms: C_6  and  N_21 
REMARK    6  A    between atoms: C_6  and  C_7 
REMARK       I    between atoms: C_7  and  N_9 
REMARK    7  A    between atoms: N_9  and  C_10 
REMARK    8  A    between atoms: C_10  and  S_11 
REMARK    9  A    between atoms: S_11  and  C_14 
REMARK       I    between atoms: N_21  and  C_23 
REMARK   10  A    between atoms: C_23  and  C_25 
REMARK   11  A    between atoms: C_27  and  N_28 
REMARK   12  A    between atoms: C_32  and  N_33 
ROOT
ATOM      1  C   UNL d   1       6.447  -0.453  -2.861  0.00  0.00     0.179 C 
ENDROOT
BRANCH   1   2
ATOM      2  N   UNL d   1       7.195  -0.891  -4.133  0.00  0.00    -0.339 N 
ATOM      3  C   UNL d   1       6.405  -1.061  -5.354  0.00  0.00     0.154 C 
ATOM      4  C   UNL d   1       8.616  -0.906  -4.355  0.00  0.00     0.254 C 
ATOM      5  O   UNL d   1       9.072  -0.427  -5.398  0.00  0.00    -0.267 OA
BRANCH   4   6
ATOM      6  C   UNL d   1       9.643  -1.636  -3.456  0.00  0.00     0.036 C 
ATOM      7  C   UNL d   1      11.018  -1.631  -3.730  0.00  0.00     0.053 C 
ATOM      8  C   UNL d   1      11.922  -2.376  -2.899  0.00  0.00     0.106 C 
ATOM      9  C   UNL d   1      11.515  -3.102  -1.778  0.00  0.00     0.072 C 
ATOM     10  C   UNL d   1      10.190  -3.139  -1.527  0.00  0.00     0.106 C 
ATOM     11  C   UNL d   1       9.313  -2.500  -2.415  0.00  0.00     0.053 C 
BRANCH   8  12
ATOM     12  N   UNL d   1      13.350  -2.420  -3.184  0.00  0.00    -0.116 N 
ATOM     13  O   UNL d   1      13.758  -1.798  -4.166  0.00  0.00    -0.532 OA
ATOM     14  O   UNL d   1      14.059  -3.082  -2.411  0.00  0.00    -0.532 OA
ENDBRANCH   8  12
BRANCH  10  15
ATOM     15  N   UNL d   1       9.669  -3.908  -0.399  0.00  0.00    -0.116 N 
ATOM     16  O   UNL d   1      10.480  -4.383   0.421  0.00  0.00    -0.532 OA
ATOM     17  O   UNL d   1       8.476  -4.050  -0.324  0.00  0.00    -0.532 OA
ENDBRANCH  10  15
ENDBRANCH   4   6
ENDBRANCH   1   2
BRANCH   1  18
ATOM     18  C   UNL d   1       4.865  -0.219  -2.873  0.00  0.00     0.241 C 
ATOM     19  O   UNL d   1       4.140  -0.253  -3.863  0.00  0.00    -0.271 OA
ATOM     20  N   UNL d   1       4.240  -0.022  -1.662  0.00  0.00    -0.346 N 
ATOM     21  H   UNL d   1       4.747   0.155  -0.804  0.00  0.00     0.163 HD
BRANCH  20  22
ATOM     22  C   UNL d   1       2.833  -0.407  -1.487  0.00  0.00     0.268 C 
BRANCH  22  23
ATOM     23  S   UNL d   1       2.288  -0.483   0.233  0.00  0.00     0.192 S 
ATOM     24  O   UNL d   1       2.643  -1.770   0.789  0.00  0.00    -0.221 OA
ATOM     25  O   UNL d   1       2.739   0.738   0.878  0.00  0.00    -0.221 OA
BRANCH  23  26
ATOM     26  C   UNL d   1       0.532  -0.448   0.195  0.00  0.00     0.060 A 
ATOM     27  C   UNL d   1      -0.206  -1.437   0.856  0.00  0.00     0.024 A 
ATOM     28  C   UNL d   1      -1.593  -1.320   0.918  0.00  0.00     0.008 A 
ATOM     29  C   UNL d   1      -2.232  -0.229   0.316  0.00  0.00    -0.062 A 
ATOM     30  C   UNL d   1      -3.721  -0.076   0.395  0.00  0.00     0.048 C 
ATOM     31  C   UNL d   1      -1.473   0.735  -0.362  0.00  0.00     0.008 A 
ATOM     32  C   UNL d   1      -0.090   0.629  -0.424  0.00  0.00     0.024 A 
ENDBRANCH  23  26
ENDBRANCH  22  23
ENDBRANCH  20  22
ENDBRANCH   1  18
BRANCH   1  33
ATOM     33  C   UNL d   1       6.716  -1.550  -1.847  0.00  0.00     0.035 C 
BRANCH  33  34
ATOM     34  C   UNL d   1       5.709  -2.018  -0.858  0.00  0.00     0.002 C 
BRANCH  34  35
ATOM     35  C   UNL d   1       6.079  -3.178  -0.003  0.00  0.00    -0.000 C 
BRANCH  35  36
ATOM     36  C   UNL d   1       4.879  -3.532   0.823  0.00  0.00    -0.005 C 
ATOM     37  C   UNL d   1       5.232  -4.642   1.765  0.00  0.00     0.005 C 
ENDBRANCH  35  36
ENDBRANCH  34  35
ENDBRANCH  33  34
ENDBRANCH   1  33
TORSDOF 12
