REMARK  6 active torsions:
REMARK  status: ('A' for Active; 'I' for Inactive)
REMARK    1  A    between atoms: C_2  and  C_11 
REMARK    2  A    between atoms: C_2  and  O_3 
REMARK    3  A    between atoms: O_3  and  C_4 
REMARK       I    between atoms: C_11  and  N_13 
REMARK    4  A    between atoms: N_13  and  N_14 
REMARK       I    between atoms: N_14  and  C_15 
REMARK    5  A    between atoms: C_15  and  C_17 
REMARK    6  A    between atoms: C_21  and  C_22 
ROOT
ATOM      1  N   UNL d   1       4.910   2.192   2.199  0.00  0.00    -0.263 N 
ATOM      2  C   UNL d   1       6.288   2.309   2.304  0.00  0.00     0.273 C 
ATOM      3  O   UNL d   1       6.994   1.624   1.571  0.00  0.00    -0.266 OA
ATOM      4  H   UNL d   1       4.242   2.762   2.707  0.00  0.00     0.190 HD
ENDROOT
BRANCH   1   5
ATOM      5  N   UNL d   1       4.403   1.264   1.243  0.00  0.00    -0.265 N 
ATOM      6  C   UNL d   1       3.030   1.135   1.068  0.00  0.00     0.265 C 
ATOM      7  O   UNL d   1       2.251   1.782   1.769  0.00  0.00    -0.269 OA
ATOM      8  H   UNL d   1       5.111   0.772   0.695  0.00  0.00     0.190 HD
BRANCH   6   9
ATOM      9  C   UNL d   1       2.578   0.153  -0.073  0.00  0.00     0.218 C 
ATOM     10  C   UNL d   1       3.199   0.705  -1.370  0.00  0.00     0.050 C 
BRANCH   9  11
ATOM     11  O   UNL d   1       1.136   0.055  -0.085  0.00  0.00    -0.334 OA
BRANCH  11  12
ATOM     12  C   UNL d   1       0.470  -0.587  -1.097  0.00  0.00     0.108 C 
ATOM     13  C   UNL d   1       1.085  -1.261  -2.149  0.00  0.00     0.040 C 
ATOM     14  C   UNL d   1       0.380  -1.630  -3.295  0.00  0.00     0.003 C 
ATOM     15  C   UNL d   1      -1.002  -1.524  -3.320  0.00  0.00     0.003 C 
ATOM     16  C   UNL d   1      -1.664  -1.022  -2.202  0.00  0.00     0.045 C 
ATOM     17  C   UNL d   1      -0.930  -0.533  -1.113  0.00  0.00     0.149 C 
ATOM     18  F   UNL d   1      -1.608  -0.030  -0.070  0.00  0.00    -0.203 F 
ENDBRANCH  11  12
ENDBRANCH   9  11
ENDBRANCH   6   9
ENDBRANCH   1   5
BRANCH   2  19
ATOM     19  C   UNL d   1       6.813   3.243   3.308  0.00  0.00     0.077 A 
ATOM     20  C   UNL d   1       6.318   3.455   4.581  0.00  0.00     0.128 A 
ATOM     21  N   UNL d   1       7.175   4.314   5.208  0.00  0.00    -0.288 N 
ATOM     22  N   UNL d   1       8.169   4.742   4.421  0.00  0.00    -0.178 NA
ATOM     23  H   UNL d   1       7.149   4.645   6.168  0.00  0.00     0.188 HD
ATOM     24  C   UNL d   1       7.977   4.090   3.264  0.00  0.00     0.076 A 
BRANCH  24  25
ATOM     25  C   UNL d   1       8.922   4.353   2.116  0.00  0.00     0.040 C 
ATOM     26  C   UNL d   1       9.674   3.078   1.715  0.00  0.00     0.011 C 
ATOM     27  C   UNL d   1      10.457   3.199   0.419  0.00  0.00     0.001 C 
ATOM     28  C   UNL d   1       9.598   3.766  -0.707  0.00  0.00     0.000 C 
ATOM     29  C   UNL d   1       9.008   5.114  -0.314  0.00  0.00     0.001 C 
ATOM     30  C   UNL d   1       8.159   4.993   0.944  0.00  0.00     0.011 C 
ENDBRANCH  24  25
ENDBRANCH   2  19
TORSDOF 6
