@<TRIPOS>MOLECULE
*****
 53 54 0 0 0
SMALL
GASTEIGER

@<TRIPOS>ATOM
      1 C           1.0655    0.0160    0.0407 C.3     1  UNL1       -0.0466
      2 C           2.5986   -0.0016   -0.0022 C.3     1  UNL1        0.0221
      3 C           3.0419   -0.3590   -1.4207 C.3     1  UNL1       -0.0307
      4 C           2.5582   -1.7204   -1.9340 C.3     1  UNL1       -0.0260
      5 C           3.0719   -2.0220   -3.3216 C.ar    1  UNL1       -0.0473
      6 C           3.0341   -3.3347   -3.8025 C.ar    1  UNL1       -0.0586
      7 C           3.6059   -3.6382   -5.0382 C.ar    1  UNL1       -0.0615
      8 C           4.1358   -2.6250   -5.8380 C.ar    1  UNL1       -0.0617
      9 C           4.1294   -1.3111   -5.3927 C.ar    1  UNL1       -0.0615
     10 C           3.6009   -1.0161   -4.1455 C.ar    1  UNL1       -0.0586
     11 N           3.1841    1.2948    0.3989 N.am    1  UNL1       -0.2968
     12 C           4.5433    1.4816    0.4896 C.2     1  UNL1        0.2999
     13 O           5.3679    0.5927    0.2698 O.2     1  UNL1       -0.2529
     14 N           4.9333    2.7569    0.8087 N.am    1  UNL1       -0.2968
     15 C           6.3598    3.0722    0.9374 C.3     1  UNL1        0.0423
     16 C           6.6476    4.5039    1.4284 C.3     1  UNL1        0.1046
     17 O           6.0167    4.6860    2.7052 O.3     1  UNL1       -0.3869
     18 C           8.1705    4.7759    1.5245 C.3     1  UNL1        0.1169
     19 O           8.3926    6.0997    2.0398 O.3     1  UNL1       -0.4893
     20 C           9.6895    6.5402    2.0793 C.ar    1  UNL1        0.1210
     21 C          10.0256    7.3744    3.1535 C.ar    1  UNL1       -0.0135
     22 C          11.2848    7.9854    3.2213 C.ar    1  UNL1        0.0190
     23 C          12.2374    7.7035    2.2363 C.ar    1  UNL1        0.2734
     24 N          13.6046    8.2269    2.3658 N.pl3   1  UNL1        0.0796
     25 O          13.8630    8.9310    3.3521 O.2     1  UNL1        0.0414
     26 O          14.4274    7.9101    1.4940 O.co2   1  UNL1       -0.5760
     27 C          11.9080    6.8795    1.1531 C.ar    1  UNL1        0.0190
     28 C          10.6309    6.3076    1.0753 C.ar    1  UNL1       -0.0135
     29 H           0.6465   -0.9632   -0.2209 H       1  UNL1        0.0247
     30 H           0.6596    0.7413   -0.6750 H       1  UNL1        0.0247
     31 H           0.6886    0.2619    1.0347 H       1  UNL1        0.0247
     32 H           2.9736   -0.7573    0.6979 H       1  UNL1        0.0496
     33 H           4.1356   -0.3517   -1.4895 H       1  UNL1        0.0286
     34 H           2.6823    0.4421   -2.0783 H       1  UNL1        0.0286
     35 H           1.4657   -1.7708   -1.9726 H       1  UNL1        0.0314
     36 H           2.9073   -2.4995   -1.2425 H       1  UNL1        0.0314
     37 H           2.5798   -4.1278   -3.2120 H       1  UNL1        0.0620
     38 H           3.6535   -4.6699   -5.3732 H       1  UNL1        0.0618
     39 H           4.5550   -2.8563   -6.8111 H       1  UNL1        0.0618
     40 H           4.5512   -0.5098   -5.9913 H       1  UNL1        0.0618
     41 H           3.6368    0.0216   -3.8292 H       1  UNL1        0.0620
     42 H           2.5656    2.0600    0.6229 H       1  UNL1        0.1505
     43 H           4.2585    3.4346    1.1356 H       1  UNL1        0.1503
     44 H           6.8257    2.9007   -0.0400 H       1  UNL1        0.0489
     45 H           6.7899    2.3490    1.6425 H       1  UNL1        0.0489
     46 H           6.1923    5.2345    0.7504 H       1  UNL1        0.0643
     47 H           6.4744    4.1134    3.3452 H       1  UNL1        0.2100
     48 H           8.6033    4.6564    0.5263 H       1  UNL1        0.0723
     49 H           8.6381    4.0661    2.2169 H       1  UNL1        0.0723
     50 H           9.3052    7.5474    3.9510 H       1  UNL1        0.0656
     51 H          11.5033    8.6710    4.0381 H       1  UNL1        0.0686
     52 H          12.6243    6.6821    0.3578 H       1  UNL1        0.0686
     53 H          10.3945    5.7066    0.2044 H       1  UNL1        0.0656
@<TRIPOS>UNITY_ATOM_ATTR
24 1
charge 1
26 1
charge -1
@<TRIPOS>BOND
     1     1     2    1
     2     2     3    1
     3     3     4    1
     4     4     5    1
     5     5     6   ar
     6     6     7   ar
     7     7     8   ar
     8     8     9   ar
     9     9    10   ar
    10     5    10   ar
    11     2    11    1
    12    11    12   am
    13    12    13    2
    14    12    14   am
    15    14    15    1
    16    15    16    1
    17    16    17    1
    18    16    18    1
    19    18    19    1
    20    19    20    1
    21    20    21   ar
    22    21    22   ar
    23    22    23   ar
    24    23    24    1
    25    24    25    2
    26    24    26    1
    27    23    27   ar
    28    27    28   ar
    29    20    28   ar
    30     1    29    1
    31     1    30    1
    32     1    31    1
    33     2    32    1
    34     3    33    1
    35     3    34    1
    36     4    35    1
    37     4    36    1
    38     6    37    1
    39     7    38    1
    40     8    39    1
    41     9    40    1
    42    10    41    1
    43    11    42    1
    44    14    43    1
    45    15    44    1
    46    15    45    1
    47    16    46    1
    48    17    47    1
    49    18    48    1
    50    18    49    1
    51    21    50    1
    52    22    51    1
    53    27    52    1
    54    28    53    1
