@<TRIPOS>MOLECULE
*****
 73 78 0 0 0
SMALL
GASTEIGER

@<TRIPOS>ATOM
      1 C           1.5930    0.4639   -0.8501 C.3     1  UNL1       -0.0631
      2 C           3.0584    0.5404   -0.1709 C.3     1  UNL1       -0.0309
      3 C           3.6026   -0.3524    1.1324 C.3     1  UNL1        0.0617
      4 C           3.1334   -0.3143    2.6489 C.3     1  UNL1       -0.0399
      5 C           3.1221   -1.4864    0.4321 C.3     1  UNL1       -0.0399
      6 N           5.0088   -0.7918    1.1734 N.ar    1  UNL1       -0.2185
      7 N           5.9285    0.1546    1.0422 N.ar    1  UNL1       -0.0432
      8 N           7.0732   -0.4859    0.9355 N.ar    1  UNL1       -0.0228
      9 N           6.8894   -1.8483    0.9343 N.ar    1  UNL1       -0.1071
     10 C           5.5902   -2.0798    1.0653 C.ar    1  UNL1        0.2048
     11 C           4.9769   -3.5694    1.0529 C.3     1  UNL1        0.0727
     12 C           5.5679   -4.3994    2.1925 C.ar    1  UNL1        0.0725
     13 C           6.1644   -5.6184    2.0865 C.ar    1  UNL1       -0.0383
     14 C           6.4787   -6.3926    3.3094 C.ar    1  UNL1        0.0027
     15 C           6.9299   -7.7310    3.4057 C.ar    1  UNL1       -0.0070
     16 C           7.1404   -8.2116    4.7050 C.ar    1  UNL1        0.1669
     17 C           7.3850   -7.3133    5.6986 C.ar    1  UNL1        0.1682
     18 C           6.6753   -6.1747    5.7167 C.ar    1  UNL1        0.0078
     19 C           6.2004   -5.7451    4.5212 C.ar    1  UNL1        0.0529
     20 N           5.5123   -4.5554    4.5963 N.ar    1  UNL1       -0.3216
     21 C           5.4159   -3.7880    3.5355 C.ar    1  UNL1        0.2582
     22 O           5.0692   -2.5771    3.7199 O.2     1  UNL1       -0.2674
     23 O           7.7566   -7.8511    6.8807 O.3     1  UNL1       -0.4525
     24 C           6.8307   -8.9175    6.7684 C.3     1  UNL1        0.2332
     25 O           6.8617   -9.4090    5.3626 O.3     1  UNL1       -0.4526
     26 N           3.2483   -3.9818    0.9574 N.4     1  UNL1        0.2486
     27 C           2.5478   -3.4643    2.4183 C.3     1  UNL1       -0.0147
     28 C           1.0411   -2.8557    2.3726 C.3     1  UNL1        0.0525
     29 N           0.6170   -2.0275    1.1490 N.pl3   1  UNL1       -0.3197
     30 C           0.0067   -0.6818    1.2846 C.ar    1  UNL1        0.0335
     31 C           0.5798    0.5739    1.8229 C.ar    1  UNL1       -0.0404
     32 C           0.1798    1.9584    1.6833 C.ar    1  UNL1       -0.0566
     33 C          -0.9930    2.2076    1.0572 C.ar    1  UNL1       -0.0198
     34 C          -1.6499    1.0861    0.5395 C.ar    1  UNL1        0.1218
     35 O          -2.8121    1.4361   -0.1005 O.3     1  UNL1       -0.4951
     36 C          -3.5652    0.3243   -0.5375 C.3     1  UNL1        0.0788
     37 C          -1.1252   -0.2916    0.5820 C.ar    1  UNL1        0.0011
     38 C           0.7946   -2.9955   -0.2057 C.3     1  UNL1        0.0525
     39 C           2.3610   -3.6061   -0.5196 C.3     1  UNL1       -0.0147
     40 H           1.4767    0.9445   -1.8149 H       1  UNL1        0.0231
     41 H           0.9222    1.0457   -0.2733 H       1  UNL1        0.0231
     42 H           1.0974   -0.5058   -1.0178 H       1  UNL1        0.0231
     43 H           3.2716    1.5731    0.0221 H       1  UNL1        0.0286
     44 H           3.6424    0.1606   -1.0295 H       1  UNL1        0.0286
     45 H           2.1065   -0.6434    2.8206 H       1  UNL1        0.0253
     46 H           3.2943    0.6708    3.0808 H       1  UNL1        0.0253
     47 H           3.5586   -0.9943    3.3892 H       1  UNL1        0.0253
     48 H           2.2488   -1.3659   -0.1295 H       1  UNL1        0.0253
     49 H           2.7153   -2.0934    1.1359 H       1  UNL1        0.0253
     50 H           3.8618   -1.9147   -0.2355 H       1  UNL1        0.0253
     51 H           5.3378   -4.0166    0.1114 H       1  UNL1        0.0991
     52 H           6.3872   -6.0602    1.1199 H       1  UNL1        0.0631
     53 H           7.1850   -8.2995    2.5127 H       1  UNL1        0.0662
     54 H           6.4553   -5.7219    6.6696 H       1  UNL1        0.0676
     55 H           5.3661   -4.1386    5.5120 H       1  UNL1        0.1689
     56 H           5.8299   -8.4975    7.0214 H       1  UNL1        0.1166
     57 H           7.0849   -9.6148    7.5696 H       1  UNL1        0.1166
     58 H           3.2298   -5.0098    1.0005 H       1  UNL1        0.2046
     59 H           3.2286   -2.6690    2.6745 H       1  UNL1        0.0830
     60 H           2.7747   -4.1617    3.2345 H       1  UNL1        0.0830
     61 H           0.8354   -2.2849    3.2895 H       1  UNL1        0.0516
     62 H           0.4110   -3.7432    2.3910 H       1  UNL1        0.0516
     63 H           1.6141    0.7578    1.9941 H       1  UNL1        0.0636
     64 H           0.9172    2.7755    1.8000 H       1  UNL1        0.0619
     65 H          -1.3010    3.2338    0.8559 H       1  UNL1        0.0654
     66 H          -4.5803    0.6597   -0.7370 H       1  UNL1        0.0660
     67 H          -3.6225   -0.4603    0.2267 H       1  UNL1        0.0660
     68 H          -3.1174   -0.0556   -1.4601 H       1  UNL1        0.0660
     69 H          -1.5522   -1.0158   -0.0942 H       1  UNL1        0.0673
     70 H           0.4713   -2.4445   -1.1057 H       1  UNL1        0.0516
     71 H           0.1664   -3.8812   -0.1087 H       1  UNL1        0.0516
     72 H           2.8358   -2.8297   -1.1568 H       1  UNL1        0.0830
     73 H           2.6185   -4.3773   -1.2717 H       1  UNL1        0.0830
@<TRIPOS>UNITY_ATOM_ATTR
26 1
charge 1
@<TRIPOS>BOND
     1     1     2    1
     2     2     3    1
     3     3     4    1
     4     3     5    1
     5     3     6    1
     6     6     7   ar
     7     7     8   ar
     8     8     9   ar
     9     9    10   ar
    10     6    10   ar
    11    10    11    1
    12    11    12    1
    13    12    13   ar
    14    13    14   ar
    15    14    15   ar
    16    15    16   ar
    17    16    17   ar
    18    17    18   ar
    19    18    19   ar
    20    14    19   ar
    21    19    20   ar
    22    20    21   ar
    23    12    21   ar
    24    21    22    2
    25    17    23    1
    26    23    24    1
    27    24    25    1
    28    16    25    1
    29    11    26    1
    30    26    27    1
    31    27    28    1
    32    28    29    1
    33    29    30    1
    34    30    31   ar
    35    31    32   ar
    36    32    33   ar
    37    33    34   ar
    38    34    35    1
    39    35    36    1
    40    34    37   ar
    41    30    37   ar
    42    29    38    1
    43    38    39    1
    44    26    39    1
    45     1    40    1
    46     1    41    1
    47     1    42    1
    48     2    43    1
    49     2    44    1
    50     4    45    1
    51     4    46    1
    52     4    47    1
    53     5    48    1
    54     5    49    1
    55     5    50    1
    56    11    51    1
    57    13    52    1
    58    15    53    1
    59    18    54    1
    60    20    55    1
    61    24    56    1
    62    24    57    1
    63    26    58    1
    64    27    59    1
    65    27    60    1
    66    28    61    1
    67    28    62    1
    68    31    63    1
    69    32    64    1
    70    33    65    1
    71    36    66    1
    72    36    67    1
    73    36    68    1
    74    37    69    1
    75    38    70    1
    76    38    71    1
    77    39    72    1
    78    39    73    1
