@<TRIPOS>MOLECULE
*****
 49 50 0 0 0
SMALL
GASTEIGER

@<TRIPOS>ATOM
      1 C           1.0644   -0.2600   -0.0233 C.3     1  UNL1       -0.0470
      2 C           2.5728   -0.0814   -0.0490 C.3     1  UNL1        0.0239
      3 N           3.0139    1.2646    0.3277 N.ar    1  UNL1       -0.3073
      4 C           2.5197    2.4696   -0.0607 C.ar    1  UNL1        0.1333
      5 C           1.3255    2.5902   -0.9713 C.3     1  UNL1        0.0230
      6 C           0.8991    4.0078   -1.2690 C.3     1  UNL1        0.0185
      7 N          -0.2727    4.0713   -2.1426 N.am    1  UNL1       -0.3149
      8 C          -0.8028    5.3084   -2.4539 C.2     1  UNL1        0.2145
      9 O          -0.3097    6.3422   -2.0115 O.2     1  UNL1       -0.2758
     10 C          -2.0195    5.3031   -3.3707 C.3     1  UNL1        0.0395
     11 C          -2.4818    6.7406   -3.6415 C.3     1  UNL1        0.0202
     12 N          -3.6616    6.8475   -4.5012 N.am    1  UNL1       -0.3108
     13 C          -4.1509    8.0996   -4.8604 C.2     1  UNL1        0.2476
     14 O          -3.6726    9.1443   -4.4179 O.2     1  UNL1       -0.2701
     15 C          -5.3189    8.1419   -5.7961 C.ar    1  UNL1        0.0780
     16 C          -6.4187    7.2929   -5.5961 C.ar    1  UNL1       -0.0459
     17 C          -7.5508    7.3786   -6.4267 C.ar    1  UNL1       -0.0579
     18 C          -7.6091    8.3234   -7.4587 C.ar    1  UNL1       -0.0470
     19 C          -8.8061    8.4562   -8.3582 C.3     1  UNL1       -0.0396
     20 C          -6.5144    9.1724   -7.6565 C.ar    1  UNL1       -0.0165
     21 C          -5.3805    9.0783   -6.8393 C.ar    1  UNL1        0.1292
     22 O          -4.3170    9.8947   -7.1084 O.3     1  UNL1       -0.5060
     23 N           3.1486    3.4965    0.4362 N.ar    1  UNL1       -0.1585
     24 N           4.1429    2.9521    1.1904 N.ar    1  UNL1       -0.2543
     25 C           4.1011    1.5695    1.1190 C.ar    1  UNL1        0.1755
     26 S           5.1938    0.5793    1.8756 S.2     1  UNL1       -0.0115
     27 H           0.7774   -1.3050   -0.1422 H       1  UNL1        0.0247
     28 H           0.5919    0.2485   -0.8639 H       1  UNL1        0.0247
     29 H           0.6459    0.1301    0.9113 H       1  UNL1        0.0247
     30 H           2.9657   -0.2947   -1.0488 H       1  UNL1        0.0490
     31 H           3.0092   -0.8100    0.6411 H       1  UNL1        0.0490
     32 H           0.4715    2.1396   -0.4616 H       1  UNL1        0.0359
     33 H           1.5298    2.0377   -1.8965 H       1  UNL1        0.0359
     34 H           1.7113    4.5725   -1.7363 H       1  UNL1        0.0466
     35 H           0.6354    4.5068   -0.3286 H       1  UNL1        0.0466
     36 H          -0.7059    3.2223   -2.4855 H       1  UNL1        0.1487
     37 H          -2.8254    4.7299   -2.8990 H       1  UNL1        0.0374
     38 H          -1.7552    4.8085   -4.3124 H       1  UNL1        0.0374
     39 H          -1.6710    7.3143   -4.1094 H       1  UNL1        0.0467
     40 H          -2.7199    7.2448   -2.6964 H       1  UNL1        0.0467
     41 H          -4.0410    6.0222   -4.9431 H       1  UNL1        0.1490
     42 H          -6.4231    6.5855   -4.7713 H       1  UNL1        0.0626
     43 H          -8.3929    6.7115   -6.2490 H       1  UNL1        0.0620
     44 H          -9.5977    7.7457   -8.1011 H       1  UNL1        0.0278
     45 H          -8.5142    8.2744   -9.3986 H       1  UNL1        0.0278
     46 H          -9.2238    9.4667   -8.2838 H       1  UNL1        0.0278
     47 H          -6.5582    9.9060   -8.4582 H       1  UNL1        0.0657
     48 H          -4.5453   10.5067   -7.8258 H       1  UNL1        0.2922
     49 H           4.8049    3.5185    1.7080 H       1  UNL1        0.1910
@<TRIPOS>BOND
     1     1     2    1
     2     2     3    1
     3     3     4   ar
     4     4     5    1
     5     5     6    1
     6     6     7    1
     7     7     8   am
     8     8     9    2
     9     8    10    1
    10    10    11    1
    11    11    12    1
    12    12    13   am
    13    13    14    2
    14    13    15    1
    15    15    16   ar
    16    16    17   ar
    17    17    18   ar
    18    18    19    1
    19    18    20   ar
    20    20    21   ar
    21    15    21   ar
    22    21    22    1
    23     4    23   ar
    24    23    24   ar
    25    24    25   ar
    26     3    25   ar
    27    25    26    2
    28     1    27    1
    29     1    28    1
    30     1    29    1
    31     2    30    1
    32     2    31    1
    33     5    32    1
    34     5    33    1
    35     6    34    1
    36     6    35    1
    37     7    36    1
    38    10    37    1
    39    10    38    1
    40    11    39    1
    41    11    40    1
    42    12    41    1
    43    16    42    1
    44    17    43    1
    45    19    44    1
    46    19    45    1
    47    19    46    1
    48    20    47    1
    49    22    48    1
    50    24    49    1
