REMARK  6 active torsions:
REMARK  status: ('A' for Active; 'I' for Inactive)
REMARK    1  A    between atoms: C_2  and  C_3 
REMARK    2  A    between atoms: C_3  and  N_5 
REMARK       I    between atoms: N_5  and  C_6 
REMARK    3  A    between atoms: C_6  and  C_8 
REMARK    4  A    between atoms: C_10  and  N_11 
REMARK       I    between atoms: N_11  and  C_12 
REMARK       I    between atoms: C_12  and  N_14 
REMARK    5  A    between atoms: N_14  and  C_15 
REMARK    6  A    between atoms: C_24  and  N_25 
ROOT
ATOM      1  C   UNL d   1       6.783   2.361  -0.766  0.00  0.00     0.060 A 
ATOM      2  C   UNL d   1       7.559   3.541  -0.413  0.00  0.00     0.049 A 
ATOM      3  C   UNL d   1       8.921   3.594  -0.656  0.00  0.00     0.037 A 
ATOM      4  C   UNL d   1       9.451   2.385  -1.148  0.00  0.00     0.032 A 
ATOM      5  C   UNL d   1       8.704   1.191  -1.539  0.00  0.00     0.032 A 
ATOM      6  C   UNL d   1       7.329   1.066  -1.389  0.00  0.00     0.046 A 
ENDROOT
BRANCH   3   7
ATOM      7  N   UNL d   1       9.711   4.812  -0.458  0.00  0.00    -0.309 N 
ATOM      8  C   UNL d   1      11.064   4.911  -0.800  0.00  0.00     0.325 C 
ATOM      9  O   UNL d   1      11.712   3.958  -1.224  0.00  0.00    -0.247 OA
ATOM     10  N   UNL d   1      11.693   6.138  -0.602  0.00  0.00    -0.309 N 
ATOM     11  H   UNL d   1      11.249   6.897  -0.107  0.00  0.00     0.170 HD
ATOM     12  H   UNL d   1       9.216   5.653  -0.182  0.00  0.00     0.170 HD
BRANCH  10  13
ATOM     13  C   UNL d   1      13.086   6.299  -0.933  0.00  0.00     0.036 A 
ATOM     14  C   UNL d   1      13.955   7.043  -0.127  0.00  0.00     0.029 A 
ATOM     15  C   UNL d   1      15.293   7.248  -0.518  0.00  0.00     0.003 A 
ATOM     16  C   UNL d   1      15.795   6.660  -1.679  0.00  0.00     0.007 A 
ATOM     17  C   UNL d   1      14.946   5.917  -2.494  0.00  0.00    -0.060 A 
ATOM     18  C   UNL d   1      15.418   5.360  -3.803  0.00  0.00     0.048 C 
ATOM     19  C   UNL d   1      13.608   5.738  -2.109  0.00  0.00     0.036 A 
ENDBRANCH  10  13
ENDBRANCH   3   7
BRANCH   1  20
ATOM     20  C   UNL d   1       5.300   2.688  -0.548  0.00  0.00     0.254 C 
ATOM     21  N   UNL d   1       4.566   1.821   0.285  0.00  0.00    -0.353 N 
ATOM     22  H   UNL d   1       5.100   1.051   0.682  0.00  0.00     0.163 HD
ATOM     23  O   UNL d   1       4.782   3.572  -1.226  0.00  0.00    -0.268 OA
BRANCH  21  24
ATOM     24  C   UNL d   1       3.112   1.536  -0.012  0.00  0.00     0.080 C 
ATOM     25  C   UNL d   1       2.438   2.611   0.745  0.00  0.00     0.032 C 
BRANCH  24  26
ATOM     26  C   UNL d   1       2.577   0.125   0.436  0.00  0.00     0.020 C 
ATOM     27  C   UNL d   1       1.040  -0.029   0.608  0.00  0.00     0.007 C 
ENDBRANCH  24  26
ENDBRANCH  21  24
ENDBRANCH   1  20
BRANCH   6  28
ATOM     28  N   UNL d   1       6.521  -0.070  -1.790  0.00  0.00    -0.378 N 
ATOM     29  C   UNL d   1       5.291   0.608  -1.887  0.00  0.00     0.127 C 
ATOM     30  C   UNL d   1       4.660  -0.421  -2.437  0.00  0.00     0.055 C 
ATOM     31  C   UNL d   1       3.531  -1.144  -2.758  0.00  0.00    -0.063 C 
ATOM     32  C   UNL d   1       2.469  -0.082  -2.852  0.00  0.00     0.004 C 
ATOM     33  C   UNL d   1       4.148  -2.407  -2.467  0.00  0.00     0.034 C 
ATOM     34  C   UNL d   1       1.258  -0.317  -2.368  0.00  0.00     0.000 C 
ATOM     35  C   UNL d   1       1.295  -1.616  -1.920  0.00  0.00    -0.003 C 
ATOM     36  C   UNL d   1       2.715  -2.562  -1.891  0.00  0.00    -0.009 C 
ATOM     37  C   UNL d   1       6.089  -1.863  -2.276  0.00  0.00     0.142 C 
ENDBRANCH   6  28
TORSDOF 6
